version 2
run First_exit_2-17-20191023-00:19:42-5122
attr configname First_exit_2
attr datetime 20191023-00:19:42
attr experiment First_exit_2
attr inifile omnetpp.ini
attr iterationvars ""
attr iterationvarsf ""
attr measurement ""
attr network ResponseTimeNetwork
attr processid 5122
attr repetition 17
attr replication #17
attr resultdir results
attr runnumber 17
attr seedset 17
param **.Source.interArrivalTime exponential(4s)
param **.jobPriority bernoulli(0.4)
param **.PS.serviceTimeU1 "uniform(0.4s, 1.0s)"
param **.PS.serviceTimeU2 "uniform(1s, 1.2s)"
param **.SS1.serviceTime exponential(0.4s)
param **.SS2.serviceTime exponential(0.8s)
param **.PS.exitProbability bernoulli(0.2)

vector 0 ResponseTimeNetwork.SS1 queueLength:vector ETV
attr interpolationmode sample-hold
attr title "queue length, vector"
vector 1 ResponseTimeNetwork.SS2 queueLength:vector ETV
attr interpolationmode sample-hold
attr title "queue length, vector"
vector 2 ResponseTimeNetwork.QueueU1 queueLength:vector ETV
attr interpolationmode sample-hold
attr title "queue length, vector"
vector 3 ResponseTimeNetwork.QueueU2 queueLength:vector ETV
attr interpolationmode sample-hold
attr title "queue length, vector"
vector 4 ResponseTimeNetwork.sink lifeTimeU2:vector ETV
attr interpolationmode none
attr title "lifetime of arrived jobs U2, vector"
attr unit s
vector 5 ResponseTimeNetwork.sink lifeTime:vector ETV
attr interpolationmode none
attr title "lifetime of arrived jobs, vector"
attr unit s
vector 6 ResponseTimeNetwork.sink lifeTimeU1:vector ETV
attr interpolationmode none
attr title "lifetime of arrived jobs U1, vector"
attr unit s
0	0	0	0
0	6495	4109.965204620217	1
0	6496	4110.074337624378	0
0	23755	14775.001503032746	1
0	23756	14775.010063407674	0
0	44030	27581.255286843659	1
0	44031	27581.726151289461	0
1	0	0	0
1	12	3.175061256768	1
1	14	3.618181780552	0
1	4630	2883.793469418854	1
1	4631	2884.786653389065	0
1	4745	2961.414331636541	1
1	4746	2963.296182945241	0
1	6740	4225.958074432497	1
1	6741	4225.977688732876	0
1	6800	4250.338963386289	1
1	6801	4251.608561636686	0
1	8015	5011.243047157947	1
1	8016	5011.367758237522	0
1	12530	8115.160316324017	1
1	12531	8115.315609785544	0
1	17737	11078.822743344311	1
1	17739	11078.980162947839	0
1	17760	11082.657522040843	1
1	17761	11085.249739500914	0
1	17889	11156.558568272268	1
1	17891	11156.59305920867	0
1	18820	11683.230073063547	1
1	18821	11683.361974819874	0
1	22995	14327.537934547701	1
1	22996	14327.793986942304	0
1	23535	14672.707440509707	1
1	23536	14673.581243679298	0
1	26060	16260.455538865718	1
1	26061	16260.820028758878	0
1	26065	16261.236603455516	1
1	26066	16261.890705068469	0
1	28365	17716.247881547158	1
1	28366	17717.06856566805	0
1	28370	17717.482399913739	1
1	28371	17718.038721448275	0
1	28550	17788.382988342879	1
1	28551	17789.072583060545	0
1	31105	19408.010739913508	1
1	31106	19408.924432692998	0
1	35565	22247.404527295277	1
1	35566	22247.526135206302	0
1	35680	22285.934592489724	1
1	35681	22286.803682489583	0
1	37735	23699.280258563076	1
1	37736	23699.344568429137	0
1	38045	23850.256849525928	1
1	38049	23850.319340889271	0
1	38052	23851.031115162579	1
1	38056	23851.767667611659	0
1	41700	26175.171437481278	1
1	41701	26175.579086937058	0
1	46040	28922.881605176531	1
1	46041	28922.983842267525	0
1	46490	29189.452675723277	1
1	46491	29190.174049658215	0
1	47762	29858.393801237698	1
1	47764	29858.789661759386	0
2	0	0	0
2	27	5.329854814985	1
2	28	5.350116527876	0
2	40	7.107716077504	1
2	43	7.589300895393	0
2	50	8.684388960922	1
2	51	8.900132166365	0
2	80	15.859991071812	1
2	81	16.463510272212	0
2	225	139.328709882681	1
2	226	140.080435589773	0
2	265	162.520241489087	1
2	266	162.623619242376	0
2	345	229.378997234337	1
2	346	229.854755757738	0
2	480	312.940638171961	1
2	481	313.641068154614	0
2	490	314.496496097716	1
2	491	314.819882686802	0
2	532	357.217247554671	1
2	533	357.278165147275	0
2	550	364.930654132497	1
2	552	365.51423403204	2
2	553	365.570996300663	1
2	556	366.461168772281	0
2	820	583.566696241336	1
2	821	583.912968987753	0
2	860	623.725148555959	1
2	861	624.148970591661	0
2	905	643.6312715807	1
2	906	644.420513363338	0
2	925	656.744432596971	1
2	926	657.30995137555	0
2	972	681.272305657923	1
2	973	681.388084569225	0
2	1045	704.607106536521	1
2	1046	705.188308187527	0
2	1075	721.819368948886	1
2	1076	722.179028316258	0
2	1100	740.385035109335	1
2	1101	740.738815293851	0
2	1105	740.883677293457	1
2	1106	741.600526678533	0
2	1120	745.802302691231	1
2	1121	746.198925372968	0
2	1225	810.702315975887	1
2	1226	810.863269483849	0
2	1245	829.532952151069	1
2	1246	829.710433164056	0
2	1315	881.218953727083	1
2	1316	882.05565738442	0
2	1320	882.26041543083	1
2	1322	882.366908100588	2
2	1323	882.91264879258	1
2	1326	883.682243222479	0
2	1400	919.476870427652	1
2	1401	919.789157368648	0
2	1565	1010.558195249083	1
2	1566	1010.630573458247	0
2	1620	1040.239731165473	1
2	1621	1040.762558713454	0
2	1660	1069.305326112143	1
2	1661	1069.952559950619	0
2	1755	1130.740668728389	1
2	1756	1131.358350006957	0
2	1855	1197.506690087188	1
2	1858	1197.738127357331	0
2	1985	1291.773570101956	1
2	1986	1292.352062480771	0
2	2105	1353.313139806235	1
2	2106	1353.78079780889	0
2	2152	1378.884734201274	1
2	2153	1379.151657470052	0
2	2160	1379.946285228602	1
2	2161	1380.38943241161	0
2	2215	1423.683176604893	1
2	2216	1424.594795912031	0
2	2425	1597.217997784584	1
2	2426	1597.511468734404	0
2	2445	1604.455304177944	1
2	2446	1604.731322921702	0
2	2485	1616.153204045542	1
2	2486	1616.306294785277	0
2	2510	1625.296975310449	1
2	2513	1625.527907264421	0
2	2517	1625.531593318098	1
2	2520	1626.419022097348	0
2	2575	1643.088869028	1
2	2576	1643.506614429494	0
2	2585	1654.089343470904	1
2	2586	1654.394666493569	0
2	2655	1697.85723123369	1
2	2656	1697.870965452631	0
2	2915	1845.97619431203	1
2	2916	1846.06255611548	0
2	2965	1869.421262484328	1
2	2968	1870.182276440707	0
2	3055	1933.318581187515	1
2	3056	1933.995457265263	0
2	3092	1950.570023449254	1
2	3093	1950.594782777763	0
2	3190	2018.769044465665	1
2	3191	2019.520789411887	0
2	3270	2067.451064296037	1
2	3271	2067.581789637762	0
2	3290	2073.226905904812	1
2	3291	2073.375579849607	0
2	3370	2146.371396044296	1
2	3371	2146.61970795043	0
2	3395	2150.357251365816	1
2	3396	2150.972490243263	0
2	3450	2167.806604269715	1
2	3451	2168.068700152533	0
2	3715	2371.196365911989	1
2	3716	2371.577050332269	0
2	3720	2371.865386996767	1
2	3721	2372.401831014697	0
2	3725	2372.406960091922	1
2	3726	2372.991212855056	0
2	3730	2373.413821123537	1
2	3731	2373.42150626556	0
2	3775	2420.45078163206	1
2	3776	2421.286430556565	0
2	3842	2458.427126909215	1
2	3843	2458.551682151891	0
2	3870	2468.103320446599	1
2	3871	2469.060030440618	0
2	3880	2470.197770384052	1
2	3881	2470.276869264203	0
2	3920	2480.864452446967	1
2	3921	2481.269374741354	0
2	3955	2499.315881122799	1
2	3958	2499.742616937075	0
2	3980	2512.215654499108	1
2	3981	2512.52733002037	0
2	4070	2563.459253722039	1
2	4071	2563.769326289758	0
2	4085	2566.112813809252	1
2	4087	2566.17728755455	2
2	4088	2566.778950130783	1
2	4091	2567.543156031549	0
2	4095	2568.082331525319	1
2	4096	2568.117445861997	0
2	4260	2689.7046964121	1
2	4263	2690.2936217559	0
2	4295	2715.472654710633	1
2	4296	2715.864996268871	0
2	4320	2729.56235518029	1
2	4321	2730.423739710363	0
2	4330	2731.52616384246	1
2	4331	2732.02723279404	0
2	4355	2751.832405792268	1
2	4356	2751.927937809169	0
2	4400	2776.050144386201	1
2	4403	2776.148842502808	0
2	4465	2791.749941943865	1
2	4466	2792.313804949473	0
2	4520	2828.829157202449	1
2	4521	2828.869328554714	0
2	4525	2828.917785152853	1
2	4526	2829.310710567929	0
2	4590	2859.030549155293	1
2	4591	2859.776362457662	0
2	4825	3021.492507339762	1
2	4826	3021.659388764149	0
2	4985	3144.597465197178	1
2	4986	3145.244171004937	0
2	5025	3184.162060075751	1
2	5026	3184.857262293616	0
2	5050	3208.6415104463	1
2	5051	3209.089267712159	0
2	5060	3209.779441813975	1
2	5061	3210.397943279732	0
2	5110	3226.302394578981	1
2	5111	3226.577492372916	0
2	5260	3313.414821625145	1
2	5263	3314.098380183257	0
2	5275	3318.458870138341	1
2	5276	3319.001132879003	0
2	5290	3322.105650177673	1
2	5291	3322.10977461106	0
2	5335	3354.414279823422	1
2	5336	3354.475301149679	0
2	5372	3382.264007031029	1
2	5373	3382.713661519905	0
2	5472	3440.882356213214	1
2	5475	3441.106453986862	0
2	5495	3447.178151927055	1
2	5498	3447.78134428451	0
2	5595	3509.703081855411	1
2	5597	3509.703461906161	2
2	5598	3509.752091987434	1
2	5601	3510.194361554508	0
2	5665	3543.229724216871	1
2	5666	3543.636086444169	0
2	5840	3687.06830043247	1
2	5841	3687.598772085462	0
2	5915	3737.241325319554	1
2	5916	3737.852953814027	0
2	5947	3748.004175244626	1
2	5948	3748.475134238316	0
2	5955	3749.59694363601	1
2	5956	3749.863511241642	0
2	5990	3769.183932328935	1
2	5991	3769.264234585009	0
2	6045	3784.537324351123	1
2	6047	3784.575565639262	2
2	6048	3784.802386860529	1
2	6051	3785.564590723047	0
2	6100	3818.07902467453	1
2	6101	3818.512947477242	0
2	6160	3852.505512331805	1
2	6161	3852.532724424902	0
2	6170	3855.816947176787	1
2	6171	3856.329443306881	0
2	6450	4092.849318598262	1
2	6451	4093.053380067874	0
2	6480	4106.890689242888	1
2	6481	4107.4046089567	0
2	6490	4108.934990710915	1
2	6491	4109.386191404327	0
2	6500	4110.121734721212	1
2	6501	4111.059294827414	0
2	6505	4111.216874140998	1
2	6507	4111.390080998857	2
2	6508	4112.03751044687	1
2	6511	4112.537335406375	0
2	6545	4135.315189950545	1
2	6546	4135.780062705044	0
2	6600	4161.140425432361	1
2	6601	4161.598524088026	0
2	6605	4162.179865607633	1
2	6608	4162.498545406372	0
2	6615	4163.49242295226	1
2	6616	4164.21270865587	0
2	6705	4214.359419391157	1
2	6706	4214.523945205701	0
2	6715	4216.57009010837	1
2	6716	4216.794616553428	0
2	6752	4226.936005744885	1
2	6753	4227.389512076734	0
2	6837	4264.946208170343	1
2	6838	4265.456532684084	0
2	6855	4269.661483198344	1
2	6856	4270.426908371016	0
2	6870	4275.365317741791	1
2	6871	4275.738916245066	0
2	7025	4361.369704259071	1
2	7026	4361.968905830647	0
2	7090	4408.202163294961	1
2	7091	4408.390115454048	0
2	7155	4452.843820255023	1
2	7156	4453.370517129376	0
2	7280	4513.147741000735	1
2	7281	4513.523922911792	0
2	7285	4513.630177552248	1
2	7288	4514.387251919827	0
2	7295	4515.593940093516	1
2	7296	4515.822971019933	0
2	7365	4539.290141789538	1
2	7367	4539.585534944912	2
2	7368	4539.991060292435	1
2	7373	4540.493169254896	0
2	7390	4545.733393944454	1
2	7391	4546.05235535889	0
2	7430	4566.287960277911	1
2	7433	4566.527167878762	0
2	7539	4668.00252303007	1
2	7540	4668.414231184564	0
2	7547	4669.377737194718	1
2	7548	4670.029355511694	0
2	7592	4696.636543550349	1
2	7593	4697.213761228781	0
2	7620	4732.711391123876	1
2	7621	4732.867317794013	0
2	7625	4733.337003990166	1
2	7629	4733.565147201244	2
2	7630	4733.839054125623	1
2	7633	4734.806416490843	0
2	7640	4735.792290822043	1
2	7641	4736.521586943913	0
2	7730	4833.648700289841	1
2	7731	4833.923367366356	0
2	7735	4834.244014761786	1
2	7736	4834.432279944488	0
2	7855	4929.690758139834	1
2	7856	4930.207543433242	0
2	7920	4972.696604538535	1
2	7921	4973.377676304141	0
2	7925	4973.810151809742	1
2	7926	4973.936929578511	0
2	7945	4982.838505080457	1
2	7946	4983.391838575386	0
2	7970	4989.747956138481	1
2	7972	4989.794040260164	2
2	7973	4989.832466585687	1
2	7976	4990.608794099078	0
2	7980	4990.756891064864	1
2	7981	4991.11202154675	0
2	7985	4991.241457934961	1
2	7986	4991.828507588557	0
2	8030	5015.486429499141	1
2	8031	5015.744213986483	0
2	8040	5016.858657134196	1
2	8041	5017.194276016431	0
2	8195	5134.937107877458	1
2	8197	5135.004730019453	2
2	8198	5135.732606565547	1
2	8202	5136.053353264241	2
2	8203	5136.693845967823	1
2	8206	5137.597864372297	0
2	8250	5184.088782833511	1
2	8251	5184.746177266814	0
2	8255	5184.911551855962	1
2	8256	5185.482685557051	0
2	8287	5204.434939192976	1
2	8288	5204.442158954021	0
2	8305	5206.58971994246	1
2	8306	5207.106824009254	0
2	8320	5220.560302039546	1
2	8323	5220.99517247645	0
2	8395	5258.976567331221	1
2	8396	5259.399087672348	0
2	8417	5265.124565433069	1
2	8418	5265.214480078445	0
2	8430	5283.670682962269	1
2	8431	5284.097779215273	0
2	8452	5290.609615558225	1
2	8455	5291.201704942854	0
2	8464	5292.709070593072	1
2	8465	5292.766446000104	0
2	8505	5306.547608944097	1
2	8506	5306.565889140671	0
2	8515	5307.444516298847	1
2	8516	5308.032132938305	0
2	8550	5316.366035271102	1
2	8551	5316.433142853339	0
2	8580	5326.500828605711	1
2	8581	5327.10973228955	0
2	8675	5384.152882918049	1
2	8677	5384.687751875438	2
2	8678	5384.809699319347	1
2	8681	5385.464200944404	0
2	8725	5408.393798055599	1
2	8726	5409.251139965696	0
2	8825	5453.02366801887	1
2	8826	5453.714637548013	0
2	8860	5468.106015402657	1
2	8861	5468.537753957368	0
2	8865	5468.683950500913	1
2	8866	5469.191136065961	0
2	8885	5492.57685070043	1
2	8886	5492.834639105145	0
2	8960	5521.324856993788	1
2	8961	5521.977172854621	0
2	9020	5574.96030444168	1
2	9021	5575.692522612045	0
2	9150	5668.845654066589	1
2	9151	5669.396284705858	0
2	9200	5705.852357791722	1
2	9201	5706.128569829265	0
2	9265	5750.6521933783	1
2	9266	5751.118309282069	0
2	9325	5792.24325991505	1
2	9326	5792.946949733782	0
2	9420	5845.474426088475	1
2	9421	5845.976559796258	0
2	9465	5897.259533444487	1
2	9466	5897.454691798505	0
2	9495	5906.676338262923	1
2	9497	5906.845423660676	2
2	9498	5907.110366877901	1
2	9503	5907.714468824944	0
2	9510	5908.480735655364	1
2	9512	5908.965755006827	2
2	9513	5909.060096942202	1
2	9516	5909.593691852956	0
2	9525	5915.758991648596	1
2	9528	5916.447213307102	0
2	9625	5961.203870489564	1
2	9626	5961.299835126894	0
2	9630	5961.346842219235	1
2	9631	5962.267043316085	0
2	9712	6028.435009309166	1
2	9713	6028.664816051381	0
2	9755	6096.93024548299	1
2	9758	6097.413330402247	0
2	9765	6098.775783056299	1
2	9766	6098.854210345748	0
2	9780	6103.666419625876	1
2	9781	6103.821098447626	0
2	10000	6250.687577609218	1
2	10001	6250.887153090941	0
2	10300	6450.543550242447	1
2	10303	6451.354463210394	0
2	10320	6454.170525789213	1
2	10321	6454.60246315754	0
2	10325	6454.739184389062	1
2	10326	6455.586241762172	0
2	10360	6472.271275283052	1
2	10361	6472.865144285461	0
2	10385	6479.46792796777	1
2	10386	6480.298721372485	0
2	10415	6499.642211102826	1
2	10416	6499.970551237317	0
2	10437	6511.899336446083	1
2	10438	6511.910868676625	0
2	10505	6552.851140928415	1
2	10506	6553.026694409617	0
2	10510	6553.215304631156	1
2	10511	6553.455245389671	0
2	10592	6613.895875650712	1
2	10593	6614.018981123679	0
2	10795	6715.019576807216	1
2	10798	6715.384502885137	0
2	10890	6789.22818425323	1
2	10891	6789.87243292201	0
2	10895	6789.9234288992	1
2	10896	6790.512683623281	0
2	11005	6927.769130238682	1
2	11006	6927.864708624945	0
2	11020	6938.600976912618	1
2	11021	6938.788002130019	0
2	11055	6956.89373921663	1
2	11056	6957.245200064378	0
2	11110	6991.452236821938	1
2	11111	6992.10120239511	0
2	11140	7026.76907300901	1
2	11141	7026.773832132101	0
2	11170	7047.713256938499	1
2	11171	7047.721708521787	0
2	11220	7076.430861452432	1
2	11221	7076.882544329681	0
2	11290	7169.601165119513	1
2	11291	7169.840130010007	0
2	11335	7194.424366374384	1
2	11336	7195.05311941896	0
2	11355	7198.481163475079	1
2	11356	7198.580619973176	0
2	11380	7209.365764959385	1
2	11381	7209.576561615086	0
2	11405	7224.734513201904	1
2	11406	7225.302466154927	0
2	11475	7260.558861267877	1
2	11476	7260.991149382778	0
2	11600	7397.827136957857	1
2	11601	7398.547076897645	0
2	11625	7413.880857946218	1
2	11628	7414.666026659553	0
2	11725	7503.387216671633	1
2	11726	7503.651095415489	0
2	11735	7504.830036785499	1
2	11736	7505.039792521055	0
2	11750	7511.432986608043	1
2	11751	7511.909767983727	0
2	11812	7556.619892256014	1
2	11813	7556.685972518285	0
2	11820	7557.68333098224	1
2	11822	7557.896813314552	2
2	11823	7558.123919117541	1
2	11826	7558.96519441283	0
2	11915	7616.089940959954	1
2	11916	7616.806949414427	0
2	11955	7644.678735959974	1
2	11956	7645.021585351484	0
2	12130	7825.936131663235	1
2	12131	7826.18898777915	0
2	12165	7847.963473716698	1
2	12166	7848.094763343051	0
2	12250	7909.152275122201	1
2	12251	7909.897110060836	0
2	12355	7974.504203231073	1
2	12356	7975.33474849508	0
2	12367	7976.3017637486	1
2	12368	7976.591477083637	0
2	12385	7988.054852031174	1
2	12386	7988.863371281777	0
2	12727	8267.864683098009	1
2	12728	8268.292798727815	0
2	12975	8481.370897333829	1
2	12976	8482.056476751051	0
2	12985	8482.80364583464	1
2	12986	8483.174418792303	0
2	13040	8512.717634316116	1
2	13041	8513.181832068995	0
2	13045	8513.265271736806	1
2	13046	8514.120459474739	0
2	13067	8525.374401606534	1
2	13068	8525.445844749318	0
2	13075	8526.895293851987	1
2	13076	8526.964169421702	0
2	13115	8548.261770453801	1
2	13116	8548.906189687481	0
2	13332	8651.086796632762	1
2	13333	8651.429244170036	0
2	13430	8706.092405688173	1
2	13431	8706.201961001663	0
2	13447	8708.233948347996	1
2	13448	8708.33053329564	0
2	13465	8727.8778698444	1
2	13466	8728.081556023147	0
2	13470	8728.098362168396	1
2	13471	8728.990602267815	0
2	13500	8743.608079759763	1
2	13501	8743.782707311171	0
2	13535	8762.975538872076	1
2	13536	8763.554459552834	0
2	13555	8770.245185237977	1
2	13558	8770.948381152331	0
2	13571	8771.952829612878	1
2	13572	8772.492579985318	0
2	13581	8773.59654062848	1
2	13582	8774.112485294977	0
2	13675	8848.954575713882	1
2	13676	8848.998261595969	0
2	13710	8863.99197459008	1
2	13711	8864.498379563476	0
2	13715	8864.576024856154	1
2	13718	8864.990305728401	0
2	13730	8866.51582372576	1
2	13732	8866.806204275061	2
2	13733	8867.29938419073	1
2	13738	8868.055916014203	0
2	13745	8869.586331981877	1
2	13746	8869.629435166932	0
2	13835	8921.207299233925	1
2	13836	8921.773824155867	0
2	13900	8951.440431374379	1
2	13901	8951.836065944908	0
2	13955	8974.351036062167	1
2	13956	8974.804431086395	0
2	14055	9029.309956888192	1
2	14056	9029.910243055054	0
2	14085	9049.617446102848	1
2	14086	9049.959596048574	0
2	14160	9095.312037595252	1
2	14161	9095.4457867687	0
2	14260	9165.03709735713	1
2	14261	9165.319990991941	0
2	14310	9178.056294727083	1
2	14311	9178.156195199543	0
2	14315	9178.852776918121	1
2	14316	9178.984950613703	0
2	14585	9374.596944686564	1
2	14586	9374.715831108869	0
2	14595	9375.971048522721	1
2	14598	9376.230854086171	0
2	14640	9395.990538868819	1
2	14641	9396.199649820884	0
2	14810	9481.777128607254	1
2	14811	9481.823414903453	0
2	14825	9485.070127484363	1
2	14826	9485.533709937307	0
2	14870	9516.502171361668	1
2	14871	9517.110997679698	0
2	14915	9537.108865979974	1
2	14916	9537.142103402701	0
2	14935	9543.881478135869	1
2	14936	9544.077842653273	0
2	14945	9546.763358780263	1
2	14948	9547.254752982898	0
2	14985	9554.861380442958	1
2	14986	9555.560084977804	0
2	15000	9559.490839373772	1
2	15001	9559.852085324044	0
2	15085	9615.202235520342	1
2	15086	9615.268658319564	0
2	15160	9665.627417958956	1
2	15161	9665.739425526594	0
2	15175	9668.643168280996	1
2	15176	9669.086814405265	0
2	15225	9700.217650134775	1
2	15226	9700.610812686323	0
2	15230	9700.719227439721	1
2	15231	9701.248391935355	0
2	15245	9715.669245635165	1
2	15246	9715.788660118736	0
2	15360	9781.845289898389	1
2	15361	9782.688668465335	0
2	15435	9829.686128406639	1
2	15436	9830.08784650173	0
2	15495	9880.858202856899	1
2	15496	9881.467079520383	0
2	15510	9884.090535193844	1
2	15511	9884.141188631148	0
2	15655	9959.689430715527	1
2	15657	9959.970908634364	2
2	15660	9960.202399751075	1
2	15664	9960.525749023527	2
2	15666	9960.713144055143	3
2	15667	9960.899337299537	2
2	15670	9961.473203372393	1
2	15673	9961.93943993826	0
2	15797	10020.768764044477	1
2	15799	10020.891531276151	2
2	15800	10021.018517048054	1
2	15803	10021.50290181339	0
2	15807	10021.975367187413	1
2	15808	10022.055579834108	0
2	15875	10054.973921467468	1
2	15876	10055.30420326361	0
2	15900	10075.139654858459	1
2	15901	10075.226792604006	0
2	15972	10095.994746222286	1
2	15973	10096.738515749806	0
2	16002	10112.84006824048	1
2	16003	10113.051956002481	0
2	16045	10133.202191973487	1
2	16046	10133.395013160992	0
2	16065	10141.967611631871	1
2	16068	10142.697337009788	0
2	16072	10143.308487696992	1
2	16073	10143.478924102879	0
2	16082	10144.370748321231	1
2	16083	10145.030522251998	0
2	16095	10146.60380224238	1
2	16096	10146.711303257228	0
2	16110	10152.973228146837	1
2	16111	10152.976889297685	0
2	16115	10153.084189277109	1
2	16118	10153.468966814775	0
2	16250	10233.325940081391	1
2	16251	10233.999386631545	0
2	16285	10247.509320302396	1
2	16286	10247.516707924847	0
2	16465	10355.569631371327	1
2	16466	10355.697508031771	0
2	16525	10413.303653854259	1
2	16526	10413.351713220562	0
2	16530	10413.886883429437	1
2	16531	10414.287764566551	0
2	16680	10491.361817080787	1
2	16681	10491.874477314702	0
2	16725	10509.868015264025	1
2	16726	10510.023919909546	0
2	16735	10511.012560362127	1
2	16736	10511.237664217159	0
2	16840	10590.212858616962	1
2	16841	10590.574262309601	0
2	16860	10599.54403094362	1
2	16861	10600.039795073997	0
2	17095	10727.792947782369	1
2	17096	10728.061854804019	0
2	17112	10731.245189211267	1
2	17113	10731.65333077012	0
2	17120	10732.505306346706	1
2	17121	10732.958859037267	0
2	17135	10748.350814536948	1
2	17136	10748.458685708926	0
2	17160	10765.519326895741	1
2	17161	10765.897068538593	0
2	17330	10884.941484077215	1
2	17333	10885.436336780085	0
2	17337	10885.759319508829	1
2	17338	10885.963244849887	0
2	17342	10886.169792622172	1
2	17343	10886.470879674355	0
2	17355	10888.018476989227	1
2	17356	10888.347239507584	0
2	17365	10889.311148646183	1
2	17366	10889.514387827402	0
2	17560	11015.471423646003	1
2	17561	11015.951651533555	0
2	17635	11046.600648865273	1
2	17636	11047.549763876082	0
2	17665	11055.179695713506	1
2	17666	11055.691446546503	0
2	17680	11060.614227530584	1
2	17681	11061.069230104403	0
2	17685	11061.26771173827	1
2	17686	11061.96707487188	0
2	17795	11109.427489439468	1
2	17796	11109.709647863757	0
2	17830	11148.986901810375	1
2	17837	11149.851815045015	0
2	17841	11150.293527894111	1
2	17842	11150.328097370728	0
2	17851	11151.455614594184	1
2	17852	11151.84468600498	0
2	17856	11152.15235615402	1
2	17857	11152.501502071735	0
2	17925	11162.927778033133	1
2	17926	11163.66635609476	0
2	18277	11344.76671850225	1
2	18278	11345.349980581102	0
2	18285	11346.349385237166	1
2	18286	11347.102286831258	0
2	18367	11395.990750578977	1
2	18368	11396.074478602098	0
2	18375	11396.712067126249	1
2	18378	11397.66645343687	0
2	18405	11413.871284610222	1
2	18406	11414.380632241843	0
2	18420	11425.608737997457	1
2	18421	11426.0829543022	0
2	18430	11426.883997342801	1
2	18431	11427.305092171815	0
2	18485	11465.327790684149	1
2	18486	11465.819424326347	0
2	18510	11489.179694187438	1
2	18511	11489.607517676576	0
2	18565	11519.781603004711	1
2	18568	11520.18927470727	0
2	18575	11521.453644923933	1
2	18576	11521.809950236437	0
2	18585	11522.917016243077	1
2	18587	11523.122494815114	2
2	18588	11523.566471939879	1
2	18593	11524.136549727777	0
2	18600	11525.344986637042	1
2	18601	11525.578721457366	0
2	18740	11633.47016498218	1
2	18741	11633.919589462321	0
2	18755	11638.552730957137	1
2	18756	11639.190993120155	0
2	18855	11702.873350116188	1
2	18856	11703.588716673018	0
2	18890	11717.025846257144	1
2	18891	11717.134556077021	0
2	18900	11723.352942076675	1
2	18901	11723.503145159271	0
2	18985	11772.106078959383	1
2	18986	11772.745110110434	0
2	19020	11789.231783073147	1
2	19021	11789.58496208449	0
2	19160	11922.80411134869	1
2	19161	11923.220443654785	0
2	19230	11961.024313389155	1
2	19231	11961.081719790095	0
2	19235	11961.784724304201	1
2	19236	11961.952618043519	0
2	19270	11978.553623796763	1
2	19271	11978.772364901914	0
2	19290	11989.4164969737	1
2	19291	11989.466260125311	0
2	19315	11996.129204456301	1
2	19316	11996.45067213864	0
2	19480	12078.975256014032	1
2	19481	12078.978459791887	0
2	19505	12091.343131313218	1
2	19506	12091.866725417149	0
2	19530	12111.116505890267	1
2	19531	12111.153823545805	0
2	19600	12177.103832669158	1
2	19601	12177.697591960109	0
2	19715	12231.386146791694	1
2	19716	12231.608832442638	0
2	19875	12330.52174652917	1
2	19876	12330.639008969243	0
2	19960	12447.409971753677	1
2	19961	12447.556601186473	0
2	19990	12480.008818994014	1
2	19991	12480.097677093848	0
2	20080	12530.047036021508	1
2	20081	12530.384770891164	0
2	20090	12532.43050232618	1
2	20091	12532.631270844895	0
2	20095	12532.818972329815	1
2	20096	12533.057320148438	0
2	20120	12536.921798372872	1
2	20122	12537.164566312687	2
2	20123	12537.443193304955	1
2	20128	12538.060550874935	0
2	20215	12575.604631310742	1
2	20216	12575.955626509891	0
2	20305	12630.50230356539	1
2	20306	12630.549739309982	0
2	20312	12631.044582519974	1
2	20314	12631.312292664791	2
2	20315	12631.476040390762	1
2	20318	12632.31618194885	0
2	20322	12632.896892453511	1
2	20323	12633.138645543134	0
2	20335	12644.393945236539	1
2	20336	12644.590754324745	0
2	20340	12644.725916877704	1
2	20341	12645.227629268717	0
2	20395	12671.267833608091	1
2	20396	12672.02765578303	0
2	20475	12716.807841390472	1
2	20476	12717.421838390183	0
2	20480	12717.509021573271	1
2	20481	12717.944105172072	0
2	20545	12753.025783151776	1
2	20546	12753.654103091179	0
2	20595	12766.222231632978	1
2	20596	12767.121850457436	0
2	20630	12786.993702258065	1
2	20631	12787.274233288683	0
2	20755	12868.9537468215	1
2	20756	12869.013116175912	0
2	20760	12869.186537228578	1
2	20761	12869.853294998824	0
2	21040	13052.541701194752	1
2	21043	13053.180925101638	0
2	21050	13053.993350608702	1
2	21052	13054.348080179284	2
2	21053	13054.583124597128	1
2	21056	13055.351851204726	0
2	21085	13097.779345997472	1
2	21086	13098.132641460148	0
2	21110	13120.131651309426	1
2	21111	13120.233442645625	0
2	21145	13134.679977067756	1
2	21146	13135.159395993945	0
2	21195	13169.424324166615	1
2	21196	13170.022688940787	0
2	21200	13170.046154227112	1
2	21203	13170.677848865292	0
2	21375	13285.527648253991	1
2	21380	13286.142371447909	0
2	21395	13288.583792108674	1
2	21396	13289.069438687129	0
2	21405	13290.082392100953	1
2	21406	13290.739060770836	0
2	21415	13292.416831626086	1
2	21416	13292.447399769141	0
2	21490	13326.741409304952	1
2	21491	13327.467412159237	0
2	21592	13397.719928177465	1
2	21593	13398.024856569321	0
2	21597	13398.076251091674	1
2	21598	13398.572477146919	0
2	21662	13445.265982220693	1
2	21663	13445.35440646268	0
2	21670	13446.277362931889	1
2	21671	13447.120342957671	0
2	21725	13509.508622664088	1
2	21726	13510.118370420319	0
2	21840	13572.707306632201	1
2	21843	13573.098529693798	0
2	21850	13574.131782232787	1
2	21851	13574.785841199371	0
2	21855	13575.012526255319	1
2	21856	13575.271627259941	0
2	21905	13598.125964568293	1
2	21906	13598.315652339744	0
2	21925	13606.723437167227	1
2	21926	13606.916657074345	0
2	22105	13781.541446422589	1
2	22106	13781.612091767667	0
2	22140	13801.386838005126	1
2	22141	13801.506241190551	0
2	22550	14103.614258460206	1
2	22551	14104.483727536153	0
2	22612	14134.163030417545	1
2	22613	14134.661012165248	0
2	22680	14159.881916932301	1
2	22681	14160.351387033251	0
2	22690	14162.387617655906	1
2	22691	14162.88775964887	0
2	22805	14227.605877056663	1
2	22806	14227.866406623458	0
2	22850	14242.399823879964	1
2	22851	14242.488549966833	0
2	22875	14248.138836857349	1
2	22876	14248.507101546777	0
2	22880	14248.882485308887	1
2	22881	14249.47551912208	0
2	22885	14249.712032122055	1
2	22886	14249.976865464485	0
2	22915	14268.249061951372	1
2	22916	14268.479644750987	0
2	22965	14296.783443588935	1
2	22966	14296.877645527434	0
2	23035	14348.596642342735	1
2	23036	14348.92728104781	0
2	23070	14371.758070145783	1
2	23071	14372.166979555876	0
2	23170	14447.76258984475	1
2	23171	14448.050906907928	0
2	23220	14472.282485323559	1
2	23221	14472.478658265893	0
2	23270	14491.231139043841	1
2	23271	14491.364743458297	0
2	23280	14492.951602850287	1
2	23281	14493.039823083257	0
2	23345	14547.566018942684	1
2	23346	14548.199412388533	0
2	23350	14548.500209033429	1
2	23351	14548.780463538451	0
2	23415	14601.074622428973	1
2	23416	14601.192460651127	0
2	23525	14671.153270373024	1
2	23526	14671.403824801757	0
2	23630	14711.421585360005	1
2	23631	14711.828104899069	0
2	23745	14772.852425760007	1
2	23747	14773.348676612415	2
2	23748	14773.606160711052	1
2	23751	14774.375979849018	0
2	23825	14811.093436245653	1
2	23826	14811.676186527674	0
2	23835	14816.887049124966	1
2	23836	14817.220680239827	0
2	23865	14860.821684465037	1
2	23866	14860.846431776277	0
2	23905	14877.587037468298	1
2	23906	14877.916524031503	0
2	23995	14949.625022754746	1
2	23996	14950.229537081113	0
2	24005	14951.135438587085	1
2	24007	14951.148373792001	2
2	24008	14952.061821839673	1
2	24015	14952.800529647612	0
2	24019	14953.183256166286	1
2	24020	14953.422403374447	0
2	24070	14986.167333391553	1
2	24071	14986.545589957508	0
2	24100	15014.758896963082	1
2	24101	15014.902619768083	0
2	24130	15026.646942532642	1
2	24131	15027.264381097755	0
2	24205	15094.820528893524	1
2	24206	15095.147803543985	0
2	24280	15149.096727482973	1
2	24281	15149.562187618744	0
2	24330	15161.940794453385	1
2	24331	15162.506211319316	0
2	24382	15191.81063935209	1
2	24383	15191.962531527658	0
2	24392	15192.68937690303	1
2	24393	15193.065352616286	0
2	24402	15194.358921575507	1
2	24403	15194.439827819973	0
2	24520	15248.774785214443	1
2	24521	15249.274965952754	0
2	24580	15270.616449459467	1
2	24581	15270.83996329077	0
2	24600	15287.498137769406	1
2	24603	15288.099822352166	0
2	24609	15288.442846797378	1
2	24611	15288.578153817424	2
2	24614	15288.752785473448	1
2	24617	15289.71989194112	0
2	24655	15309.093076757434	1
2	24656	15309.102194321457	0
2	24770	15395.64620476781	1
2	24771	15396.294701897955	0
2	24790	15405.607829945528	1
2	24791	15406.19062958283	0
2	24795	15406.642526348938	1
2	24796	15406.856027792651	0
2	24815	15422.427807297588	1
2	24816	15422.689148476682	0
2	24840	15440.605955973956	1
2	24841	15441.221223798888	0
2	24860	15445.260190063483	1
2	24861	15446.082290579371	0
2	24870	15446.971236394413	1
2	24871	15447.190303589815	0
2	24880	15448.54059138732	1
2	24881	15448.885567029697	0
2	24907	15472.538031039136	1
2	24908	15472.806455801018	0
2	25115	15614.202541429165	1
2	25116	15614.245452647622	0
2	25125	15614.959114586109	1
2	25126	15615.911404338119	0
2	25140	15623.835222934055	1
2	25141	15624.020003981802	0
2	25177	15652.393262903923	1
2	25178	15652.409702981893	0
2	25335	15746.342746264076	1
2	25336	15746.72518510609	0
2	25455	15851.175845923722	1
2	25457	15851.355846597405	2
2	25458	15851.411727810331	1
2	25462	15851.449485745767	2
2	25463	15852.385814549407	1
2	25466	15853.126779520471	0
2	25470	15853.343902033539	1
2	25471	15853.789961600077	0
2	25480	15857.084345945013	1
2	25483	15857.603061243327	0
2	25495	15859.908182860643	1
2	25496	15860.391213359859	0
2	25525	15892.872734031474	1
2	25526	15892.920180527432	0
2	25530	15893.275754891848	1
2	25531	15893.555426567545	0
2	25572	15912.947667835652	1
2	25573	15913.004398278428	0
2	25590	15919.170281143692	1
2	25591	15919.239939779562	0
2	25665	15994.45852772226	1
2	25666	15994.973614132297	0
2	25695	16013.35263385572	1
2	25696	16013.398622184892	0
2	25705	16014.445420531936	1
2	25706	16014.513354329526	0
2	25770	16048.926097325716	1
2	25771	16049.527862799847	0
2	25835	16104.59321739515	1
2	25836	16104.722533978622	0
2	25860	16135.994036470793	1
2	25861	16136.489082306877	0
2	25895	16148.41735804843	1
2	25896	16148.469411455356	0
2	25930	16185.5353345721	1
2	25931	16186.235480034865	0
2	26072	16262.369278197173	1
2	26073	16262.614717343789	0
2	26205	16340.492285391548	1
2	26206	16340.755029489281	0
2	26290	16408.342226512346	1
2	26291	16408.920072342818	0
2	26300	16410.602078312676	1
2	26301	16410.697554941379	0
2	26485	16497.623344237546	1
2	26486	16498.125524841705	0
2	26497	16499.467220477943	1
2	26498	16499.809449727032	0
2	26520	16514.311737433187	1
2	26521	16514.601602025506	0
2	26540	16520.750229643218	1
2	26541	16520.765514162907	0
2	26550	16521.884092388117	1
2	26551	16522.488675672121	0
2	26565	16527.040496328108	1
2	26566	16527.829173646615	0
2	26630	16577.964416406182	1
2	26633	16578.5901811348	0
2	26695	16616.356133785974	1
2	26697	16616.368349320666	2
2	26698	16616.849762638995	1
2	26701	16617.643354634253	0
2	26715	16626.820534683036	1
2	26716	16627.22224205311	0
2	26840	16703.96319127002	1
2	26841	16704.492797232509	0
2	26855	16716.169590150265	1
2	26856	16716.337174847719	0
2	26885	16732.616567641996	1
2	26886	16732.730845967173	0
2	27010	16803.725949777561	1
2	27011	16804.223352641423	0
2	27050	16846.885774200529	1
2	27051	16847.71853373396	0
2	27065	16859.310152186345	1
2	27066	16859.493150823527	0
2	27095	16876.786997273261	1
2	27096	16877.333796699531	0
2	27100	16877.957687458355	1
2	27101	16878.159857238782	0
2	27105	16878.529692988895	1
2	27106	16878.86037562387	0
2	27155	16919.428374286541	1
2	27156	16919.974307217501	0
2	27165	16921.111029157802	1
2	27167	16921.814586806052	2
2	27168	16921.868128976956	1
2	27171	16922.524325928682	0
2	27175	16922.788176490486	1
2	27178	16923.486012164069	0
2	27182	16923.618396797503	1
2	27185	16924.035836462754	0
2	27192	16925.020692269824	1
2	27193	16925.90923051488	0
2	27295	16993.398120218897	1
2	27296	16993.521715471432	0
2	27305	16997.266785249279	1
2	27306	16997.59085983953	0
2	27370	17055.030351525993	1
2	27371	17055.162439388674	0
2	27500	17116.256446620516	1
2	27501	17116.976291030029	0
2	27515	17119.119123827953	1
2	27516	17119.425572375017	0
2	27587	17154.776981794843	1
2	27588	17154.803218669253	0
2	27620	17177.250388825277	1
2	27621	17177.7134942618	0
2	27680	17202.213239406873	1
2	27681	17202.871829237227	0
2	27690	17205.117056565024	1
2	27691	17206.02343890145	0
2	27850	17356.145984595105	1
2	27851	17356.341006976563	0
2	27915	17390.680897391464	1
2	27916	17391.16325361619	0
2	28050	17502.476258585817	1
2	28051	17502.718493967511	0
2	28192	17614.912061107598	1
2	28193	17615.319459256609	0
2	28340	17708.693630918987	1
2	28341	17709.363747257795	0
2	28465	17766.609440049834	1
2	28468	17767.128565545473	0
2	28490	17771.48830007887	1
2	28491	17772.065088780401	0
2	28505	17774.975938065474	1
2	28507	17775.151465441602	2
2	28508	17775.490687996767	1
2	28511	17776.433578659467	0
2	28535	17785.518332548738	1
2	28538	17785.872783073833	0
2	28650	17852.086160857952	1
2	28651	17852.176629356695	0
2	28822	17974.124058087816	1
2	28823	17974.721190116131	0
2	28845	18004.798640454135	1
2	28848	18005.190368826097	0
2	28910	18029.650076678627	1
2	28911	18030.409440379929	0
2	28920	18031.196020580928	1
2	28921	18031.635084047462	0
2	28985	18083.080466502626	1
2	28986	18083.462731490766	0
2	28990	18083.639342797244	1
2	28991	18083.993140438029	0
2	28995	18084.065419939094	1
2	28997	18084.146631719931	2
2	28998	18084.643013737646	1
2	29001	18085.621779784669	0
2	29160	18198.645029959876	1
2	29161	18198.674994572937	0
2	29240	18242.87072878716	1
2	29241	18243.127319349845	0
2	29245	18243.568976237306	1
2	29246	18243.650253480285	0
2	29280	18274.944413737513	1
2	29281	18275.200691910831	0
2	29370	18354.355656320795	1
2	29371	18354.499160681771	0
2	29375	18354.895391942661	1
2	29376	18355.371609536711	0
2	29395	18367.388734885395	1
2	29396	18368.199609644523	0
2	29415	18399.815795289772	1
2	29416	18400.710747226373	0
2	29435	18406.445849944927	1
2	29436	18406.505740202482	0
2	29470	18420.405525864553	1
2	29471	18420.568051968285	0
2	29485	18423.711654894687	1
2	29486	18424.211306994236	0
2	29625	18520.698295772773	1
2	29626	18521.108260082928	0
2	29630	18521.171360506794	1
2	29631	18521.648216145169	0
2	29655	18530.141993069011	1
2	29656	18531.072481154638	0
2	29685	18541.91446989256	1
2	29686	18542.289071191717	0
2	29785	18603.124335860373	1
2	29786	18603.418005481275	0
2	29825	18621.716923071708	1
2	29826	18621.762386229843	0
2	29870	18652.893402832984	1
2	29871	18652.986525526564	0
2	29970	18707.970842224587	1
2	29971	18708.051087996076	0
2	29995	18731.891353171867	1
2	29998	18732.278005628434	0
2	30185	18836.389386028988	1
2	30186	18836.988285062455	0
2	30260	18878.228455209393	1
2	30261	18878.727630120545	0
2	30270	18882.892325790438	1
2	30271	18883.038953630519	0
2	30310	18922.299785703279	1
2	30311	18922.384393448201	0
2	30395	18968.407285272066	1
2	30396	18968.954721264864	0
2	30460	19011.014669473336	1
2	30461	19011.586433528718	0
2	30525	19054.136317313575	1
2	30526	19054.868706225093	0
2	30560	19064.420186214844	1
2	30561	19064.838212825181	0
2	30570	19065.771779659728	1
2	30571	19066.460372701529	0
2	30645	19112.171100691709	1
2	30646	19112.288014741161	0
2	30650	19112.342458247069	1
2	30651	19112.728936829849	0
2	30700	19162.679826506613	1
2	30701	19163.248359397043	0
2	30705	19163.900399136671	1
2	30706	19164.203076290887	0
2	30770	19206.717908185703	1
2	30771	19206.799934066409	0
2	30775	19207.197291374491	1
2	30776	19207.431821861813	0
2	30842	19238.217446333199	1
2	30843	19238.303172860922	0
2	30910	19274.890810126978	1
2	30911	19275.268080667814	0
2	31070	19389.388621993688	1
2	31071	19389.398612310676	0
2	31090	19400.578946754826	1
2	31091	19400.90998988405	0
2	31135	19417.382685539941	1
2	31136	19417.911668846429	0
2	31175	19448.554099647331	1
2	31176	19448.731110965728	0
2	31185	19453.147252601672	1
2	31186	19453.532726937033	0
2	31190	19453.631712222915	1
2	31191	19454.229417740427	0
2	31247	19469.965274919517	1
2	31248	19470.219037752142	0
2	31252	19470.586396696081	1
2	31253	19470.786954744914	0
2	31285	19485.036526512637	1
2	31286	19485.529040695722	0
2	31365	19507.935550507488	1
2	31368	19508.560450211058	0
2	31425	19535.32055769276	1
2	31429	19535.800389593097	2
2	31430	19535.802276164536	1
2	31434	19535.862883137643	2
2	31435	19536.730732501681	1
2	31438	19537.218947742424	0
2	31465	19558.9014857716	1
2	31466	19559.180546951863	0
2	31480	19578.850310804418	1
2	31481	19579.122136826083	0
2	31485	19579.775836558242	1
2	31486	19580.098417543542	0
2	31490	19580.426624411315	1
2	31491	19580.669696133646	0
2	31532	19607.898005898947	1
2	31533	19607.986915010234	0
2	31537	19608.275794517962	1
2	31540	19608.637263549372	0
2	31565	19620.999804132072	1
2	31567	19621.241794417059	2
2	31568	19621.394408074703	1
2	31571	19622.097599072225	0
2	31607	19634.961990068305	1
2	31608	19634.975766980303	0
2	31625	19637.724133559542	1
2	31626	19638.473249044344	0
2	31640	19654.831236326651	1
2	31641	19654.908087376206	0
2	31700	19713.451563475733	1
2	31701	19713.678662593733	0
2	31750	19737.886849322018	1
2	31751	19738.218596065542	0
2	31875	19814.392117356518	1
2	31876	19814.842057017239	0
2	31890	19823.340630640754	1
2	31891	19823.694388291157	0
2	31900	19824.879881442571	1
2	31903	19825.027323118142	0
2	31995	19875.973181965144	1
2	31996	19876.026880430799	0
2	32100	19953.822749751502	1
2	32101	19954.022216538494	0
2	32105	19954.221272052423	1
2	32106	19954.54099066543	0
2	32125	19968.020645780059	1
2	32126	19968.49020416676	0
2	32145	19975.578456768692	1
2	32146	19975.639302988507	0
2	32180	19986.794259651763	1
2	32181	19987.560964915451	0
2	32290	20051.738207384384	1
2	32291	20052.41416562782	0
2	32335	20081.172543336115	1
2	32336	20081.542543388201	0
2	32340	20081.673263524695	1
2	32342	20081.805262434156	2
2	32343	20082.326555176867	1
2	32348	20082.906309985552	0
2	32370	20093.769869972905	1
2	32371	20094.057096221666	0
2	32555	20234.235779833255	1
2	32556	20234.829955623299	0
2	32590	20248.148662670343	1
2	32591	20248.460246212788	0
2	32600	20250.217494704684	1
2	32601	20250.255737483037	0
2	32620	20268.577632648726	1
2	32621	20268.775929037843	0
2	32625	20268.865640225368	1
2	32626	20269.638600244315	0
2	32690	20310.669225899913	1
2	32691	20311.040580611681	0
2	32865	20448.717517884983	1
2	32866	20448.796556002185	0
2	32895	20478.896213476134	1
2	32896	20478.931565100455	0
2	32920	20491.910128782194	1
2	32921	20492.098321825149	0
2	33060	20648.558000889827	1
2	33062	20649.001515407452	2
2	33063	20649.415089209235	1
2	33066	20649.905088248194	0
2	33070	20650.201281693149	1
2	33071	20650.512218674362	0
2	33175	20708.151919351551	1
2	33176	20708.48712315525	0
2	33240	20754.07656995655	1
2	33241	20754.239685842551	0
2	33275	20774.0884499557	1
2	33276	20774.336269166161	0
2	33307	20787.727149333931	1
2	33308	20787.927773412538	0
2	33355	20814.405567805558	1
2	33356	20814.858877862017	0
2	33360	20814.901896255891	1
2	33361	20815.538987835595	0
2	33390	20834.260574223899	1
2	33391	20834.586310479132	0
2	33465	20894.328508518277	1
2	33466	20894.695120095009	0
2	33640	21043.184355984648	1
2	33641	21044.07271860682	0
2	33750	21114.968913451496	1
2	33751	21115.468754355146	0
2	33760	21122.208554694483	1
2	33761	21122.860899122805	0
2	33790	21147.725217533296	1
2	33791	21148.084981432425	0
2	33800	21163.694816586921	1
2	33801	21164.243988205996	0
2	33905	21282.504879870399	1
2	33906	21282.783249911907	0
2	33970	21330.000807062947	1
2	33971	21330.410435133262	0
2	33977	21331.261035691053	1
2	33978	21331.309270169234	0
2	34040	21361.875427182775	1
2	34041	21362.2756807966	0
2	34075	21377.62736878987	1
2	34076	21378.31473350787	0
2	34220	21503.804849055257	1
2	34221	21504.129096081224	0
2	34225	21504.653642842745	1
2	34226	21504.934289440163	0
2	34230	21505.02296277065	1
2	34231	21505.543172407453	0
2	34235	21506.039360692496	1
2	34236	21506.304044617177	0
2	34240	21506.42442920035	1
2	34241	21507.231676026131	0
2	34390	21598.787383707515	1
2	34391	21599.565729792913	0
2	34535	21697.251797978909	1
2	34536	21697.340789376105	0
2	34590	21716.745135748061	1
2	34591	21716.746791703304	0
2	34715	21780.68579398769	1
2	34716	21781.452599765817	0
2	34730	21796.42159603431	1
2	34731	21796.639123368852	0
2	34875	21870.061247943371	1
2	34878	21870.754133459162	0
2	34985	21926.882853684777	1
2	34986	21927.0495723547	0
2	34995	21927.666507798976	1
2	34996	21928.059999466852	0
2	35185	22061.205183297869	1
2	35186	22061.568897377843	0
2	35235	22088.981777963167	1
2	35236	22089.821645289039	0
2	35275	22098.659990784222	1
2	35276	22099.06325201749	0
2	35355	22138.924040801935	1
2	35356	22139.564576478418	0
2	35475	22210.279231417878	1
2	35476	22210.680665793588	0
2	35520	22236.78670331961	1
2	35521	22237.387468326091	0
2	35530	22238.664145554903	1
2	35533	22239.397528083502	0
2	35545	22241.35100553352	1
2	35546	22241.82936677483	0
2	35652	22277.903706841885	1
2	35653	22278.160535443027	0
2	35670	22284.397792455756	1
2	35671	22284.466130439437	0
2	35765	22340.486346751831	1
2	35766	22340.845524168734	0
2	35775	22345.193441078562	1
2	35776	22345.409521791742	0
2	35975	22454.620885338412	1
2	35976	22455.001277050981	0
2	36040	22491.333209720314	1
2	36041	22491.692158541679	0
2	36075	22503.724346439147	1
2	36076	22503.736868309779	0
2	36105	22532.889907943844	1
2	36106	22532.926207538811	0
2	36215	22614.924937931755	1
2	36216	22615.617480251137	0
2	36345	22695.062590860735	1
2	36346	22695.225571852731	0
2	36400	22759.001766193673	1
2	36401	22759.36736438445	0
2	36445	22802.322837734497	1
2	36446	22802.995635558843	0
2	36530	22850.419396415459	1
2	36531	22850.571051584955	0
2	36630	22925.170259752356	1
2	36631	22925.577390897436	0
2	36675	22966.006602419556	1
2	36676	22966.329612920075	0
2	36707	22988.903709731633	1
2	36708	22989.300771467617	0
2	36712	22989.659722879655	1
2	36713	22989.900978218248	0
2	36727	22992.082651993586	1
2	36728	22992.281191135756	0
2	36850	23077.770138295426	1
2	36851	23078.108744756261	0
2	36885	23104.299088483941	1
2	36887	23105.097215600793	2
2	36888	23105.21741681188	1
2	36891	23105.875765230792	0
2	36920	23118.861799763715	1
2	36921	23118.888035261021	0
2	37035	23193.529585828967	1
2	37036	23193.702692763263	0
2	37060	23202.096679067364	1
2	37061	23202.779695200043	0
2	37255	23347.006803939721	1
2	37256	23347.462777347611	0
2	37525	23527.785028662324	1
2	37526	23528.54163765544	0
2	37545	23536.95764095795	1
2	37546	23537.319127125961	0
2	37630	23624.211611916297	1
2	37631	23624.318370973504	0
2	37770	23715.636533931075	1
2	37773	23716.290403314906	0
2	37815	23740.181198749129	1
2	37816	23740.848266688149	0
2	37835	23754.737052112446	1
2	37837	23755.121210727192	2
2	37838	23755.206734584779	1
2	37841	23755.782644543652	0
2	38115	23901.87869359296	1
2	38116	23902.578884631014	0
2	38140	23933.670193949216	1
2	38141	23933.675763285067	0
2	38180	23973.374030766009	1
2	38181	23974.018102855488	0
2	38185	23974.46106291811	1
2	38186	23974.84981067923	0
2	38195	23983.738427763499	1
2	38196	23983.81525618797	0
2	38260	24028.565709938071	1
2	38261	24028.962977093681	0
2	38492	24183.761476895837	1
2	38493	24184.027314434514	0
2	38600	24248.83824383509	1
2	38601	24249.634642897126	0
2	38660	24291.387631258019	1
2	38661	24291.390962949688	0
2	38670	24292.400731956076	1
2	38671	24292.709802298494	0
2	38715	24310.090439355209	1
2	38716	24310.828090017561	0
2	38790	24384.619662648502	1
2	38791	24384.658649015632	0
2	38795	24384.675288522903	1
2	38798	24385.614652556619	0
2	38802	24385.730661336384	1
2	38803	24386.585646570539	0
2	38820	24394.535756181638	1
2	38821	24394.59309756951	0
2	38860	24415.042680726055	1
2	38861	24415.484177097801	0
2	38900	24471.189853751346	1
2	38901	24471.295895687914	0
2	38910	24474.433434969566	1
2	38911	24474.449949553091	0
2	38920	24475.455991844118	1
2	38921	24476.049149132298	0
2	38970	24526.783752959738	1
2	38971	24526.890936285059	0
2	38975	24526.946288515628	1
2	38976	24527.477989384753	0
2	39090	24585.485747097684	1
2	39093	24585.88779150698	0
2	39122	24605.94362843658	1
2	39123	24606.254039104903	0
2	39265	24693.399796092259	1
2	39266	24694.07455786781	0
2	39385	24806.090165644102	1
2	39386	24806.262352993447	0
2	39580	24943.04286710266	1
2	39583	24943.189987612318	0
2	39645	24971.578329183565	1
2	39646	24971.665408908157	0
2	39705	24987.267438612705	1
2	39706	24987.637593064669	0
2	39710	24987.883817246868	1
2	39711	24988.546547737464	0
2	39740	25016.524005137313	1
2	39741	25017.153927983592	0
2	39840	25057.393954374663	1
2	39841	25057.66086034632	0
2	39845	25058.072197337892	1
2	39846	25058.253645438298	0
2	40000	25171.334966406586	1
2	40001	25171.555698604326	0
2	40030	25195.228216719935	1
2	40031	25195.538705828196	0
2	40092	25249.818315548469	1
2	40093	25250.522619367911	0
2	40110	25254.513475757461	1
2	40111	25254.955574287614	0
2	40120	25259.511443877948	1
2	40121	25259.794331046729	0
2	40130	25260.736692106536	1
2	40131	25261.21226101707	0
2	40165	25284.779160320881	1
2	40166	25285.309413453162	0
2	40195	25300.691231656117	1
2	40198	25301.235162010858	0
2	40205	25302.252891874097	1
2	40206	25302.673199950786	0
2	40215	25303.205599755131	1
2	40216	25303.694274725927	0
2	40525	25495.119418435045	1
2	40526	25495.268281973004	0
2	40595	25530.974544903691	1
2	40596	25531.199221679531	0
2	40695	25613.421023208113	1
2	40696	25613.733297066279	0
2	40725	25656.475734043889	1
2	40726	25657.136591380911	0
2	40800	25696.155355592244	1
2	40801	25696.467270481372	0
2	40837	25717.078973884743	1
2	40838	25717.527607007704	0
2	40850	25719.332784765188	1
2	40851	25719.773796480668	0
2	40890	25728.235487729949	1
2	40891	25728.660581953268	0
2	40920	25738.604307015158	1
2	40921	25738.706765495092	0
2	40935	25741.134999128327	1
2	40936	25741.55135191231	0
2	40990	25771.806407993056	1
2	40991	25772.464133476014	0
2	41035	25793.529424964868	1
2	41036	25794.025852842185	0
2	41055	25802.648482866668	1
2	41056	25803.532868764937	0
2	41075	25809.537614357153	1
2	41076	25810.05535873835	0
2	41135	25828.889459249241	1
2	41136	25829.842671864114	0
2	41195	25854.376779242563	1
2	41196	25854.619011068391	0
2	41260	25891.805077077247	1
2	41261	25892.623291999828	0
2	41275	25900.808260990792	1
2	41276	25901.157727980158	0
2	41289	25902.417393099929	1
2	41290	25902.673934570862	0
2	41297	25903.736382288776	1
2	41298	25904.06921963368	0
2	41310	25906.504857661499	1
2	41311	25906.699225470705	0
2	41365	25939.452441801045	1
2	41367	25939.534403001032	2
2	41368	25939.862895691605	1
2	41371	25940.51176094052	0
2	41385	25944.178316369983	1
2	41386	25944.228266382643	0
2	41390	25944.298063510941	1
2	41391	25944.829302951467	0
2	41470	26004.432257978526	1
2	41471	26004.926077626224	0
2	41480	26006.088878406783	1
2	41481	26006.782654189852	0
2	41505	26014.367270543339	1
2	41506	26014.370271486318	0
2	41615	26100.488819005488	1
2	41616	26100.529818090557	0
2	41995	26320.929094948695	1
2	41996	26321.662040136163	0
2	42007	26323.067465864145	1
2	42008	26323.20146748262	0
2	42195	26435.532315137968	1
2	42196	26436.122883951154	0
2	42200	26436.506849729498	1
2	42201	26436.93173927041	0
2	42230	26442.912296857958	1
2	42231	26443.243714016946	0
2	42235	26443.298157012621	1
2	42237	26443.497780522528	2
2	42238	26443.732566270595	1
2	42242	26444.18191198436	2
2	42243	26444.310741227017	1
2	42248	26444.747098220689	0
2	42285	26465.582804263808	1
2	42286	26466.390255924841	0
2	42290	26466.438494897662	1
2	42291	26467.057092133971	0
2	42335	26508.282056212316	1
2	42338	26508.706305423653	0
2	42405	26531.129054289393	1
2	42406	26531.314288026218	0
2	42580	26644.159315321334	1
2	42581	26644.604547703041	0
2	42625	26683.345406437341	1
2	42626	26684.221289972279	0
2	42635	26690.780860285481	1
2	42636	26691.38640228048	0
2	42715	26773.015660107691	1
2	42716	26773.757349295118	0
2	42735	26793.452392728483	1
2	42736	26793.799281212279	0
2	42745	26795.056325031642	1
2	42748	26795.848755044398	0
2	42760	26799.889074386869	1
2	42761	26800.728877836745	0
2	42780	26814.922479633615	1
2	42781	26815.169384563273	0
2	42865	26888.611505530982	1
2	42866	26889.107371902939	0
2	42885	26898.174486255188	1
2	42886	26898.340627330051	0
2	43025	26982.783632287851	1
2	43026	26983.526614198079	0
2	43165	27089.232354678506	1
2	43168	27089.425242073632	0
2	43245	27114.142280015941	1
2	43246	27114.316386879703	0
2	43255	27115.557811746191	1
2	43258	27115.826361717798	0
2	43270	27120.370505322857	1
2	43271	27120.698236074081	0
2	43350	27154.838553136361	1
2	43351	27155.419082661743	0
2	43402	27205.743609961654	1
2	43403	27206.39651896215	0
2	43410	27207.618169152518	1
2	43411	27208.0674155764	0
2	43540	27279.885730303878	1
2	43541	27280.497589945587	0
2	43560	27286.463396759316	1
2	43561	27286.879227554947	0
2	43565	27286.997460222426	1
2	43566	27287.529335416257	0
2	43570	27287.570573747536	1
2	43571	27288.505810789447	0
2	43575	27288.914760437846	1
2	43576	27288.940278580514	0
2	43645	27343.419337586578	1
2	43646	27343.790770448314	0
2	43655	27345.392123284464	1
2	43657	27345.416459388696	2
2	43658	27345.736347641145	1
2	43661	27346.614657199058	0
2	43665	27347.170062012769	1
2	43666	27347.557319347049	0
2	43727	27370.112648074137	1
2	43728	27370.866804486448	0
2	43740	27385.330238435258	1
2	43741	27385.637098485401	0
2	43760	27397.132406514445	1
2	43761	27397.406063296386	0
2	44035	27582.39530531488	1
2	44037	27582.420410132502	2
2	44038	27582.693787390036	1
2	44041	27583.099200657797	0
2	44080	27601.099272095996	1
2	44081	27601.25885695851	0
2	44090	27607.828909252349	1
2	44091	27608.332754771041	0
2	44105	27624.02726399173	1
2	44108	27624.806216628384	0
2	44115	27625.61005610282	1
2	44116	27626.297781859897	0
2	44150	27651.231872863426	1
2	44151	27651.438173612585	0
2	44260	27753.67242596194	1
2	44263	27754.185088518071	0
2	44267	27754.41471362389	1
2	44268	27755.012197196712	0
2	44325	27790.397150911021	1
2	44326	27790.568258308266	0
2	44365	27822.93752701248	1
2	44366	27823.262438028477	0
2	44420	27856.252356612588	1
2	44421	27856.377600246604	0
2	44570	27969.287283135706	1
2	44571	27969.87272586963	0
2	44595	27978.916158419721	1
2	44596	27979.683813391548	0
2	44602	27979.97512510369	1
2	44603	27980.152299553357	0
2	44612	27981.161102541531	1
2	44613	27981.472707995275	0
2	44840	28116.135476243244	1
2	44841	28116.332313899289	0
2	44845	28116.9119166241	1
2	44847	28116.927875151607	2
2	44848	28117.211456932419	1
2	44851	28117.792063910759	0
2	44905	28164.447429324738	1
2	44906	28164.46422136973	0
2	44975	28219.209111632872	1
2	44976	28219.991216337837	0
2	44990	28226.339441396026	1
2	44991	28226.753928442326	0
2	45015	28240.827983259628	1
2	45016	28241.181931837769	0
2	45035	28254.480201774384	1
2	45036	28255.051459737005	0
2	45050	28262.443221867194	1
2	45051	28262.883706008669	0
2	45095	28284.201046594072	1
2	45096	28284.331966618521	0
2	45115	28291.834124925912	1
2	45116	28292.517486576656	0
2	45135	28302.208286066087	1
2	45136	28302.681227481358	0
2	45160	28364.514446162701	1
2	45161	28364.681476522479	0
2	45165	28364.819520807782	1
2	45166	28365.1196253026	0
2	45200	28391.109255181514	1
2	45201	28391.721525746775	0
2	45280	28459.03715155333	1
2	45281	28459.328025610203	0
2	45505	28617.372590050701	1
2	45506	28617.495037995626	0
2	45580	28666.562215117109	1
2	45581	28666.766949001896	0
2	45585	28666.951109825108	1
2	45586	28667.721499199384	0
2	45820	28814.820278892805	1
2	45821	28815.541252966258	0
2	45840	28818.399638302854	1
2	45842	28818.497765818899	2
2	45843	28818.877983372902	1
2	45846	28819.317370974283	0
2	45890	28846.1572805661	1
2	45891	28846.534881077623	0
2	45910	28859.306987842041	1
2	45911	28859.522541187965	0
2	45940	28874.93088493089	1
2	45943	28875.336449532601	0
2	45970	28898.16059520504	1
2	45972	28898.381788219344	2
2	45973	28898.553991574192	1
2	45976	28899.475116345569	0
2	45990	28901.935215198094	1
2	45991	28902.614287459667	0
2	45995	28902.760144182984	1
2	45996	28903.196356037402	0
2	46055	28925.033556752023	1
2	46056	28925.962159873888	0
2	46080	28933.604761342936	1
2	46081	28934.285873443015	0
2	46135	28969.395783663318	1
2	46136	28969.870552901606	0
2	46160	28991.752822120937	1
2	46161	28992.114189778912	0
2	46175	28994.731789397655	1
2	46176	28994.844977374947	0
2	46295	29097.170798188771	1
2	46296	29098.035234110173	0
2	46315	29100.838265990129	1
2	46316	29101.246273468758	0
2	46340	29114.672491609826	1
2	46341	29114.831255001975	0
2	46435	29169.917313982975	1
2	46436	29170.180351850403	0
2	46445	29173.650075503827	1
2	46446	29174.197424667814	0
2	46605	29246.139451828955	1
2	46606	29246.387892792585	0
2	46615	29247.238248205959	1
2	46617	29247.547356348658	2
2	46618	29247.605161418092	1
2	46623	29248.302505403922	0
2	46712	29307.093966615724	1
2	46713	29307.186204151913	0
2	46725	29309.413329069874	1
2	46726	29309.707593382814	0
2	46765	29330.372651236254	1
2	46766	29330.934268501903	0
2	46810	29347.682365144333	1
2	46811	29347.703467220495	0
2	46820	29355.239573842929	1
2	46821	29355.600340991381	0
2	46860	29372.461430662012	1
2	46861	29372.678531856326	0
2	46945	29426.719076913609	1
2	46946	29427.046513886728	0
2	47010	29453.391490719528	1
2	47011	29453.620588923875	0
2	47045	29493.978010902139	1
2	47046	29494.25781695523	0
2	47095	29514.398914358658	1
2	47096	29514.685219188024	0
2	47132	29529.932941930627	1
2	47133	29530.147954031826	0
2	47165	29543.001037184566	1
2	47166	29543.485709794012	0
2	47195	29561.722036834332	1
2	47196	29562.315771991179	0
2	47210	29565.717925712577	1
2	47211	29565.866152886963	0
2	47245	29585.590199883796	1
2	47246	29585.796625649405	0
2	47260	29592.754268891579	1
2	47262	29592.959956241449	2
2	47263	29593.141384101079	1
2	47268	29594.098465537631	0
2	47285	29599.696431197435	1
2	47286	29600.076066050828	0
2	47405	29651.630338216486	1
2	47406	29652.112986733025	0
2	47460	29676.098506643009	1
2	47461	29676.853295021164	0
2	47490	29687.846945463858	1
2	47491	29688.028126628778	0
2	47525	29704.228669229891	1
2	47526	29704.809170383369	0
2	47645	29775.099477427404	1
2	47646	29775.565292873261	0
2	47660	29789.193588490275	1
2	47661	29790.098800469146	0
2	47725	29835.254913018423	1
2	47726	29835.351303874586	0
2	47760	29858.182720270303	1
2	47761	29858.393801237698	0
2	47774	29859.793367630094	1
2	47775	29859.863682891391	0
2	47795	29872.264953333906	1
2	47796	29872.541577763719	0
2	47855	29915.604356593969	1
2	47856	29915.771202120277	0
2	47860	29916.652284726753	1
2	47861	29916.712779320449	0
2	47870	29917.622124496632	1
2	47871	29918.311698847727	0
2	47945	29982.830924575016	1
2	47946	29983.079051052164	0
2	47952	29983.213624328742	1
2	47953	29983.482288074298	0
3	0	0	0
3	5	2.198814900883	1
3	6	2.302869979529	0
3	10	3.049216136683	1
3	11	3.175061256768	0
3	15	3.618181780552	1
3	17	3.816439235699	2
3	18	3.957573796207	1
3	21	4.735428364113	0
3	25	5.161260970016	1
3	31	6.268541790689	0
3	35	6.30788494934	1
3	36	6.797849723142	0
3	42	7.332721119514	1
3	46	8.320351717997	0
3	60	10.762323982108	1
3	61	11.444404942078	0
3	85	16.640799927517	1
3	86	17.171005720252	0
3	320	206.280032622447	1
3	321	206.678341106895	0
3	350	230.637190503218	1
3	351	230.664471343428	0
3	375	253.787079235662	1
3	376	254.180363235771	0
3	380	254.526972077519	1
3	381	254.846259651109	0
3	415	282.381254942857	1
3	416	282.547352869262	0
3	440	301.879845465462	1
3	442	302.228782497481	2
3	443	302.372084327755	1
3	447	302.426568361885	2
3	448	302.895029515042	1
3	451	303.490340553052	0
3	455	303.735637107503	1
3	456	304.191305945455	0
3	470	311.149452320099	1
3	471	311.202242446602	0
3	485	314.068563379407	1
3	486	314.392664388561	0
3	495	314.961688651031	1
3	496	315.767864434927	0
3	530	357.20841745778	1
3	536	357.75738658524	0
3	570	375.709169958993	1
3	571	375.71101790243	0
3	585	380.539644484159	1
3	586	381.169749080858	0
3	640	446.948238437025	1
3	641	447.075520130869	0
3	770	557.16658601389	1
3	771	557.28339965303	0
3	900	642.80697905867	1
3	901	643.464577442656	0
3	970	680.665344211911	1
3	977	682.147996763402	2
3	978	682.276010625135	1
3	981	682.960269579176	0
3	1040	703.832641492887	1
3	1041	704.297413069987	0
3	1065	720.78685955077	1
3	1066	721.292592683059	0
3	1070	721.689228716535	1
3	1071	721.732188209562	0
3	1085	726.941315014942	1
3	1086	727.319622757455	0
3	1175	774.702467363642	1
3	1176	775.088081435954	0
3	1270	847.71697632278	1
3	1271	847.978270554972	0
3	1335	886.253572648601	1
3	1336	886.377087605687	0
3	1350	892.77423676232	1
3	1351	892.926482721497	0
3	1525	985.662250370205	1
3	1526	985.774932362677	0
3	1550	1002.625816466061	1
3	1551	1003.039710448606	0
3	1555	1003.378518626493	1
3	1556	1003.893350683309	0
3	1680	1081.915791602239	1
3	1681	1082.852506739423	0
3	1800	1165.092966605928	1
3	1801	1165.280425687519	0
3	1835	1188.394032773431	1
3	1836	1189.037070348211	0
3	1857	1197.50884691223	1
3	1861	1198.656159758386	0
3	1925	1268.926441306481	1
3	1926	1269.034548689115	0
3	1935	1270.092345385793	1
3	1937	1270.886741590582	2
3	1939	1270.899365359247	3
3	1940	1270.938628528834	2
3	1943	1271.888772754752	1
3	1946	1272.689864885489	0
3	1955	1273.867531234637	1
3	1956	1274.091730736606	0
3	1995	1297.782079014336	1
3	1996	1298.219674580059	0
3	2025	1317.383883363782	1
3	2027	1317.848231464763	2
3	2028	1317.871375478295	1
3	2031	1318.455951515495	0
3	2035	1319.084060100148	1
3	2036	1319.253125613186	0
3	2045	1320.112838252138	1
3	2046	1320.533462608925	0
3	2055	1322.853812894323	1
3	2056	1323.418283251041	0
3	2060	1323.461618666672	1
3	2061	1324.228991296116	0
3	2100	1352.462747329806	1
3	2101	1352.896465128374	0
3	2150	1378.843160743908	1
3	2156	1379.90803279068	0
3	2300	1500.017813557802	1
3	2301	1500.577416648207	0
3	2460	1606.14076420097	1
3	2461	1606.716435195183	0
3	2512	1625.494464367733	1
3	2519	1625.82076419598	2
3	2523	1627.293154851489	1
3	2526	1627.731035676833	0
3	2530	1627.951808228892	1
3	2531	1628.309202539131	0
3	2535	1628.915001819223	1
3	2536	1629.13387678913	0
3	2650	1696.627488641404	1
3	2651	1697.228750715264	0
3	2830	1806.125193867804	1
3	2831	1807.036526422767	0
3	2880	1837.101339622173	1
3	2881	1837.257838031885	0
3	2935	1852.861948994304	1
3	2936	1853.174920727394	0
3	2967	1869.582692506347	1
3	2971	1870.689825712626	0
3	2990	1878.982727831966	1
3	2991	1879.623214381672	0
3	3085	1949.292070492631	1
3	3086	1949.597052929624	0
3	3090	1949.988511491299	1
3	3096	1951.481122398962	0
3	3185	2018.162592240103	1
3	3186	2018.552675037262	0
3	3210	2038.294126109529	1
3	3211	2038.694716943956	0
3	3225	2052.613350128557	1
3	3226	2053.02374478857	0
3	3245	2056.575199833266	1
3	3246	2056.710076559842	0
3	3280	2068.856761342257	1
3	3281	2069.067954133957	0
3	3305	2084.921931695786	1
3	3306	2085.281930095671	0
3	3375	2146.816719512972	1
3	3376	2147.08424907787	0
3	3390	2149.9854861826	1
3	3391	2150.184871480543	0
3	3445	2166.641006163411	1
3	3446	2167.199652785798	0
3	3510	2227.958940447807	1
3	3511	2228.091114563023	0
3	3530	2232.612088515566	1
3	3531	2233.023155743418	0
3	3565	2267.333833201642	1
3	3566	2267.344719380519	0
3	3625	2305.742959393432	1
3	3626	2306.403076383156	0
3	3635	2323.772933232713	1
3	3636	2323.88173894945	0
3	3680	2349.809855865294	1
3	3681	2350.403690709205	0
3	3745	2394.012639883605	1
3	3746	2394.072783794365	0
3	3835	2457.848804819268	1
3	3836	2457.966873476505	0
3	3840	2458.380096534142	1
3	3846	2459.549464065339	0
3	3860	2466.710246066542	1
3	3861	2466.891895207266	0
3	3875	2469.241778541725	1
3	3876	2469.563993413704	0
3	3957	2499.51751300871	1
3	3961	2500.449950122925	0
3	3990	2514.307906959881	1
3	3991	2514.426049742737	0
3	4080	2565.530845416444	1
3	4081	2565.8066999832	0
3	4110	2570.628076794944	1
3	4111	2570.939334186149	0
3	4120	2589.750971532579	1
3	4121	2590.225101013053	0
3	4240	2683.350485067277	1
3	4241	2683.356060606673	0
3	4262	2690.119222378567	1
3	4266	2691.210755916029	0
3	4350	2750.827496492726	1
3	4351	2751.48007694271	0
3	4370	2760.105952472037	1
3	4371	2760.658523668035	0
3	4375	2760.941491825443	1
3	4377	2761.085395880189	2
3	4378	2761.12151731985	1
3	4381	2761.799170099258	0
3	4402	2776.08022645635	1
3	4407	2776.31623363288	2
3	4408	2776.798690327028	1
3	4412	2776.946805104808	2
3	4413	2777.351108767748	1
3	4416	2778.105786359733	0
3	4440	2788.83313028054	1
3	4442	2789.263045272037	2
3	4443	2789.266986580081	1
3	4447	2789.577842560917	2
3	4448	2789.709268906088	1
3	4451	2790.315884391851	0
3	4460	2791.052416856683	1
3	4461	2791.394115035867	0
3	4585	2858.940398735033	1
3	4586	2858.999163702014	0
3	4625	2883.239610601269	1
3	4626	2883.305379450124	0
3	4675	2902.569775184512	1
3	4676	2902.682247678353	0
3	4700	2915.8193602356	1
3	4701	2916.20952794641	0
3	4715	2935.914983903842	1
3	4716	2936.088486238689	0
3	4775	2970.927704281236	1
3	4776	2971.055206699137	0
3	4895	3067.215367504597	1
3	4896	3067.248997261786	0
3	4935	3106.565422836686	1
3	4936	3107.310517389673	0
3	4980	3144.251916861129	1
3	4981	3144.400853054513	0
3	5010	3162.201483641559	1
3	5011	3162.211826070281	0
3	5045	3207.973562080618	1
3	5046	3208.632005146824	0
3	5055	3209.202344603167	1
3	5056	3209.708804204807	0
3	5115	3227.18045353567	1
3	5116	3227.511637491957	0
3	5195	3270.099855025695	1
3	5196	3270.379335380224	0
3	5205	3272.683748467375	1
3	5206	3272.949956600984	0
3	5255	3312.954704134985	1
3	5256	3313.271775483029	0
3	5262	3313.716476467362	1
3	5266	3314.930493266988	0
3	5370	3381.847787331245	1
3	5376	3383.381787147095	0
3	5455	3438.695631918016	1
3	5457	3438.870576978596	2
3	5458	3439.24096104668	1
3	5462	3439.851681228614	2
3	5463	3439.869805978076	1
3	5467	3440.620015724406	2
3	5468	3440.661830086797	1
3	5474	3441.000671232795	2
3	5478	3441.832330508088	1
3	5481	3442.579915642902	0
3	5497	3447.225403485662	1
3	5501	3448.393170923667	0
3	5515	3454.159528692879	1
3	5516	3454.510361959368	0
3	5620	3517.152747933646	1
3	5621	3517.264592610564	0
3	5625	3518.009123821958	1
3	5626	3518.088128647007	0
3	5650	3534.803523357462	1
3	5651	3535.686450082675	0
3	5820	3664.191148781308	1
3	5821	3664.475121505565	0
3	5830	3671.643110854513	1
3	5831	3671.86232877399	0
3	5875	3695.194322873036	1
3	5876	3696.079015987399	0
3	5945	3747.912946991655	1
3	5951	3749.197638098099	0
3	6005	3773.928119369941	1
3	6006	3774.235118186718	0
3	6010	3774.328041029485	1
3	6012	3774.790540799108	2
3	6013	3775.124612448935	1
3	6016	3775.943591984606	0
3	6060	3787.303523851062	1
3	6061	3787.769370932501	0
3	6090	3814.865018069167	1
3	6091	3815.408505385308	0
3	6125	3825.561930823423	1
3	6126	3825.83777751632	0
3	6195	3865.067117728468	1
3	6196	3865.128472847207	0
3	6220	3880.810241769589	1
3	6221	3881.459872456366	0
3	6375	4025.641381202854	1
3	6376	4025.849056861642	0
3	6455	4093.214246788392	1
3	6456	4094.00037719523	0
3	6525	4116.092441616449	1
3	6526	4116.829683229056	0
3	6540	4134.792372034772	1
3	6541	4134.875698347574	0
3	6607	4162.411696289504	1
3	6611	4163.372792771584	0
3	6630	4166.209521017515	1
3	6631	4166.791209816399	0
3	6640	4172.572321059738	1
3	6641	4173.116203195926	0
3	6680	4207.325155087707	1
3	6681	4207.499106991217	0
3	6730	4224.350679027482	1
3	6731	4224.627470152338	0
3	6735	4224.868459883288	1
3	6736	4225.060677743402	0
3	6745	4226.193763707214	1
3	6747	4226.345839999467	2
3	6748	4226.621921467774	1
3	6756	4228.115676042058	0
3	6760	4228.320325106598	1
3	6761	4228.860580823889	0
3	6765	4229.324921535429	1
3	6766	4229.711803394316	0
3	6775	4232.627976809088	1
3	6776	4232.818234888779	0
3	6785	4246.689262608038	1
3	6786	4247.234058204993	0
3	6795	4249.559710533988	1
3	6796	4249.768212685094	0
3	6805	4252.025968265548	1
3	6806	4252.561261627955	0
3	6835	4264.874145257899	1
3	6841	4266.416844034916	0
3	6850	4269.040481966404	1
3	6851	4269.439819155611	0
3	6940	4315.252037681011	1
3	6941	4315.349446789211	0
3	6970	4324.628766055317	1
3	6971	4324.942028945173	0
3	7005	4351.873072718919	1
3	7006	4352.401602177069	0
3	7010	4352.765547637072	1
3	7011	4353.313908768192	0
3	7045	4373.440219413225	1
3	7046	4374.108596715635	0
3	7115	4428.675787307373	1
3	7116	4428.750986843899	0
3	7120	4429.354066673577	1
3	7121	4429.584300160704	0
3	7150	4452.394513670209	1
3	7151	4452.720846940455	0
3	7185	4472.477980564268	1
3	7186	4472.611193783561	0
3	7195	4474.135881207391	1
3	7196	4474.649965037135	0
3	7200	4474.840206896222	1
3	7201	4475.591867504604	0
3	7220	4490.161905036183	1
3	7222	4490.169262622589	2
3	7223	4490.388438868915	1
3	7227	4490.689638912898	2
3	7228	4491.161647435484	1
3	7231	4491.845246524617	0
3	7240	4493.915578379733	1
3	7241	4494.275994045437	0
3	7270	4508.142558272242	1
3	7271	4508.733998310611	0
3	7287	4513.850384099208	1
3	7291	4515.018685348744	0
3	7300	4515.864781217543	1
3	7301	4516.362194573965	0
3	7315	4523.904380923498	1
3	7316	4524.267650872911	0
3	7325	4525.228415793983	1
3	7326	4525.79753466422	0
3	7330	4525.814361530918	1
3	7331	4526.215580941143	0
3	7335	4526.652907801926	1
3	7336	4526.653195304668	0
3	7372	4540.35836194684	1
3	7376	4541.310113360633	0
3	7395	4546.140291352927	1
3	7396	4546.89517498226	0
3	7405	4549.444399276041	1
3	7406	4550.113360017473	0
3	7410	4550.212988776825	1
3	7411	4550.764352590898	0
3	7432	4566.433100941452	1
3	7436	4567.21261315066	0
3	7455	4581.467318119407	1
3	7456	4582.108727668972	0
3	7530	4667.204287386383	1
3	7531	4667.890910728435	0
3	7535	4667.915732705112	1
3	7537	4668.002380444837	2
3	7543	4669.24092546275	1
3	7551	4671.026604113701	0
3	7555	4671.706705590085	1
3	7556	4671.874366749889	0
3	7590	4696.578077857293	1
3	7596	4697.835573430631	0
3	7627	4733.402188802056	1
3	7636	4735.614894167503	0
3	7655	4743.471631605031	1
3	7656	4743.910243688937	0
3	7695	4797.775701178244	1
3	7696	4798.348005070523	0
3	7740	4834.503782618426	1
3	7741	4834.854516604983	0
3	7810	4892.068879451751	1
3	7811	4892.476419924333	0
3	7825	4914.732285805213	1
3	7826	4914.8666963688	0
3	7905	4968.343691543138	1
3	7906	4968.417641606913	0
3	8035	5016.610111846469	1
3	8036	5016.74312144438	0
3	8065	5037.117822851844	1
3	8066	5037.827016983125	0
3	8075	5046.193945893247	1
3	8077	5046.994573656391	2
3	8078	5047.031763411187	1
3	8082	5047.416006950526	2
3	8083	5047.591863689864	1
3	8086	5048.085077967647	0
3	8280	5203.372949014762	1
3	8281	5203.703661346751	0
3	8285	5203.761131640085	1
3	8291	5205.338793658827	0
3	8300	5205.903818721949	1
3	8301	5206.389562407269	0
3	8322	5220.971959191951	1
3	8326	5221.869387628471	0
3	8355	5234.855252965098	1
3	8356	5234.855367095552	0
3	8360	5235.094433191601	1
3	8361	5235.761851470189	0
3	8370	5238.70832069201	1
3	8371	5238.758631024754	0
3	8400	5259.549519087334	1
3	8401	5259.958259961887	0
3	8415	5264.693415908331	1
3	8421	5265.942959930926	0
3	8450	5290.510181099618	1
3	8454	5290.725610013608	2
3	8459	5291.535881200831	3
3	8460	5291.827028199052	2
3	8469	5292.931527491356	3
3	8470	5293.255429269745	2
3	8473	5293.878104197978	1
3	8477	5293.890905802172	2
3	8478	5294.670007337396	1
3	8481	5295.666454231738	0
3	8510	5306.841250629614	1
3	8511	5307.19188917576	0
3	8530	5310.045883828975	1
3	8531	5310.380741139209	0
3	8575	5326.072531625694	1
3	8576	5326.499040465227	0
3	8590	5333.122019593591	1
3	8591	5333.452633200444	0
3	8595	5333.814413164357	1
3	8596	5334.304868696069	0
3	8625	5347.451364623428	1
3	8626	5347.821517806835	0
3	8645	5364.672121171374	1
3	8646	5365.199694467257	0
3	8735	5410.543644391353	1
3	8736	5411.38347786477	0
3	8770	5435.56254395984	1
3	8771	5435.6490734147	0
3	8780	5436.942068781031	1
3	8781	5437.179699980934	0
3	8785	5437.913949506529	1
3	8786	5438.152260151227	0
3	8790	5438.881115173346	1
3	8791	5439.142719709083	0
3	8795	5439.855179869004	1
3	8796	5440.091059552507	0
3	8815	5451.420168332685	1
3	8816	5451.89111635	0
3	8835	5455.432242802659	1
3	8836	5455.451350540228	0
3	8915	5503.206570146616	1
3	8916	5503.631583755762	0
3	8925	5504.477742934632	1
3	8926	5505.382187385487	0
3	8955	5521.031181934007	1
3	8956	5521.289468146008	0
3	8965	5522.250780141368	1
3	8966	5522.96595544022	0
3	9065	5604.720071816567	1
3	9067	5604.881082524196	2
3	9068	5605.337006964624	1
3	9071	5605.750972625563	0
3	9195	5705.494607403159	1
3	9196	5705.724354573373	0
3	9205	5706.538821019243	1
3	9207	5706.636003322931	2
3	9208	5707.031163318303	1
3	9212	5707.245785113485	2
3	9213	5708.016828018508	1
3	9216	5708.880545813718	0
3	9220	5709.136908093612	1
3	9221	5709.42802895311	0
3	9285	5761.043486195003	1
3	9286	5761.711322178413	0
3	9300	5768.501981971146	1
3	9301	5769.216357734666	0
3	9350	5798.267356702606	1
3	9351	5799.068845370413	0
3	9360	5802.581175012313	1
3	9362	5803.031102998483	2
3	9363	5803.057240177143	1
3	9366	5803.726201909372	0
3	9395	5828.658450112853	1
3	9396	5828.887319444187	0
3	9415	5844.814233948578	1
3	9416	5845.435026279678	0
3	9460	5896.231995574739	1
3	9461	5896.526487372615	0
3	9480	5899.274762111117	1
3	9481	5899.753164355218	0
3	9502	5907.267416153572	1
3	9506	5908.125571724527	0
3	9527	5916.437157183641	1
3	9531	5917.420829249904	0
3	9550	5925.584562367769	1
3	9551	5925.685894900774	0
3	9595	5953.185317499779	1
3	9596	5953.656120955628	0
3	9650	5967.508936357882	1
3	9651	5967.557986586708	0
3	9655	5967.956853477365	1
3	9656	5968.449547006217	0
3	9710	6027.802319891722	1
3	9716	6029.140494356336	0
3	9757	6097.041189127081	1
3	9761	6098.048913986071	0
3	9785	6104.371858355334	1
3	9786	6104.486246844043	0
3	9830	6126.47369415531	1
3	9831	6127.279286140242	0
3	9935	6216.265411119794	1
3	9936	6216.570766638405	0
3	9945	6217.326357966884	1
3	9946	6218.173690732266	0
3	9995	6250.115543034042	1
3	9996	6250.413258001939	0
3	10010	6254.664552871065	1
3	10011	6255.342650671536	0
3	10015	6255.643967284563	1
3	10016	6256.204932983266	0
3	10090	6326.258401352778	1
3	10091	6326.824416461837	0
3	10100	6328.001097262244	1
3	10101	6328.671178800848	0
3	10105	6328.875721819159	1
3	10106	6329.616042833312	0
3	10120	6334.296129424844	1
3	10121	6334.761357298832	0
3	10125	6334.777929407054	1
3	10126	6335.186032905256	0
3	10205	6381.54899425486	1
3	10206	6382.137274946689	0
3	10225	6398.340448743183	1
3	10226	6399.158891552979	0
3	10245	6405.438178707337	1
3	10246	6405.79016732946	0
3	10250	6406.031701712737	1
3	10251	6406.375090658106	0
3	10260	6416.61524660205	1
3	10261	6417.115570069781	0
3	10302	6450.992464797089	1
3	10306	6452.310536295752	0
3	10310	6452.882928318027	1
3	10311	6453.244679450634	0
3	10315	6453.656266814616	1
3	10316	6454.122249546572	0
3	10435	6511.096491642281	1
3	10441	6512.476311102336	0
3	10445	6512.764339979412	1
3	10446	6513.293556833653	0
3	10465	6520.156797968663	1
3	10466	6520.590604985392	0
3	10540	6579.566548874668	1
3	10541	6579.782655827313	0
3	10565	6591.786466937242	1
3	10566	6592.683672501497	0
3	10580	6609.880220606816	1
3	10581	6610.185144073543	0
3	10590	6613.322824764851	1
3	10596	6614.969694732	0
3	10605	6616.249086575099	1
3	10606	6616.803124239835	0
3	10610	6616.841907352019	1
3	10611	6617.656696128919	0
3	10640	6628.390126116025	1
3	10641	6628.875799009112	0
3	10690	6657.242476304179	1
3	10691	6657.804577672382	0
3	10725	6669.923555512021	1
3	10726	6670.667197984915	0
3	10745	6678.727329267169	1
3	10746	6679.521308200169	0
3	10750	6680.038641352146	1
3	10751	6680.282373310733	0
3	10797	6715.350908894135	1
3	10801	6716.006768596145	0
3	11045	6947.714692548873	1
3	11046	6948.08316917991	0
3	11070	6966.206994431474	1
3	11071	6966.78079271509	0
3	11075	6967.055440933576	1
3	11076	6967.3594119311	0
3	11080	6967.90071888742	1
3	11081	6968.023395585098	0
3	11165	7046.445327633902	1
3	11166	7047.146709604682	0
3	11180	7049.573823416856	1
3	11181	7049.82160902785	0
3	11350	7196.955593444584	1
3	11351	7197.710907350712	0
3	11450	7252.72441567816	1
3	11451	7253.195033413149	0
3	11490	7269.295980429703	1
3	11491	7269.540579403635	0
3	11535	7311.296847015556	1
3	11536	7311.366422211026	0
3	11575	7375.712208665965	1
3	11576	7375.714016997769	0
3	11627	7414.089014193662	1
3	11631	7415.493063262628	0
3	11685	7477.302894717473	1
3	11686	7477.943534303673	0
3	11810	7556.079409187932	1
3	11816	7557.48335875957	0
3	11845	7573.609182641054	1
3	11846	7574.003251287549	0
3	11920	7617.149744600043	1
3	11921	7617.649827288252	0
3	12010	7700.407512565091	1
3	12011	7700.720609766463	0
3	12230	7888.892640253618	1
3	12231	7889.33137039305	0
3	12255	7910.348724468068	1
3	12256	7910.556689762325	0
3	12305	7946.856968560748	1
3	12306	7947.103208520077	0
3	12315	7951.470422241251	1
3	12317	7951.711234643321	2
3	12318	7951.951485566352	1
3	12321	7952.362751008779	0
3	12360	7975.357832655897	1
3	12362	7975.439052866444	2
3	12363	7976.038858295454	1
3	12372	7977.018391203495	2
3	12373	7977.400886658475	1
3	12376	7977.982364494901	0
3	12415	8004.615763813767	1
3	12416	8004.903067593224	0
3	12420	8005.168825061989	1
3	12422	8005.269946090017	2
3	12423	8005.772632992448	1
3	12427	8006.312473552736	2
3	12428	8006.389476821892	1
3	12431	8007.322852095258	0
3	12450	8034.624138702591	1
3	12452	8034.649936310342	2
3	12453	8035.368261760116	1
3	12456	8036.112520262149	0
3	12460	8036.267088485694	1
3	12461	8036.746256221521	0
3	12470	8038.740599871786	1
3	12471	8039.527805533511	0
3	12535	8115.570604099379	1
3	12536	8116.183700228391	0
3	12645	8215.910924773836	1
3	12647	8216.031360285716	2
3	12648	8216.427682293638	1
3	12651	8216.92969972432	0
3	12670	8229.368129097297	1
3	12671	8230.038417404473	0
3	12675	8230.350887220606	1
3	12676	8230.967078836031	0
3	12725	8267.573692161127	1
3	12731	8268.97585511973	0
3	12770	8301.643914350456	1
3	12771	8302.137703903001	0
3	12790	8307.096194966585	1
3	12791	8307.225582942797	0
3	12900	8418.905960725898	1
3	12901	8419.08235772651	0
3	12905	8419.823845532137	1
3	12906	8419.929924042461	0
3	12980	8482.363329907973	1
3	12981	8482.684589905978	0
3	13020	8503.564598734734	1
3	13021	8504.169516187844	0
3	13025	8504.291601455599	1
3	13026	8504.712765359583	0
3	13065	8524.669130309443	1
3	13071	8526.329454589452	0
3	13110	8547.751530853936	1
3	13111	8548.003006037023	0
3	13155	8585.272554886571	1
3	13156	8585.393651175025	0
3	13160	8585.661346996135	1
3	13161	8586.365851712079	0
3	13200	8611.892321486607	1
3	13201	8612.244508669161	0
3	13205	8612.454653152098	1
3	13207	8612.634298367513	2
3	13208	8612.946453791492	1
3	13212	8613.006709055618	2
3	13213	8613.523633517053	1
3	13216	8614.462432952279	0
3	13240	8623.515942677838	1
3	13241	8623.921880559486	0
3	13265	8636.258114081517	1
3	13266	8636.863746617949	0
3	13275	8638.307108227521	1
3	13276	8638.709474123776	0
3	13290	8641.591589093323	1
3	13291	8641.611298530435	0
3	13305	8645.682056442794	1
3	13306	8646.249100583304	0
3	13310	8646.644537871804	1
3	13312	8646.719755274161	2
3	13313	8646.978700848833	1
3	13316	8647.738158604853	0
3	13325	8650.547080068472	1
3	13326	8650.90147199838	0
3	13330	8650.926401731546	1
3	13337	8652.062326411724	2
3	13338	8652.249798350433	1
3	13341	8653.153673452582	0
3	13415	8703.724121864552	1
3	13416	8704.346612102914	0
3	13420	8704.805806545423	1
3	13422	8704.872339330777	2
3	13423	8705.0688091666	1
3	13426	8705.79953335007	0
3	13435	8706.513760115759	1
3	13437	8706.598574799368	2
3	13438	8706.78181428402	1
3	13442	8706.891906672101	2
3	13443	8707.358307999841	1
3	13452	8708.927183809113	2
3	13453	8709.026856060143	1
3	13456	8709.829759042946	0
3	13557	8770.817753239586	1
3	13562	8770.991173280596	2
3	13564	8771.432658425584	3
3	13566	8771.549169841653	4
3	13567	8771.818447196345	3
3	13576	8772.66131620216	4
3	13577	8773.2773746348	3
3	13585	8774.95694701085	2
3	13588	8775.91934122746	1
3	13591	8776.640145208362	0
3	13625	8804.956879253885	1
3	13627	8805.211940513953	2
3	13628	8805.383919828463	1
3	13631	8806.092016860362	0
3	13670	8847.954254632825	1
3	13671	8848.422455225824	0
3	13717	8864.595253590868	1
3	13722	8865.157461692394	2
3	13723	8865.969777512533	1
3	13726	8866.416294463334	0
3	13737	8867.945549081935	1
3	13741	8868.861601294327	0
3	13825	8910.545928976954	1
3	13826	8911.125657557682	0
3	13860	8940.462614631098	1
3	13861	8940.894297651407	0
3	13935	8963.86257822133	1
3	13936	8964.399984038633	0
3	13985	8995.798047720448	1
3	13986	8996.495928619355	0
3	14030	9020.947840414693	1
3	14031	9021.779361992168	0
3	14125	9075.870800745125	1
3	14126	9076.628176142098	0
3	14230	9141.277886857388	1
3	14231	9141.955430222515	0
3	14245	9146.054386320781	1
3	14246	9146.329058763311	0
3	14280	9171.685524271177	1
3	14281	9171.930462961212	0
3	14300	9176.195729010448	1
3	14302	9176.261951712399	2
3	14303	9176.660386312574	1
3	14306	9177.453918171029	0
3	14355	9206.949094851409	1
3	14356	9207.110656832755	0
3	14385	9221.261365663023	1
3	14386	9221.65775522099	0
3	14465	9274.105877871228	1
3	14466	9274.126729966148	0
3	14490	9293.847896035701	1
3	14491	9294.193785573887	0
3	14495	9294.763722688096	1
3	14496	9294.994066008386	0
3	14590	9375.448569139572	1
3	14591	9375.502475842054	0
3	14597	9376.140654417166	1
3	14601	9376.681104684354	0
3	14635	9394.944077797877	1
3	14636	9395.717949784302	0
3	14695	9414.877357362541	1
3	14696	9415.319501922576	0
3	14700	9415.544182754568	1
3	14701	9415.75275288957	0
3	14705	9416.275993560963	1
3	14706	9416.303852513403	0
3	14800	9479.585362440133	1
3	14801	9480.329445447413	0
3	14947	9547.23996796837	1
3	14951	9548.251935495274	0
3	15015	9562.024132115742	1
3	15016	9562.891296799765	0
3	15020	9562.985081357409	1
3	15021	9563.433002125244	0
3	15050	9598.752502060879	1
3	15051	9599.162186702708	0
3	15090	9615.66594593945	1
3	15091	9615.839972028445	0
3	15135	9645.668614730095	1
3	15136	9645.834652285802	0
3	15255	9721.585035253328	1
3	15256	9721.806746357072	0
3	15290	9743.391315716295	1
3	15291	9743.838413902444	0
3	15425	9827.483151090898	1
3	15426	9827.727619653154	0
3	15470	9854.659275869423	1
3	15471	9854.866828616912	0
3	15475	9855.109888826243	1
3	15476	9855.45912945561	0
3	15505	9882.744922501995	1
3	15506	9883.380183297384	0
3	15535	9895.038003101292	1
3	15536	9895.579117057779	0
3	15575	9915.07610358463	1
3	15576	9915.706351918315	0
3	15659	9960.061082549388	1
3	15677	9962.10445374531	2
3	15678	9962.834484215077	1
3	15681	9963.324636219438	0
3	15695	9965.262991912389	1
3	15696	9965.480154833134	0
3	15770	10012.076909856046	1
3	15771	10012.254656606526	0
3	15785	10019.453132146965	1
3	15787	10019.569906389289	2
3	15788	10019.612915719163	1
3	15792	10020.211604341894	2
3	15793	10020.460123314804	1
3	15811	10022.971690186535	0
3	15820	10026.502428123389	1
3	15821	10027.051762631617	0
3	15945	10090.868350192624	1
3	15946	10091.297366544247	0
3	15960	10094.850666144363	1
3	15961	10094.864526919089	0
3	15965	10095.263377874331	1
3	15967	10095.296917343711	2
3	15968	10095.755565125076	1
3	15976	10097.203272343287	0
3	15990	10099.77485758546	1
3	15991	10100.710603396524	0
3	16000	10112.54360641661	1
3	16007	10113.213721884628	2
3	16008	10113.741040637923	1
3	16011	10114.32962792569	0
3	16067	10142.170087094729	1
3	16076	10144.065957460676	0
3	16080	10144.361998255034	1
3	16087	10145.217799941889	2
3	16088	10145.586192217081	1
3	16091	10146.233608581389	0
3	16117	10153.302275827959	1
3	16121	10154.375696588906	0
3	16155	10184.93994657121	1
3	16156	10185.468980904564	0
3	16160	10186.223323002587	1
3	16161	10186.275285655668	0
3	16185	10205.700764026134	1
3	16186	10205.958311735003	0
3	16190	10206.179473492215	1
3	16192	10206.706103481531	2
3	16193	10206.833544487509	1
3	16196	10207.384706731283	0
3	16215	10220.505730032314	1
3	16216	10220.923574807403	0
[...]
6	40914	25737.262572266572	0.697744806204
6	40925	25739.20276355072	0.598456535562
6	40940	25742.233130727559	1.098131599232
6	40980	25766.736437016678	1.588795231183
6	40987	25771.60084792647	0.829929838935
6	40995	25773.090707550631	1.284299557575
6	41025	25783.755072769348	0.988556328416
6	41045	25795.813375387484	2.283950422616
6	41050	25798.853467858322	0.821422926662
6	41060	25804.292912129188	1.64442926252
6	41080	25810.482634736216	1.822795573622
6	41107	25822.731879829616	0.994290623209
6	41137	25829.842671864114	2.042086989513
6	41140	25830.338229158481	1.44876990924
6	41180	25846.509553129729	2.069900842798
6	41187	25849.837624443608	0.525358298514
6	41197	25854.619011068391	0.767268044408
6	41200	25855.252539731702	0.875760489139
6	41212	25862.350219866826	1.931657502633
6	41225	25868.007570648392	0.640133860474
6	41235	25876.769784530953	0.556438198918
6	41245	25888.829004307811	1.059179979783
6	41270	25894.64741011809	3.426364402374
6	41280	25901.752275789586	0.944014798794
6	41291	25902.673934570862	0.896865089796
6	41302	25904.655044721835	2.237651621906
6	41315	25907.420153394669	0.91529573317
6	41335	25915.906229403718	0.956341246329
6	41350	25922.965422783882	0.979241442867
6	41372	25940.51176094052	1.059319139475
6	41375	25941.095102327015	1.560699325983
6	41380	25942.153979229527	0.844644996803
6	41392	25944.829302951467	0.650986581484
6	41395	25945.807967984124	2.015549153276
6	41410	25951.883916000175	1.358576071932
6	41435	25968.473479431191	0.647532299021
6	41440	25971.793874666494	0.56012684484
6	41445	25983.210747239752	0.88203295758
6	41455	25989.722190406762	1.184888614247
6	41482	26006.782654189852	2.350396211326
6	41490	26007.865608294119	1.776729887336
6	41510	26014.907079562074	0.539809018735
6	41535	26037.254513794302	0.706613083137
6	41540	26053.101296374591	0.509622117132
6	41552	26068.363826466249	0.911723850062
6	41587	26081.339371309167	0.929570019245
6	41600	26089.532956229399	0.444039443228
6	41620	26101.052584720536	0.563765715048
6	41635	26121.588312281795	0.658851964818
6	41640	26122.50422844688	0.709069021
6	41660	26144.711472083157	0.587675818382
6	41670	26148.32397507022	0.510958044278
6	41730	26182.176586900282	2.417278743345
6	41740	26187.897926239789	0.796894707065
6	41785	26208.911068573766	0.70439460976
6	41795	26215.979426408125	0.95941809658
6	41800	26218.565687520402	0.974461579043
6	41820	26223.780424928655	0.816067272751
6	41825	26227.065735601109	0.662136112107
6	41830	26231.178247253738	0.673791175289
6	41837	26233.076785213204	0.651385336975
6	41850	26239.309614824075	2.35120466358
6	41855	26241.328196304368	0.810081666429
6	41860	26248.603904246046	0.788256500661
6	41865	26250.257295326838	0.792298775865
6	41895	26268.427021211062	0.770814968692
6	41930	26279.592256184063	0.572531834664
6	41950	26289.198287806578	0.553892477602
6	41970	26296.748587408047	3.184438941221
6	41975	26299.940337175075	0.793472290225
6	41992	26320.700607715421	0.708063097065
6	42004	26322.529781132019	1.600686183324
6	42012	26323.910744671538	0.843278807393
6	42020	26325.682192246975	0.959163773712
6	42040	26351.47223477734	0.702927586576
6	42080	26372.617021826366	0.609537000768
6	42105	26381.832206702189	0.896819102205
6	42120	26384.086478764171	0.767437601928
6	42125	26386.370320727736	0.434545260109
6	42160	26404.974480409685	0.499873729469
6	42185	26432.815419467943	0.722492621606
6	42202	26436.93173927041	1.399424132442
6	42207	26437.428754164746	3.066929792789
6	42239	26443.732566270595	0.820269412637
6	42244	26444.310741227017	1.599085438996
6	42249	26444.747098220689	1.249317698161
6	42252	26445.452691447772	1.270779463412
6	42260	26447.698155921716	0.845956900297
6	42275	26454.894785724254	0.833908936242
6	42292	26467.057092133971	1.474287870163
6	42295	26467.972919024402	1.53442412674
6	42300	26469.053336348732	0.506855871296
6	42305	26473.95254486837	0.58918627589
6	42312	26485.562213343011	0.611972363433
6	42320	26488.111441268278	0.955625530146
6	42327	26500.669705896152	0.65921488977
6	42342	26509.471714049293	1.189657836977
6	42367	26513.721975617393	0.869893741142
6	42375	26518.676029643752	0.603148507932
6	42380	26519.831062790774	0.839715001779
6	42400	26525.608111399802	0.408213524288
6	42407	26531.314288026218	0.613748714048
6	42410	26532.243483608945	1.114429319552
6	42445	26547.803682944393	0.445431281021
6	42470	26564.287798111987	1.818521229804
6	42480	26576.538367598066	0.586678340193
6	42490	26578.517272743301	1.922213972319
6	42500	26587.052471171631	1.680875658091
6	42505	26603.638448742906	0.800264267204
6	42522	26608.956637208596	0.63930925345
6	42535	26614.219586905814	0.733520529699
6	42540	26616.522176207703	0.809103661077
6	42545	26617.53641908863	0.935867590224
6	42560	26628.661674083422	0.930817012582
6	42565	26634.50501674052	0.567726327525
6	42582	26644.604547703041	0.89174840143
6	42590	26646.059710109096	1.900394787762
6	42597	26652.278432610173	0.779173862701
6	42630	26685.014670929376	1.669264492035
6	42640	26692.090748232454	1.309887946973
6	42650	26712.872745102764	0.457048762683
6	42667	26722.040899367434	1.392546093446
6	42675	26734.74618629799	0.594146979274
6	42710	26767.626403238378	0.561637566378
6	42720	26774.178524325551	1.16286421786
6	42730	26782.207098287326	0.884890615335
6	42737	26793.799281212279	0.558681106241
6	42749	26795.848755044398	0.856872035051
6	42752	26796.474750657194	3.022357928711
6	42765	26801.141859087022	1.252784700153
6	42775	26810.936828356404	1.671128010638
6	42782	26815.169384563273	0.62186764339
6	42790	26817.114321017178	2.191841383563
6	42800	26818.648296183451	1.231433138174
6	42810	26859.186146931705	1.57046162388
6	42820	26864.606310657511	1.473721374578
6	42825	26865.678131051959	0.984151115548
6	42830	26867.325799457761	0.602201426635
6	42847	26877.163418445875	0.582826002687
6	42867	26889.107371902939	1.541563638777
6	42870	26889.969509988658	1.358004457676
6	42875	26891.354342233211	0.867592042033
6	42880	26892.674108517004	0.555224862834
6	42890	26899.103796327788	0.9293100726
6	42895	26903.12386881303	0.929144040728
6	42960	26945.831503017108	0.443676403584
6	42965	26946.985775048706	0.851729972288
6	43027	26983.526614198079	0.850518862158
6	43032	26984.250571580873	1.466939293022
6	43055	27008.733194097962	0.79088277081
6	43060	27009.675354812035	0.696861262526
6	43070	27028.898867476824	3.096192734218
6	43085	27035.2804354663	0.722802631324
6	43105	27047.561274184629	0.867609389219
6	43125	27056.248587166736	1.12905238222
6	43155	27073.844071197458	0.768909637351
6	43172	27089.881877612819	0.649522934313
6	43180	27091.620487939393	0.836280516954
6	43185	27093.62139773944	0.992449429492
6	43190	27096.684865900927	0.951774299471
6	43215	27106.985666688545	1.467058241736
6	43262	27116.563130038001	8.576661163928
6	43275	27121.358422241049	0.987916918192
6	43312	27136.767276542016	0.579732011305
6	43352	27155.419082661743	0.71105445358
6	43355	27155.843840572309	1.005287435948
6	43360	27161.097111656738	0.862367619108
6	43390	27195.569045166731	0.59539852594
6	43395	27203.78117390001	0.81835376583
6	43422	27209.958263373383	4.214653411729
6	43430	27219.035159800514	0.811883847835
6	43455	27228.818567399108	4.261879594668
6	43465	27243.757842993932	0.912324855989
6	43470	27244.820720450685	0.71927413228
6	43515	27262.340233496812	0.682954887487
6	43520	27263.664264019736	0.722988613881
6	43545	27281.24200072836	1.923952368368
6	43562	27286.879227554947	0.443021060992
6	43567	27287.529335416257	1.065938656941
6	43577	27288.940278580514	1.369704832978
6	43580	27289.781118625923	4.62898287664
6	43590	27300.838543167737	0.78501875503
6	43602	27306.47827238147	1.885853068824
6	43625	27312.510656384538	0.587310923683
6	43630	27317.916426508232	0.612062422093
6	43650	27344.569543869503	1.150206282925
6	43667	27347.557319347049	2.140859958353
6	43690	27351.690033134997	6.297909850533
6	43729	27370.866804486448	0.921989944717
6	43732	27371.586337007238	1.473688933101
6	43742	27385.637098485401	0.67166456799
6	43745	27386.523108630611	1.192870195353
6	43750	27388.746709631868	0.410967046116
6	43762	27397.406063296386	0.555503328098
6	43765	27397.908396382836	0.775989868391
6	43800	27409.917413509792	0.610481447773
6	43815	27428.216711114522	0.477731375583
6	43825	27433.416595371344	0.704308528733
6	43835	27438.180828078871	2.220002292133
6	43840	27443.308566793797	0.994620956387
6	43845	27443.941136203551	0.593292255513
6	43865	27466.50007203404	0.658948311303
6	43902	27482.882152142384	0.646420749137
6	43920	27491.766228951272	0.931750336103
6	43935	27517.706854073681	0.88046177025
6	43955	27530.559027937719	0.447998501221
6	43965	27536.665512957196	0.999199556885
6	43970	27546.452859693476	0.501171514206
6	43985	27553.486430100756	0.641225272417
6	43997	27565.887062212226	0.942844270961
6	44039	27582.693787390036	4.420494671285
6	44042	27583.099200657797	2.274661811852
6	44045	27584.071653563757	1.651243431255
6	44062	27593.843154649862	1.670732707191
6	44085	27602.127329699402	1.028057603406
6	44095	27608.956732056478	1.127822804129
6	44112	27625.515210852632	1.487946860902
6	44120	27626.808155598771	2.961222749203
6	44125	27636.576258799496	0.707304404909
6	44140	27649.623834394378	1.945653215617
6	44155	27652.063564251601	0.831691388175
6	44160	27654.730549011866	0.888353304984
6	44170	27660.374800761338	0.428303961316
6	44190	27690.43401395125	0.727036881447
6	44195	27693.990578805578	0.754133320926
6	44215	27716.823860046358	0.601464538043
6	44220	27721.078244840161	0.736098822113
6	44225	27732.224016077477	0.962542381836
6	44230	27737.825660708312	0.669144882681
6	44235	27745.27201978468	0.60669511552
6	44252	27752.469278021616	0.880992811732
6	44269	27755.012197196712	1.339771234772
6	44272	27755.645712515475	1.230998891585
6	44280	27760.59644674977	0.698547111079
6	44310	27782.938231160498	1.256195673796
6	44330	27791.199868591009	2.804005138407
6	44345	27813.575196037371	1.748458973498
6	44370	27823.745467310291	0.807940297811
6	44390	27835.836504704518	3.56305033697
6	44402	27840.91380906918	2.168930256648
6	44410	27850.773228699433	0.97050029356
6	44425	27857.100081505563	0.847724892975
6	44437	27865.242888492605	2.893807414767
6	44485	27889.531072750552	2.057382486909
6	44510	27904.622117068958	0.47292580572
6	44515	27908.919424127303	0.468787304591
6	44525	27919.939817695266	0.744486730779
6	44530	27924.248068721623	0.717554066423
6	44550	27940.574565068582	1.774906465304
6	44575	27970.388018759301	1.100735623595
6	44604	27980.152299553357	1.236141133636
6	44617	27981.896018827395	1.920893723705
6	44665	27995.370722817241	0.918553789798
6	44670	27998.837632053559	0.769869036134
6	44730	28033.27082413402	1.573546672125
6	44740	28048.218823357932	0.813088125037
6	44755	28065.067555316569	0.694240140263
6	44760	28069.410131573499	0.914518660447
6	44775	28076.634106865301	0.703746319562
6	44780	28079.94015522007	0.949558668956
6	44790	28083.50421348822	0.989743673056
6	44805	28091.116979200786	0.835984300356
6	44820	28098.905746111426	1.603489630395
6	44830	28107.380281974223	0.962029035948
6	44849	28117.211456932419	2.125942881033
6	44852	28117.792063910759	0.880147286659
6	44855	28118.739345165354	1.811470013747
6	44860	28121.737688056069	0.436436463054
6	44870	28130.768337732308	0.952525985334
6	44912	28164.932998155731	0.485568830993
6	44930	28172.622623308271	0.485404419526
6	44940	28204.84098500194	0.859969355445
6	44947	28209.021791232735	0.816295156442
6	44965	28216.947238935063	0.922176196473
6	44977	28219.991216337837	0.86095382045
6	44985	28221.616147832866	2.407036199994
6	45002	28228.608283524684	2.268842128658
6	45010	28232.294102412926	0.893708364898
6	45020	28242.114893098064	1.286909838436
6	45030	28250.710692460252	0.533565354208
6	45045	28256.487785082302	2.007583307918
6	45052	28262.883706008669	0.864908759156
6	45055	28263.501722238099	1.058500370905
6	45060	28266.756717839169	0.925154173933
6	45100	28285.23468641334	1.033639819268
6	45110	28291.148607711338	0.588587687165
6	45120	28293.0365993139	1.202474387988
6	45125	28298.440093997893	0.773482978065
6	45140	28303.384893394301	1.176607328214
6	45162	28364.681476522479	0.476314919023
6	45167	28365.1196253026	0.605179139899
6	45170	28365.592824637899	0.773303830117
6	45175	28368.950789694118	0.793837089092
6	45180	28372.968394294528	0.78859596788
6	45205	28392.298398630838	2.187524332339
6	45210	28393.602839059469	0.617333826423
6	45215	28403.541480288726	0.907027770765
6	45225	28408.404454449501	2.391483813943
6	45245	28445.929486818266	0.986029454228
6	45255	28449.373750304974	0.448096080124
6	45275	28457.843336835488	0.401931907143
6	45290	28461.809434088893	2.772282535563
6	45300	28465.358914450943	1.978733326442
6	45305	28466.22041591532	0.499011916295
6	45320	28490.708286430876	0.602311280416
6	45330	28497.930169918095	0.671022573719
6	45345	28507.344294914949	0.921252668463
6	45350	28517.970545253687	0.616408672184
6	45355	28518.691498390932	0.412763084145
6	45367	28524.344609617864	0.628451717459
6	45425	28571.543466298801	1.501501801417
6	45432	28577.279096427883	0.889303941047
6	45460	28597.289076915456	0.966012604302
6	45510	28617.90374822018	0.531158169479
6	45520	28622.218135376616	2.269980157445
6	45555	28649.219777028178	1.248192021189
6	45587	28667.721499199384	1.159284082275
6	45590	28668.456430167156	2.329518925678
6	45640	28695.774416876115	0.564559535263
6	45660	28705.14574486432	1.773781186958
6	45665	28717.308875483539	0.753275437327
6	45670	28719.641651347692	0.537817099178
6	45675	28720.378858808606	0.691559845675
6	45695	28728.711677282685	2.659949709612
6	45700	28735.704872644799	0.479735811055
6	45725	28750.179821555401	0.625957143772
6	45735	28757.439560761051	0.542464666115
6	45757	28767.836473062165	0.714169771597
6	45770	28771.119841200318	0.788925806945
6	45775	28779.974034795525	0.736749570584
6	45780	28786.09560635716	0.955686063133
6	45795	28794.338394294294	3.254302398627
6	45810	28810.66011283322	1.481838450123
6	45827	28816.403095823466	1.582816930661
6	45835	28817.629904960386	0.5333126707
6	45847	28819.317370974283	0.917732671429
6	45850	28819.97037883537	1.472613016471
6	45855	28821.498348106883	0.732276726235
6	45865	28830.269806847249	0.584311382659
6	45892	28846.534881077623	0.846177648194
6	45895	28847.41396667921	2.950211019946
6	45900	28855.195489018796	0.952327089617
6	45920	28861.168342125646	1.861354283605
6	45935	28871.542763136031	0.487210799288
6	45947	28876.298279517348	1.367394586458
6	45977	28899.475116345569	1.314521140529
6	45987	28901.637401469194	3.25561324985
6	45997	28903.196356037402	1.261140839308
6	46005	28904.925578776319	2.165434593335
6	46060	28926.835606912214	1.802050160191
6	46070	28930.705185871052	0.79562765318
6	46075	28931.718432653764	2.832887493
6	46085	28935.197474698383	1.592713355447
6	46137	28969.870552901606	0.820377632789
6	46140	28970.468026266116	1.072242602798
6	46177	28994.844977374947	3.09215525401
6	46180	28995.553897867505	0.82210846985
6	46190	28998.257339503593	1.29228793053
6	46215	29022.375201966441	0.896563289035
6	46240	29044.539934749984	0.430001256196
6	46245	29045.526636507816	0.444214500254
6	46257	29066.947691110515	0.623344565323
6	46280	29077.440720694351	0.808332234994
6	46297	29098.035234110173	4.011341896086
6	46320	29102.06105616302	4.890257974249
6	46347	29115.595272135716	0.92278052589
6	46365	29124.064242306666	0.973017807258
6	46385	29142.784248413259	0.543546499358
6	46415	29159.2933603606	0.510472522676
6	46420	29160.722786018655	0.610336206574
6	46437	29170.180351850403	0.82353771911
6	46440	29170.802597559396	0.885283576421
6	46447	29174.197424667814	0.753348108148
6	46452	29175.112438526769	1.462363022942
6	46570	29233.245658099857	0.704378123675
6	46612	29247.099690864027	0.960239035072
6	46624	29248.302505403922	1.064257197963
6	46627	29248.832042971884	1.284686623226
6	46667	29280.634538340728	0.419351850823
6	46680	29285.718048248241	2.296341319894
6	46690	29295.455719488741	0.645784715516
6	46717	29307.639464954717	2.941316235372
6	46727	29309.707593382814	0.999552670121
6	46732	29310.603278421902	1.189949352028
6	46752	29326.784710857667	0.580620994838
6	46760	29329.390480807086	0.925223604869
6	46767	29330.934268501903	0.858556638192
6	46770	29331.707827866207	1.335176629953
6	46780	29334.814241267905	0.824903998943
6	46790	29336.997237762129	0.536299287807
6	46795	29342.720044460253	0.895186542021
6	46802	29344.867933053262	0.453095685598
6	46815	29348.27056797711	0.588202832777
6	46822	29355.600340991381	0.966553037846
6	46827	29356.299670314935	1.060096472006
6	46862	29372.678531856326	0.549176273914
6	46865	29373.58612690396	2.975412317494
6	46885	29390.243820094441	0.883008530363
6	46890	29391.329239707308	0.947164446348
6	46895	29397.612172465696	0.710912872199
6	46905	29403.533019445317	0.984304797323
6	46915	29412.386947463163	0.466533934278
6	46930	29425.024537155447	1.321621596381
6	46947	29427.046513886728	1.847475743499
6	46960	29430.276918204275	3.557841290666
6	46970	29432.727246892828	1.599438888246
6	47017	29454.425864813128	1.0343740936
6	47030	29469.439582987292	0.419930410152
6	47035	29478.984939618342	0.847660240205
6	47047	29494.25781695523	0.694155517546
6	47052	29495.241091464941	1.263080562802
6	47065	29505.052650519696	0.887159464229
6	47092	29514.168399237971	0.524108011508
6	47100	29515.38034648233	0.981432123672
6	47115	29524.76306138869	1.813240842168
6	47120	29525.639948830538	0.563603640674
6	47134	29530.147954031826	0.555612441758
6	47137	29530.984975224175	1.052033293548
6	47150	29535.028925389709	0.89075040943
6	47155	29536.414980827763	0.432263431419
6	47170	29543.899209734059	0.898172549493
6	47175	29544.756049593083	0.512001729105
6	47200	29563.014482980898	1.292446146566
6	47212	29565.866152886963	1.636934740543
6	47215	29566.360748459083	0.642822746506
6	47220	29569.052330792089	0.486055332283
6	47225	29572.371617286288	0.847828104999
6	47235	29574.660208202896	1.899358546434
6	47250	29586.655893691571	2.164799458114
6	47269	29594.098465537631	1.344196646052
6	47274	29594.70399108499	1.744034843541
6	47287	29600.076066050828	0.970292642107
6	47290	29600.82873169967	1.132300502235
6	47300	29606.966714119112	0.959714393085
6	47315	29614.586375309935	0.904962622933
6	47325	29616.765223164348	0.448415759066
6	47340	29624.630745105343	2.056696759501
6	47385	29638.196621349155	1.650042710597
6	47395	29643.924908710136	1.686111368854
6	47415	29653.95525481706	2.324916600574
6	47420	29655.098501347805	0.467617283948
6	47430	29659.598154112033	0.689582851157
6	47440	29669.973427031424	0.41709051826
6	47450	29672.470748810539	1.482863259842
6	47455	29675.130776780651	0.696260315971
6	47465	29677.3264007327	1.227894089691
6	47474	29685.324048105891	0.683595900796
6	47495	29688.685647525161	0.838702061303
6	47500	29691.083693382816	0.862164813234
6	47537	29706.924605824964	2.695936595073
6	47550	29713.661533077764	0.482563804276
6	47560	29719.61243672352	0.954059304763
6	47575	29723.621288003833	0.888807660853
6	47585	29748.949788558468	0.760864862008
6	47647	29775.565292873261	1.393948678643
6	47650	29776.234441488683	1.134964061279
6	47665	29790.905841969841	2.350054555619
6	47675	29793.091387551001	1.197613994158
6	47685	29801.845444709507	1.822995929408
6	47730	29836.098912501499	0.843999483076
6	47735	29848.675524589209	0.674441357702
6	47745	29853.587007143481	0.611480736174
6	47781	29860.845157439643	2.66243716934
6	47800	29873.229223133208	0.964269799302
6	47812	29876.932609136748	0.695428160066
6	47820	29878.819604088303	0.944233697141
6	47825	29882.411194558021	0.765293034026
6	47835	29889.085527549132	2.751686531876
6	47865	29917.250005604837	0.597720878084
6	47872	29918.311698847727	2.707342253758
6	47875	29918.969274733306	1.347150236674
6	47880	29921.342880411205	0.584200587589
6	47890	29928.24553510681	0.61259543011
6	47895	29936.341145776006	0.413360823784
6	47954	29983.482288074298	1.94590994264
6	47957	29984.172998617767	0.959374289025
6	47967	29986.623656395366	0.868257012637
6	47982	29989.227735337037	0.722603195114

