version 2
run First_exit_2-7-20191125-12:13:47-720
attr configname First_exit_2
attr datetime 20191125-12:13:47
attr experiment First_exit_2
attr inifile omnetpp.ini
attr iterationvars ""
attr iterationvarsf ""
attr measurement ""
attr network ResponseTimeNetwork
attr processid 720
attr repetition 7
attr replication #7
attr resultdir results
attr runnumber 7
attr seedset 7
param **.Source.interArrivalTime exponential(4s)
param **.jobPriority bernoulli(0.4)
param **.PS.serviceTimeU1 "uniform(0.4s, 1.0s)"
param **.PS.serviceTimeU2 "uniform(1s, 1.2s)"
param **.SS1.serviceTime exponential(0.4s)
param **.SS2.serviceTime exponential(0.8s)
param **.PS.exitProbability bernoulli(0.2)

vector 0 ResponseTimeNetwork.SS2 queueLength:vector ETV
attr interpolationmode sample-hold
attr title "queue length, vector"
vector 1 ResponseTimeNetwork.sink lifeTimeU2:vector ETV
attr interpolationmode none
attr title "lifetime of arrived jobs U2, vector"
attr unit s
vector 2 ResponseTimeNetwork.sink totalServiceTimeU2:vector ETV
attr interpolationmode none
attr title "the total time spent  by arrived jobs U2, vector"
attr unit s
vector 3 ResponseTimeNetwork.sink lifeTime:vector ETV
attr interpolationmode none
attr title "lifetime of arrived jobs, vector"
attr unit s
vector 4 ResponseTimeNetwork.sink totalServiceTime:vector ETV
attr interpolationmode none
attr title "the total time spent  by arrived jobs, vector"
attr unit s
vector 5 ResponseTimeNetwork.sink lifeTimeU1:vector ETV
attr interpolationmode none
attr title "lifetime of arrived jobs U1, vector"
attr unit s
vector 6 ResponseTimeNetwork.sink totalServiceTimeU1:vector ETV
attr interpolationmode none
attr title "the total time spent  by arrived jobs U1, vector"
attr unit s
vector 7 ResponseTimeNetwork.QueueU2 queueLength:vector ETV
attr interpolationmode sample-hold
attr title "queue length, vector"
vector 8 ResponseTimeNetwork.QueueU1 queueLength:vector ETV
attr interpolationmode sample-hold
attr title "queue length, vector"
vector 9 ResponseTimeNetwork.SS1 queueLength:vector ETV
attr interpolationmode sample-hold
attr title "queue length, vector"
0	15785	10002.334413968374	1
0	15786	10002.794444064107	0
0	18469	11643.719951724748	1
0	18471	11644.265476133194	0
0	18484	11645.571105213019	1
0	18486	11645.611257257851	0
0	19010	11992.375985521858	1
0	19014	11992.691343649467	0
0	26525	16850.968269926928	1
0	26526	16851.445746371038	0
0	26920	17049.246110445552	1
0	26931	17051.070662811559	0
0	27980	17696.567761730988	1
0	27981	17696.961129713761	0
0	28105	17757.908919567473	1
0	28106	17757.965164191252	0
0	29445	18611.740644666922	1
0	29449	18612.945282397466	0
0	29457	18614.242903434772	1
0	29461	18614.692644639163	0
0	29660	18744.966065211056	1
0	29671	18747.157182445121	0
0	30095	18933.304451725304	1
0	30096	18934.186960166028	0
0	30150	18955.879099561196	1
0	30151	18956.53192090908	0
0	30640	19294.898329440559	1
0	30641	19295.771182070603	0
0	31727	19936.293730892933	1
0	31731	19938.624849347062	0
0	33555	21053.725802914519	1
0	33556	21054.285786386515	0
0	35170	22155.324655049183	1
0	35171	22156.063796015897	0
0	35614	22436.072891229611	1
0	35618	22436.835450434177	0
0	38395	24253.871311165258	1
0	38396	24255.661061214003	0
0	38410	24257.917535655014	1
0	38411	24258.058145665874	0
0	38545	24335.242110741203	1
0	38549	24335.684470913525	0
0	43315	27453.7881997256	1
0	43319	27454.427100157767	0
0	43765	27809.075850943554	1
0	43766	27809.520532886332	0
0	43960	27935.393683687554	1
0	43961	27936.44815394383	0
0	45535	29018.65386684738	1
0	45539	29019.613828313053	0
1	15790	10003.392526833071	4.749702339968
1	15795	10004.018137553687	2.221616236871
1	15800	10010.989266103948	0.723326336406
1	15805	10014.333377495742	0.816491133859
1	15835	10027.449829003404	3.216421026218
1	15845	10034.184910543892	0.728168758703
1	15850	10036.505945668712	0.425951645011
1	15855	10046.377852976127	0.459207452973
1	15860	10049.182743367496	0.706961160945
1	15865	10049.947213528506	0.509881834313
1	15880	10060.281715889911	0.927083956124
1	15887	10061.918363880287	0.508657211158
1	15905	10064.481632034211	1.886865093419
1	15945	10089.381990637618	0.826924752584
1	15955	10096.398785446508	0.723737426149
1	15972	10109.80705821608	2.026957397489
1	15982	10111.902857030929	0.877352853492
1	16000	10120.957538434981	2.90324753644
1	16005	10123.739757533773	0.927859141352
1	16010	10127.344364044401	0.770837482484
1	16015	10132.882061973502	0.470619073696
1	16020	10141.395623455243	0.498644778598
1	16025	10158.582481447494	0.747435707692
1	16030	10163.525557715336	0.873797769984
1	16035	10164.776490795499	0.8264381852
1	16045	10170.304705382974	0.732026997767
1	16055	10172.020266922935	0.769691537879
1	16074	10175.246153967579	0.573752002278
1	16077	10176.06296251545	1.173149473444
1	16084	10176.990077292112	1.88683279994
1	16095	10179.261287491194	2.90242378559
1	16107	10185.291942692404	0.927701130742
1	16125	10198.639137288093	0.54397001653
1	16130	10202.8010074802	0.96542502353
1	16142	10209.313631379283	1.739937626422
1	16152	10212.548633347841	0.699374236306
1	16157	10213.419079487834	1.39057337276
1	16165	10215.152994814983	2.046517039033
1	16175	10222.251867267834	0.586672487808
1	16187	10223.525021014748	1.08275832065
1	16195	10226.501981676165	0.90738406633
1	16212	10230.230763006298	1.742673844937
1	16230	10251.745638569109	0.786291178782
1	16240	10264.042318166865	0.495979533542
1	16245	10273.583512572441	0.410093392106
1	16275	10291.947062613737	2.273849242694
1	16290	10298.924594554299	0.94357194239
1	16297	10303.642045262977	0.679683752544
1	16307	10305.236084932238	1.49307077662
1	16325	10315.480212470978	1.198810651418
1	16330	10320.127090113612	0.585508098686
1	16340	10329.954081594126	0.509553583898
1	16345	10339.908580029709	0.537439813511
1	16355	10366.42996902679	0.768831206067
1	16360	10375.80642408585	0.478772162227
1	16365	10392.685569892835	0.458080074703
1	16387	10400.980943716934	0.888293493026
1	16390	10401.728828054398	3.486246568461
1	16395	10404.73416699604	0.599591016304
1	16405	10427.89672345727	0.797747946111
1	16420	10440.236042170721	0.975006680746
1	16430	10445.917276642617	1.357331711709
1	16440	10450.402829127482	0.998174862517
1	16467	10468.315719166095	0.871224552952
1	16475	10472.138657961616	0.408628217829
1	16480	10474.721362117702	0.726688300446
1	16497	10484.393008137324	1.105171321482
1	16505	10485.736757567495	3.854075308796
1	16525	10502.98959890903	0.677377128927
1	16530	10504.188971550871	0.460512355343
1	16535	10512.889784280344	0.416384447133
1	16540	10538.646168438263	0.712278059032
1	16545	10539.49706327348	0.696275634319
1	16562	10546.479235921341	3.890912648431
1	16580	10553.268109025197	4.866506120896
1	16585	10553.780914261196	0.426274633128
1	16590	10561.044863892079	0.852396109235
1	16600	10564.313353707021	0.566296694893
1	16612	10574.725944284031	1.552219772198
1	16615	10575.457127044637	1.080208538015
1	16625	10589.030413921354	0.571273490274
1	16642	10592.635460126938	1.453687590916
1	16650	10596.260582719817	0.904474124499
1	16660	10603.66184947111	1.761424257051
1	16670	10612.949384638717	0.752116587944
1	16685	10619.042792769433	2.734592292846
1	16690	10623.132697990553	0.894920750475
1	16695	10629.359139505344	0.905884995358
1	16700	10632.999981824998	0.407264394173
1	16710	10649.793498090684	0.436588607868
1	16715	10653.424317185557	0.73985645026
1	16727	10660.22193083482	0.792787632905
1	16730	10660.87249335738	1.013363719413
1	16744	10668.676172500792	0.897491054097
1	16747	10669.30311711043	1.344638152118
1	16764	10671.740789998359	3.654323238982
1	16767	10672.707524285362	2.241872228173
1	16770	10673.607248314646	3.945072211342
1	16775	10676.554548512856	0.796325444803
1	16795	10694.079984512382	0.944158028252
1	16805	10700.1566253808	0.617092741095
1	16820	10707.305095648766	1.491847457252
1	16825	10713.129015054438	0.599906546483
1	16835	10718.271020939258	0.944396889443
1	16850	10727.191405818876	1.172694180129
1	16865	10738.654999688846	1.507788545592
1	16879	10744.683065493597	1.652473164701
1	16882	10745.268899509317	1.663216148681
1	16885	10745.698531169264	2.778828524053
1	16895	10750.916107548465	0.799348478345
1	16905	10752.356694121891	1.203488080988
1	16925	10763.540351756037	0.992162909219
1	16935	10782.001854668035	1.583160869824
1	16940	10784.103921769623	0.42829077756
1	16950	10790.147776568759	0.694709004648
1	16955	10797.850794429382	0.417236135947
1	16960	10800.355309514251	0.47299087625
1	16965	10802.965180771004	0.602942420263
1	16970	10805.458300438141	0.874343742849
1	16975	10808.038964243336	0.595378724393
1	16980	10816.742260441488	0.851444814634
1	16985	10817.50380060428	0.485560319992
1	16990	10820.438659250268	0.639145892533
1	17010	10824.500659970499	1.909128172753
1	17015	10825.647184621105	4.791414339457
1	17020	10826.681947344833	0.476403271267
1	17035	10846.469729825449	0.441750483355
1	17047	10850.773652872734	1.728619392721
1	17050	10851.47230167432	1.240785734933
1	17055	10859.885822068318	0.718492388912
1	17094	10890.643146208182	1.204186790775
1	17120	10907.801096204292	0.566622273438
1	17145	10921.000119587528	0.625625322666
1	17160	10937.422524523311	0.430830919882
1	17175	10942.391206544806	1.174980490464
1	17185	10945.243728484346	1.565731475138
1	17192	10960.69231179256	0.898503418267
1	17195	10961.656984125096	1.058324934147
1	17220	10971.266196363642	2.72922555069
1	17240	10995.223376839112	0.566755617643
1	17257	11006.089508994801	1.907839608767
1	17275	11008.955477549316	2.632826694431
1	17280	11016.668657553503	0.62502344083
1	17285	11017.413001940306	0.679882269399
1	17325	11036.29260863437	1.530034696761
1	17330	11037.517711339377	0.669248430058
1	17340	11044.101754251004	1.597334843323
1	17347	11049.009902020079	0.67476214096
1	17357	11050.218659136678	0.910398812736
1	17360	11050.667677085335	1.796635730937
1	17365	11052.334611874219	0.990045262733
1	17370	11055.06175684948	0.786867897864
1	17377	11064.584373899358	0.651976036793
1	17385	11071.605216754541	0.615135722328
1	17390	11079.555930680134	0.860189764993
1	17397	11080.726127136975	0.81175068384
1	17417	11086.301472163555	0.427917268081
1	17420	11086.939955621428	0.723301849033
1	17425	11089.206643396985	0.477896268992
1	17430	11092.440953113529	0.690715795849
1	17435	11103.710890070176	0.784914617706
1	17440	11109.904118564306	0.781167519744
1	17487	11117.585646293959	3.47502025833
1	17490	11117.998055826495	0.616443843239
1	17495	11120.875175022591	0.808710046345
1	17500	11127.204918747992	0.657482213061
1	17520	11140.950647472867	0.494519212283
1	17525	11141.884650305829	0.541852892237
1	17530	11146.043661717794	0.602728680195
1	17540	11156.03617225989	0.872463783808
1	17545	11159.267369974048	0.558645508718
1	17560	11163.991629398336	0.456205501873
1	17570	11175.741312687862	3.839738291194
1	17582	11184.389714305669	0.924036515038
1	17590	11186.886512073556	3.419316574397
1	17595	11194.239520092612	0.56941144797
1	17605	11197.557038446251	2.719190578548
1	17612	11205.344703690344	0.695331823919
1	17620	11208.713771691827	0.634688111441
1	17635	11211.756405480287	0.464634987712
1	17640	11213.013186501936	0.426732294401
1	17645	11215.163552007742	0.970376616344
1	17675	11232.033043411187	0.799866805319
1	17680	11243.979447136124	0.715120405005
1	17685	11249.829024702915	0.586560703535
1	17705	11264.08686532104	2.0913171355
1	17715	11282.85313139912	0.455436701141
1	17720	11284.134968627209	0.641495948518
1	17750	11294.137263122446	1.368843275866
1	17759	11299.992737507465	0.647244246397
1	17769	11301.458724895277	1.945110811416
1	17775	11302.809856883361	1.622054587735
1	17815	11311.572581660488	3.477632739643
1	17825	11318.392559654701	1.893197374649
1	17834	11322.401996974581	0.618483974552
1	17840	11323.548511432744	1.199936641067
1	17862	11329.199578583667	1.216503272513
1	17870	11330.37684848449	0.971924456783
1	17879	11333.419957888969	0.814745913912
1	17895	11337.141849712256	4.440188691216
1	17900	11337.843805675499	2.209398746295
1	17905	11339.674107355684	0.529242164968
1	17915	11344.689829494459	1.433038963145
1	17920	11345.34182505776	2.41875734886
1	17930	11349.046829280551	2.726292817147
1	17949	11373.423899510128	1.130541250467
1	17967	11376.797803239848	5.095775731327
1	17975	11378.132175006044	3.461709964531
1	17982	11384.760932350723	0.893387598265
1	17990	11387.499314133035	0.596362574724
1	18015	11401.781602556884	1.264776048191
1	18020	11409.071208744587	0.869836338516
1	18027	11411.548246618834	0.607432268281
1	18035	11413.620977627141	0.843265598733
1	18040	11416.261312751005	0.903557181591
1	18070	11434.635641362744	0.952637899946
1	18075	11439.157871350104	0.590943006845
1	18082	11439.809378358996	0.649812135892
1	18085	11440.480557989464	1.234301397104
1	18090	11442.378952331796	0.577774344897
1	18105	11447.30838964488	0.78910495434
1	18125	11455.866507868524	2.923333188938
1	18135	11459.85778555086	0.588147224998
1	18145	11465.443632584343	2.26161956169
1	18150	11470.376483046756	0.851588372467
1	18162	11480.192732406371	0.751392120635
1	18170	11482.13857168599	0.428448878974
1	18177	11483.099901006528	4.609435842154
1	18180	11483.586610541603	1.170929556815
1	18195	11495.48982787814	0.530264807774
1	18230	11517.198938546234	0.87001316034
1	18235	11519.793446643062	3.799794429932
1	18240	11524.723543259826	0.879821078246
1	18245	11528.018366761929	0.91627154802
1	18262	11534.433421764428	0.858765995922
1	18282	11545.168289723932	1.370971698498
1	18285	11545.774082130832	6.029066957744
1	18295	11556.825229763374	0.837157806754
1	18300	11560.621809196756	0.990308860736
1	18305	11562.21139118984	0.54358896683
1	18310	11571.10363970686	0.660196725931
1	18320	11577.538458409107	2.567578067631
1	18325	11584.337830607033	0.437546654092
1	18345	11591.270600337212	0.779714903956
1	18350	11592.452239683832	0.54643615461
1	18380	11611.439699125798	0.57215759973
1	18387	11614.052023657022	0.579047925631
1	18390	11614.696163308091	0.958078645554
1	18405	11628.718700431505	2.918961967565
1	18417	11631.373049574133	0.854457507702
1	18422	11632.077266181467	2.507667834715
1	18425	11632.800142692422	1.042538851049
1	18458	11641.21195007481	1.472422422263
1	18474	11644.267749840834	3.530381236129
1	18477	11645.006680842371	1.513816247055
1	18494	11647.180341965074	1.994227790383
1	18497	11647.657502331885	8.201757857808
1	18505	11649.571202060476	9.687242452889
1	18515	11667.608749600278	0.852912672795
1	18535	11675.4156180544	3.787586111745
1	18540	11677.217786400058	0.785913554067
1	18565	11689.096828137432	0.920605452964
1	18575	11692.222650503909	1.897196386062
1	18580	11693.181450907316	0.481761813024
1	18592	11710.990607512398	3.674813447661
1	18595	11711.816748407837	1.180297671655
1	18605	11720.661497586615	0.77761448659
1	18615	11737.763119200325	0.77975167453
1	18629	11739.537881536668	2.979994283608
1	18640	11742.913595466152	0.580725813331
1	18645	11746.347101863664	0.840276516788
1	18655	11747.266221801475	0.566389171989
1	18662	11751.982162104615	0.944939965382
1	18665	11752.440895353652	0.853207083141
1	18670	11757.599560853651	0.944043342583
1	18682	11764.429683184908	0.619828852887
1	18705	11770.079710439888	0.744134029374
1	18710	11771.615703937485	0.832088478375
1	18730	11789.563033166325	0.617217674339
1	18750	11805.598662968077	0.442316448595
1	18760	11811.173350971804	0.500760547956
1	18775	11830.557582918408	1.60576242927
1	18785	11833.630449496574	2.110882238409
1	18790	11852.350877075717	0.786062983004
1	18800	11859.30163186767	0.73209497123
1	18815	11880.94441257232	0.44633845021
1	18820	11884.777081726455	0.900151090464
1	18827	11886.020993126628	0.661217077216
1	18837	11898.091884626348	0.979758603778
1	18845	11900.048055674009	2.555817219668
1	18850	11901.499767858259	0.469820659282
1	18857	11909.38009399269	0.647416263167
1	18867	11913.183195694617	0.72086009495
1	18875	11915.73547276683	0.757506181579
1	18882	11918.648621938837	0.945285888482
1	18885	11919.478535094851	1.571568096435
1	18890	11922.970625096884	0.701963453135
1	18895	11923.836207979758	0.59743087301
1	18905	11931.204724219468	1.522436065504
1	18910	11931.68476602767	0.459391774237
1	18930	11947.445692540828	0.576197217032
1	18940	11951.310518401364	0.611522582406
1	18945	11952.732872325776	0.802259150101
1	18950	11959.637771780448	0.736124063935
1	18955	11963.019589960253	0.771700461581
1	18965	11968.630050077378	0.944658665638
1	18990	11986.396253681849	0.602029464487
1	19019	11993.289887123976	0.839994373685
1	19022	11994.123402251026	4.116683543765
1	19025	11994.65134740323	3.871259976141
1	19040	12013.997821212884	0.695507898508
1	19047	12016.534194818103	0.699706145842
1	19065	12020.38397252174	1.223623840146
1	19075	12037.892284304713	0.513816825347
1	19080	12045.75889595196	0.555129338475
1	19085	12053.545940788503	0.592549719336
1	19095	12064.463760200418	0.823865257623
1	19105	12074.457180587871	2.395707569644
1	19110	12078.785219622583	0.416348026088
1	19115	12087.291523815215	0.70279634539
1	19120	12090.738972935563	0.62285548253
1	19125	12098.278980376992	0.547088784259
1	19132	12100.236698220597	0.650453428039
1	19135	12101.094641244664	0.9400030231
1	19140	12105.78580718337	0.88188832351
1	19150	12111.206953985581	1.864416799022
1	19170	12125.637969994841	1.32347842693
1	19175	12130.176512060311	0.437083180388
1	19195	12142.20210416024	0.700064295065
1	19210	12149.626522678734	0.979434965923
1	19215	12150.716229783033	0.990332545899
1	19235	12159.006361035047	2.094421531763
1	19247	12166.206874153172	0.701201005
1	19250	12167.169160342976	2.215771777416
1	19255	12174.787999579596	0.743679934042
1	19260	12179.222626450201	0.523665655311
1	19277	12181.746288519056	1.583872542755
1	19282	12182.657919272856	3.180721672205
1	19290	12186.985732008607	0.649971368723
1	19305	12194.222675478504	0.911298081232
1	19310	12197.273489793269	0.718290012889
1	19315	12200.137075715761	0.826357543608
1	19320	12202.140690619172	0.752854421455
1	19325	12206.455136006465	0.863324765256
1	19330	12207.358170998576	0.90225826893
1	19335	12210.690739313672	0.712605276378
1	19345	12214.94864521616	1.709277283434
1	19350	12216.631371471343	0.571133551607
1	19360	12222.70034950249	1.824898780137
1	19370	12227.885101743203	2.220982408854
1	19375	12238.308980593577	0.902140010614
1	19382	12243.009808196156	0.955556135112
1	19390	12244.369321474545	1.69571923043
1	19395	12246.110574765035	0.86975624999
1	19410	12257.974214693699	0.791548927844
1	19430	12263.649641177418	0.742690620525
1	19445	12269.905768414318	1.286227460303
1	19455	12272.461167040663	1.245108149822
1	19465	12278.665789657072	1.292399067151
1	19470	12279.708913264562	2.53922526344
1	19480	12285.908021460849	0.646341484273
1	19500	12293.076065481191	1.681120447228
1	19517	12304.685309561975	1.765285705075
1	19520	12305.485799289522	0.882481181388
1	19535	12312.877205977833	1.173557619335
1	19540	12313.783308072971	0.576531218691
1	19550	12316.895265145301	2.601180402564
1	19585	12342.440231295307	0.579735605046
1	19595	12347.357783511143	0.587155866856
1	19600	12354.064450371898	0.432148060109
1	19615	12365.004811401801	1.339007344662
1	19635	12380.466559697256	0.500675533526
1	19640	12381.652430137656	0.411809770344
1	19645	12384.8204024993	0.949587621028
1	19650	12389.113924331169	0.440781596676
1	19665	12399.866312194104	0.643204295496
1	19695	12420.502176142917	0.69284859919
1	19725	12439.508389016621	2.409524704157
1	19742	12446.438102304283	1.411601130943
1	19745	12446.919982781726	1.244092178345
1	19750	12451.806089112376	0.6774206331
1	19765	12468.201247199024	0.923487299774
1	19775	12471.439812833067	1.631054421686
1	19780	12474.445919592735	0.956727735465
1	19785	12476.565372111732	0.750009270897
1	19795	12488.819251432989	0.508144463319
1	19800	12498.400703332347	0.494716454111
1	19805	12500.731934199642	0.693517965823
1	19810	12501.837810357587	0.796378856944
1	19822	12504.407320110052	0.973950864235
1	19830	12505.434427800755	1.238436892983
1	19840	12511.105807399231	0.673162190989
1	19850	12518.733623153347	0.642999337427
1	19855	12522.464572507714	0.809791220073
1	19870	12526.922642384023	1.195448805537
1	19880	12533.925690635689	0.507492331136
1	19885	12535.194778057889	0.450352675375
1	19900	12557.724119359767	0.643880147347
1	19905	12566.912322836772	0.486204881221
1	19927	12579.422340389031	2.023378406968
1	19935	12580.541026704202	1.84750481975
1	19940	12584.997006178531	0.565495326696
1	19950	12588.477313317683	0.962893546559
1	19955	12596.295806992404	0.989377490897
1	19965	12599.009187774129	0.583283773204
1	19970	12609.268274342021	0.813380227098
1	19975	12614.782213712838	0.86322369948
1	19994	12623.429301220349	0.995963635906
1	20022	12628.513095888582	2.351385999983
1	20030	12631.707678383978	4.373513500235
1	20035	12636.017304156423	0.607341862191
1	20040	12638.203407604867	0.621501780162
1	20060	12645.208240082863	0.828314741049
1	20070	12655.724238790897	0.571000726661
1	20075	12657.901497106835	0.550255258987
1	20087	12660.019706623433	1.118547029752
1	20090	12660.624431897271	0.818266485904
1	20105	12672.363901676518	0.959249529522
1	20115	12679.071075027323	2.194863669494
1	20120	12688.732193416266	0.792834607745
1	20135	12693.748067550133	0.843116446957
1	20155	12701.257998811046	0.961768833036
1	20160	12706.072398168644	0.532007391006
1	20180	12715.980195451278	2.918682984916
1	20190	12718.135661246106	0.60163366502
1	20195	12719.534652616622	0.750194764091
1	20200	12721.652275394013	0.528396088956
1	20214	12728.217963877041	0.916972653288
1	20217	12729.020333982725	1.071604848841
1	20227	12730.016014167722	1.814543380098
1	20240	12734.362295485166	0.666448526638
1	20260	12740.535347046754	0.895175204938
1	20270	12745.699847306198	1.46443820675
1	20290	12774.505403492291	0.445523435995
1	20305	12781.405599717346	0.667080835532
1	20320	12786.729112247657	1.182257394922
1	20325	12791.361980757889	0.547270510346
1	20330	12792.01488923286	0.592005213862
1	20335	12796.786889145014	0.442758457223
1	20340	12807.125442713158	0.413268805714
1	20345	12817.550099730337	0.864559706533
1	20350	12820.931008604208	0.468038290739
1	20355	12826.870929197876	0.568185797613
1	20365	12840.29644687037	0.607441571634
1	20370	12843.394959490358	0.932109197369
1	20375	12845.196282140908	0.727334577031
1	20400	12851.196406238703	1.109645804088
1	20407	12852.579865467738	0.755546203023
1	20410	12853.093836571512	1.037631123518
1	20415	12855.742497520001	0.550195124839
1	20420	12860.575709880233	0.957223116839
1	20425	12862.579890955009	0.984755448252
1	20430	12873.063189150616	0.856053779973
1	20435	12874.517174426688	0.937006277777
1	20445	12884.114059085917	0.52276159497
1	20450	12894.939056549428	0.612418020703
1	20470	12906.599004979048	0.894135998702
1	20480	12914.735748938736	0.603264340665
1	20485	12919.186295178076	0.7525607883
1	20497	12922.347125910507	1.566196159383
1	20510	12932.41298046453	0.548950181715
1	20532	12936.0229319592	2.913991589704
1	20535	12936.587108537321	3.169262855046
1	20540	12954.774084472367	0.679152893368
1	20545	12958.28392301614	0.667126460467
1	20570	12974.401822875667	0.4873095138
1	20575	12975.370299821492	0.407024409389
1	20580	12983.409727168921	0.866802038299
1	20594	12999.565775002013	0.623879315378
1	20617	13024.117366517706	0.938822664274
1	20625	13047.852555690446	0.766920096939
1	20642	13051.748259359279	2.408800847032
1	20660	13058.92321157673	1.32818517142
1	20665	13066.361607267942	0.498226019554
1	20670	13073.462020616499	0.818863685476
1	20680	13076.32677388891	1.619477985884
1	20690	13080.858645029667	0.932896377379
1	20695	13082.567375476163	0.844294182444
1	20714	13108.455686447126	0.633854161529
1	20717	13109.022342533301	0.72788140544
1	20720	13109.471430376134	1.085763039393
1	20730	13111.321336873857	1.769107098261
1	20737	13118.705625399954	0.714501816779
1	20744	13119.633314107458	1.563074848354
1	20760	13122.686037424446	1.475681611242
1	20765	13124.442596675457	5.648414946752
1	20785	13151.856411130195	0.678047647933
1	20795	13168.505975938443	0.909730895981
1	20805	13174.239068898427	0.942272370355
1	20812	13181.891032502571	0.806410201732
1	20820	13183.910631014461	2.644272286984
1	20847	13193.471905907494	1.619499843007
1	20865	13198.302951032794	0.569273481146
1	20870	13210.291480598604	0.504053109
1	20875	13211.17966184252	0.602653246559
1	20900	13222.284530945126	5.172492734114
1	20912	13223.417264570839	0.812282702113
1	20932	13231.279260291108	0.956715018861
1	20942	13234.296012709256	0.810467162728
1	20947	13234.793199753355	4.00841971287
1	20955	13241.116238935318	0.853123392444
1	20960	13248.521704917626	0.919568974059
1	20965	13250.729269042967	0.885819610301
1	20975	13261.467513449542	0.434523529606
1	20980	13265.493088525731	0.522056983411
1	20997	13272.974357478609	0.846345054334
1	21005	13276.227344365871	0.898972656624
1	21012	13282.470334041118	0.957358954381
1	21027	13284.20224366677	0.931456837646
1	21030	13284.914026183076	3.086343867417
1	21035	13287.29634027654	0.885363220703
1	21055	13301.547001661736	0.631165109109
1	21060	13309.006413823937	0.817571910005
1	21065	13311.249597188413	0.587870484591
1	21070	13313.077998418458	0.89874265315
1	21075	13317.616696913755	0.604497390287
1	21095	13326.796868915314	0.966977061285
1	21105	13349.4801720951	0.755491435668
1	21112	13364.239063300342	0.945001579076
1	21120	13365.931219502396	2.497365520782
1	21125	13382.026740372461	0.423433124088
1	21137	13384.186982321361	1.283695770897
1	21140	13384.859928176267	0.812006058651
1	21165	13393.807890832822	0.480776419584
1	21170	13400.11374560718	0.704015573813
1	21180	13402.326748690725	0.546360542998
1	21185	13414.145032899572	0.833611816633
1	21190	13423.426898633738	0.409215682792
1	21200	13426.133501335167	0.725054130657
1	21205	13436.316447440812	0.686708394112
1	21210	13441.840958453548	0.435362305818
1	21230	13450.754029213719	0.506121231569
1	21240	13461.269589688582	2.444360786907
1	21245	13463.868842122249	0.860816522222
1	21255	13471.15652655524	0.987524589198
1	21260	13473.039064384924	0.999319286225
1	21272	13476.117871834151	0.783128909688
1	21275	13477.014079950377	2.263127074577
1	21280	13482.67830644832	0.782908237912
1	21285	13487.976227297462	0.468701158743
1	21295	13520.801382701386	0.975847512763
1	21302	13529.966312279532	0.682455019839
1	21312	13531.54694328809	1.49011610454
1	21322	13532.920461139994	1.282443808429
1	21330	13534.780794767363	1.309214155801
1	21335	13535.404291171419	0.501196923386
1	21342	13537.09819031041	0.630903864466
1	21350	13538.439563399226	1.031708215655
1	21355	13539.599585580807	0.715243894747
1	21375	13548.497603297479	3.476622718866
1	21380	13552.085269741643	0.444068726106
1	21385	13553.401073601485	0.640133041143
1	21397	13556.303123098137	0.683924367744
1	21405	13562.46881533749	0.554182222392
1	21425	13565.522847044388	2.932017944939
1	21450	13584.887346637566	0.818568282369
1	21457	13586.071039821595	0.845995662548
1	21465	13587.989764494422	2.30885098955
1	21484	13598.381874660439	0.997366202343
1	21492	13600.001886363969	1.854719639025
1	21495	13600.927813356639	3.51983333444
1	21500	13606.141237666738	0.702449725335
1	21507	13611.148856734014	0.507887687348
1	21512	13611.856763498806	0.826173967272
1	21515	13612.842802006327	1.039291419057
1	21525	13617.730153099565	0.874986474728
1	21535	13621.06191311248	0.800278677512
1	21550	13628.491280729093	0.585346847214
1	21560	13636.634584553094	0.752069248771
1	21565	13641.112675427338	0.967785133887
1	21575	13647.773798862484	2.62406280733
1	21595	13660.289980994356	0.647389785154
1	21602	13665.111506850821	0.542221141513
1	21610	13668.184961257346	0.570993311889
1	21620	13675.03696909972	0.981005333019
1	21652	13705.401512221876	0.768325640401
1	21655	13705.965076686792	1.217013314434
1	21664	13707.030224107711	0.850656589819
1	21670	13708.727909075089	1.906170230827
1	21685	13743.253941542146	0.96758659468
1	21705	13754.879431011012	5.342782115623
1	21715	13757.923642045963	0.532227768004
1	21727	13759.979320624233	1.362166612643
1	21730	13760.879795214948	1.609781577493
1	21737	13762.172520989759	3.780123011653
1	21772	13781.980040213335	1.340963124213
1	21775	13782.936781411115	1.237748301343
1	21780	13791.10705719676	0.435431862203
1	21795	13800.876103783346	0.511768190982
1	21805	13806.564610295163	3.263747507926
1	21817	13811.555248211744	2.756787595335
1	21825	13821.981147469064	0.422947343625
1	21832	13824.909363477555	0.533633463178
1	21835	13825.354943407717	0.651438315064
1	21840	13828.238388182697	0.733234441653
1	21845	13833.041537642108	0.851982951118
1	21860	13838.192803990819	1.266659632279
1	21902	13865.901743797925	0.585794042363
1	21905	13866.733750524246	3.378700736695
1	21910	13871.868856308319	0.695417603618
1	21920	13877.671268278266	0.821408082591
1	21940	13881.772192510036	2.131745387218
1	21945	13883.078962550179	0.726491264394
1	21970	13902.097895173638	3.233121360075
1	22001	13916.870935351228	0.963112340074
1	22004	13917.54308133243	1.127150131813
1	22007	13918.182509701665	1.74813253245
1	22017	13919.738545862458	7.058508977665
1	22020	13920.559668722994	3.980684300388
1	22025	13929.567209273291	0.672137912782
1	22040	13941.448495402597	0.527131970553
1	22050	13948.644738165992	1.317371783773
1	22070	13957.660537279819	2.423997595673
1	22075	13959.198310829667	4.882305717071
1	22080	13960.707316075587	0.543057944346
1	22085	13962.218575101406	0.87384503386
1	22090	13963.184613411026	0.528130353428
1	22095	13972.127639361635	0.809144072607
1	22104	13973.361357078758	0.952974256361
1	22121	13975.483968627417	2.328756039374
1	22136	13977.956642936786	5.069468930616
1	22142	13978.847187899296	3.78978612551
1	22145	13979.444264827446	3.234019181865
1	22160	13995.29892001731	2.638563987972
1	22175	13998.582295613169	2.507260029486
1	22180	14008.658153119839	0.496656567976
1	22190	14022.513111602617	1.565367402963
1	22209	14031.995166880312	0.610075735999
1	22212	14032.753893578612	1.176827225412
1	22215	14033.604417939578	1.611631702567
1	22220	14038.951581159654	0.522666475317
1	22230	14047.459210426625	0.942395406915
1	22257	14061.570314171376	0.655878729387
1	22260	14062.474334389555	1.820683056443
1	22265	14065.195235356951	0.977565379208
1	22272	14066.879567443977	0.67246326739
1	22277	14067.489148614022	0.848854965596
1	22282	14068.227773319443	1.208211256465
1	22295	14080.136939259678	0.925095895678
1	22300	14087.621313616006	0.871942505147
1	22310	14095.72374295124	1.556604088609
1	22315	14098.483990349364	4.418209485061
1	22320	14100.227678025272	0.923917922005
1	22325	14105.66243426522	0.828957974026
1	22332	14112.825414271854	0.72134583476
1	22335	14113.469451604612	0.739523043116
1	22340	14115.542983997005	0.408398837689
1	22350	14117.925070222912	1.058516403438
1	22355	14128.363596650694	0.914499268914
1	22375	14131.957985802919	1.76822897236
1	22380	14144.121849032746	0.496239448432
1	22387	14145.858704937031	0.824901350122
1	22395	14148.938755931598	0.772502393322
1	22400	14154.404600025163	0.945320747839
1	22405	14164.496984905758	0.77270996836
1	22455	14192.912607830641	1.423743051073
1	22460	14196.278014400771	0.453336925851
1	22465	14198.279312756536	0.833314873185
1	22470	14201.99322888845	0.462164203124
1	22477	14212.628500634419	0.975490559777
1	22480	14213.56221173586	1.579984627825
1	22485	14220.081168710631	0.719600594137
1	22495	14226.955247346474	0.707100330992
1	22500	14228.14525897017	2.819808541239
1	22505	14230.112928964952	0.980861350289
1	22514	14232.475110305857	0.954280771827
1	22517	14232.975755684508	1.201053467243
1	22520	14233.87501152401	1.851009740925
1	22525	14244.856657820889	0.721100469213
1	22555	14255.565168541241	0.502662243322
1	22570	14257.989818529236	0.974845926601
1	22582	14268.911960658116	0.934288199386
1	22590	14270.666321970535	5.602470009541
1	22595	14272.053363732391	0.510297226068
1	22605	14287.915428451763	1.15295152767
1	22610	14292.190137619044	0.559189927857
1	22615	14301.147899034305	0.519601541758
1	22622	14302.269672999242	0.971416132152
1	22635	14306.958514229325	0.67900294112
1	22647	14311.59584005876	1.368078645678
1	22660	14316.310163953329	0.883696042504
1	22672	14328.420805197732	0.459285229351
1	22680	14335.938238781278	0.825034966739
1	22685	14341.659494050173	0.612731981929
1	22697	14350.613057665681	0.965849989679
1	22702	14351.277715239642	2.281745614624
1	22712	14352.721025021821	1.602759487135
1	22720	14354.005230777552	0.805612232884
1	22730	14364.850162461964	0.839120493364
1	22739	14366.084966930104	0.787595450971
1	22745	14367.244382389505	1.295337336662
1	22750	14367.932969386693	4.626104193217
1	22760	14375.027478181534	1.481809851012
1	22765	14380.692817412279	0.692870866973
1	22775	14384.012450167076	1.244932009802
1	22780	14392.875822907738	0.417172006425
1	22790	14395.923968967553	0.855960302055
1	22795	14400.802239436127	0.703995131468
1	22802	14405.590014277446	0.518703030935
1	22805	14406.209746622481	1.019697072184
1	22815	14412.40234419239	0.623839269159
1	22827	14419.193677244381	1.336727082558
1	22830	14420.00103415735	1.179177562765
1	22840	14428.348097926338	0.752986068884
1	22845	14433.899872973465	0.480431502871
1	22850	14434.977741615075	0.681516946014
1	22857	14436.925267718268	0.80662696166
1	22860	14437.903242153489	1.509346672126
1	22875	14446.116947862047	0.825495508593
1	22885	14459.809846679807	0.838443862693
1	22890	14462.418761264276	0.941627915297
1	22900	14474.934803835897	0.747508900147
1	22910	14481.891947196304	0.405612533819
1	22915	14489.819795744958	0.672367193736
1	22920	14493.115236205402	0.98388645947
1	22970	14506.631023283977	3.091962717239
1	22990	14534.854955005341	2.863020856261
1	22995	14540.584555988006	0.968183640158
1	23020	14544.525878674654	3.03463164214
1	23025	14550.112443820893	0.84136893861
1	23030	14553.337526775619	0.819485295657
1	23035	14561.669110894963	0.510852560261
1	23062	14571.150357015517	2.712035445414
1	23072	14576.973379502293	0.895333138853
1	23075	14577.512637989862	1.003098772163
1	23085	14591.807925830062	0.782439699862
1	23090	14592.935002571164	0.827039436856
1	23101	14594.064809813748	0.880990872579
1	23116	14596.117302029233	2.219462485197
1	23127	14598.369424288838	4.225515371213
1	23135	14600.293562699291	4.894670299995
1	23170	14615.524329976371	2.462444170227
1	23185	14632.811319075182	0.495594221819
1	23215	14661.317257653778	0.812812953163
1	23224	14664.013354678163	0.605021677492
1	23230	14665.035853651389	1.413319138929
1	23235	14666.051863487377	0.890375370113
1	23242	14668.480152585084	0.553594348114
1	23245	14669.06533457535	0.824145059288
1	23255	14677.408828946448	0.665914797131
1	23277	14680.710525311394	1.914904790755
1	23285	14689.121394260953	0.833759669494
1	23295	14701.962772917045	0.41609658855
1	23317	14707.056318962595	3.748056935512
1	23325	14717.727571353105	0.642028043885
1	23330	14721.891617428059	0.916473569069
1	23340	14723.41020922846	0.860280792776
1	23365	14731.689680179686	2.973228644531
1	23370	14732.143875003885	3.691255882458
1	23375	14733.983566510955	0.600129375327
1	23395	14743.054701416377	0.611616305076
1	23405	14755.440107799582	1.319904371921
1	23415	14760.52830211352	1.694294328082
1	23435	14765.928430694556	1.212984241099
1	23440	14772.364854574723	0.488756575622
1	23445	14774.312187986358	0.951385480165
1	23455	14783.92069209701	2.111326539947
1	23467	14786.374673946837	2.2123812336
1	23475	14789.945659534239	0.404939228809
1	23490	14797.577379749268	0.942553141341
1	23502	14804.489681209182	0.536397956358
1	23510	14810.716193573741	0.447454399616
1	23530	14814.528838588912	3.162693736842
1	23535	14816.241485979266	0.587678560801
1	23545	14824.347745668518	0.553375503467
1	23550	14825.633415212519	0.63753895862
1	23555	14826.857737017717	0.807524673268
1	23570	14849.95241960423	0.998770897835
1	23575	14850.738692579035	0.415874779224
1	23585	14870.430076833288	0.56123715993
1	23615	14885.18668608266	0.734606334427
1	23630	14894.995189535233	0.652038874943
1	23640	14909.865366979578	0.603540616157
1	23645	14911.465516456164	0.821431832993
1	23650	14918.673329980982	0.952927046968
1	23660	14927.456854340543	0.769932142505
1	23672	14931.369895127714	0.654808358552
1	23680	14938.348065922637	0.68350745202
1	23690	14943.935783469385	1.48213540063
1	23695	14944.687474189929	0.516043305257
1	23720	14951.419887189655	2.898765912126
1	23725	14953.492356385513	0.521075533517
1	23735	14956.419811996561	0.592654861789
1	23740	14961.07974170414	0.771469594212
1	23745	14965.55931102409	0.849607577873
1	23755	14973.366071936498	0.487670755666
1	23775	14985.942585220986	0.632377740555
1	23780	14999.422971278301	0.994471339975
1	23794	15006.078264296578	0.903241995489
1	23817	15010.567163914401	0.956183354044
1	23827	15012.13654265381	1.551859759833
1	23830	15012.573526392417	2.343551244283
1	23847	15015.314056961738	1.924836967326
1	23860	15025.547175080423	0.582585772593
1	23875	15032.084075442971	0.472285070969
1	23900	15048.482574118889	1.018603525755
1	23910	15051.487619266321	0.697552199988
1	23930	15072.328404744567	3.888617637065
1	23935	15074.904629791685	0.926874499768
1	23940	15076.878242825483	0.472288990906
1	23945	15089.290657294536	0.850348073896
1	23955	15098.314285891019	0.477771272603
1	23967	15112.600207319006	0.701190739032
1	23970	15113.329986983666	1.184667947203
1	23980	15118.156188811036	0.735086734826
1	23990	15121.17912364812	0.580597801288
1	24000	15123.023743196547	0.845506224362
1	24007	15124.66652138169	0.963719046814
1	24012	15125.212859201488	5.037271999807
1	24020	15128.67779920609	0.97360883886
1	24025	15140.103571566829	0.494949064776
1	24035	15143.939101070155	0.575892665191
1	24040	15145.271242306831	3.978174557435
1	24045	15147.028393238566	0.976280100131
1	24052	15154.32366611676	0.88575290977
1	24055	15155.114607761779	0.971421529141
1	24060	15159.526118859295	0.839252305636
1	24085	15180.418145283578	0.471504429681
1	24107	15212.437059052579	0.854366016015
1	24120	15220.148263969226	0.65001956746
1	24130	15227.191994142491	0.916226482578
1	24165	15235.888553982597	0.712086111307
1	24175	15254.080298025186	1.691302175192
1	24185	15267.664396996926	0.614529459551
1	24190	15268.603478715323	0.606965089217
1	24195	15270.638376250923	0.963957982045
1	24212	15273.6814748117	2.810045915593
1	24225	15278.078463416671	0.574747277424
1	24230	15282.523725508998	0.559020107007
1	24245	15285.755111530203	1.018049040802
1	24262	15298.983365625354	0.793805424916
1	24295	15306.581031409119	0.924563723477
1	24300	15321.82912169654	0.751117503783
1	24310	15330.890694733512	0.613983860798
1	24315	15339.566770414858	0.620225520572
1	24322	15341.880095424202	0.866646459978
1	24335	15349.192302519183	3.128011086613
1	24345	15352.999744438371	1.587413304277
1	24350	15365.078741568604	0.586658917367
1	24365	15366.749160311263	1.184125538805
1	24370	15367.556956938297	2.365716318344
1	24380	15370.539556604083	2.228917978662
1	24385	15371.896217389897	0.639108635671
1	24395	15385.500415632395	0.489133201493
1	24405	15393.428220833478	0.503496618019
1	24415	15395.12200403071	0.50335456985
1	24422	15398.178960170484	0.784464316024
1	24435	15401.999407435954	1.744063522689
1	24450	15416.019067200777	0.821391781047
1	24455	15418.419089948728	0.609905307181
1	24465	15424.469259791503	0.655596121401
1	24470	15430.775448360606	0.9537299925
1	24480	15434.129807011018	0.812246369198
1	24485	15437.171275957615	0.438618116267
1	24495	15439.129460462633	1.175509613584
1	24510	15450.141126581603	0.74512754404
1	24515	15458.500034245856	0.991021974618
1	24525	15462.779802894708	1.178607427042
1	24545	15473.757199068123	0.4778965618
1	24550	15475.758870170703	0.857839236828
1	24560	15478.725752880314	2.366200441962
1	24570	15488.16025680635	0.883144794265
1	24575	15492.90966553915	0.881393346423
1	24582	15495.701491201368	0.8138979943
1	24592	15497.70041586823	2.332666015059
1	24605	15503.650479011482	2.420469799901
1	24610	15505.363268100326	0.731876428192
1	24637	15517.761436789075	1.128234138324
1	24640	15518.627497919241	1.950743968329
1	24645	15520.168268129266	0.604256867385
1	24655	15531.531624632436	0.46824922706
1	24660	15541.731311812858	0.61819133563
1	24665	15552.95904001575	0.539695699932
1	24675	15561.108749578085	0.82562059327
1	24685	15567.747884460592	0.908652177174
1	24690	15571.28652626445	0.772288223263
1	24700	15583.478362732411	0.90611645509
1	24715	15591.492835775353	0.498385685177
1	24734	15609.807979148125	0.942984384741
1	24737	15610.691202452324	2.489994420251
1	24740	15611.322154434222	2.148088639672
1	24752	15613.884494816284	0.725791763561
1	24760	15615.497713133237	0.945818075771
1	24767	15618.812669753448	0.91068942165
1	24790	15623.81125703734	0.75344349239
1	24795	15624.473278566049	0.532518835319
1	24820	15651.172036136759	0.832342320262
1	24840	15664.850115864934	0.546341427229
1	24860	15678.911952574276	0.653467687126
1	24865	15680.046767116675	0.607668045908
1	24870	15686.225322004172	0.663235567044
1	24900	15697.979671284662	1.565209034768
1	24905	15702.990617582421	0.421386189992
1	24915	15706.644858166446	1.411540145383
1	24925	15711.976253132431	2.622465312209
1	24930	15720.652457665873	0.996912615094
1	24935	15724.503702782117	0.896618466824
1	24970	15769.52361300471	0.859396521095
1	24977	15779.197134003007	0.935785130737
1	24980	15780.030323325201	0.858046072649
1	24985	15782.541185988792	0.840226688329
1	24990	15783.584311711189	0.790582640283
1	25015	15817.109411050841	0.633598256603
1	25020	15818.570663292902	0.729773859913
1	25040	15844.848319806087	0.804026208119
1	25050	15858.068903862552	0.836917095678
1	25060	15864.406464427756	0.599612787599
1	25065	15865.904175720206	0.863868608559
1	25070	15870.824875724432	0.591090121819
1	25085	15881.746648893107	0.937648612633
1	25095	15883.263845045675	1.302975464113
1	25105	15891.711639079228	0.680304055009
1	25115	15900.515818872401	0.452865857445
1	25135	15909.139330523707	2.37340189488
1	25147	15916.164962994038	0.705420207139
1	25150	15916.905033209651	0.774581227473
1	25170	15933.223864533385	4.407198570084
1	25175	15934.268659545573	0.673649123544
1	25190	15949.695135824001	0.562045637378
1	25215	15964.164270486227	4.167452538698
1	25220	15965.609910338781	0.795216013864
1	25225	15973.789313456954	0.490473303385
1	25242	15977.018588203969	0.55778035729
1	25245	15977.784189786189	2.300782296535
1	25250	15982.487562438474	0.671990922838
1	25265	15991.44246639773	0.494807781791
1	25270	15994.89240045998	0.632039716979
1	25280	16005.93193314142	3.14771561464
1	25285	16010.107011122596	0.521039560204
1	25307	16016.649830036917	0.972018607287
1	25312	16017.060765491081	0.814387144696
1	25320	16019.594621992846	5.734455867156
1	25325	16022.522500783823	0.645087784436
1	25330	16030.807510757045	0.685354962759
1	25335	16038.76530900239	0.418580638478
1	25350	16047.874172185303	0.79563278947
1	25362	16053.702005945577	0.558985133935
1	25377	16078.177663239178	0.68317474341
1	25380	16078.914653030636	1.270782867961
1	25390	16085.424635379237	2.320736073411
1	25397	16089.123232270284	0.950880663143
1	25400	16090.069747847524	1.799049122717
1	25442	16103.056166400245	3.218249143105
1	25460	16110.074113863849	1.828874166671
1	25475	16117.528367870135	0.793307431741
1	25487	16122.279504876936	0.789931411052
1	25490	16123.073500311494	1.104940600631
1	25500	16128.145781537343	0.577606300032
1	25510	16138.234434231817	0.858880615234
1	25515	16150.058055295047	0.694486812269
1	25542	16156.112945358343	1.903132526111
1	25550	16157.434924042216	3.944470682202
1	25555	16164.218298458652	0.610890932521
1	25562	16168.990501614029	0.918526825355
1	25567	16169.973241421182	1.185978060911
1	25570	16170.578573728793	0.863322822891
1	25605	16183.66071135419	0.704176180298
1	25610	16188.698805103387	0.548490413511
1	25620	16196.794041084022	0.69308368545
1	25632	16203.61485929594	0.921899468336
1	25640	16205.936359346323	3.95047305195
1	25650	16215.098167622444	1.35093303382
1	25655	16219.771387551314	0.762176354928
1	25670	16230.211802545157	0.941848174389
1	25682	16243.32276789387	1.091545596482
1	25710	16248.658894264754	0.742096990673
1	25735	16256.204264247069	1.774594568534
1	25745	16260.126663656417	0.416427412909
1	25750	16262.992780542585	0.854079250013
1	25775	16297.585832257647	0.656314898655
1	25780	16300.916357437775	0.880845504673
1	25785	16302.297220646259	0.556248709792
1	25790	16312.067675290473	0.770406892663
1	25795	16324.804040989081	0.868115829676
1	25810	16354.756488357437	0.411747457739
1	25825	16359.011143810133	1.854717486304
1	25832	16360.290966819639	0.972202362912
1	25835	16360.760285868815	1.167974102011
1	25840	16361.766359713581	0.662253324082
1	25847	16367.524496172401	0.915593687166
1	25855	16369.175392959213	1.959036693089
1	25860	16371.140010661038	0.676387285674
1	25865	16381.278323128247	0.457297415612
1	25875	16391.7537126387	0.896165214293
1	25880	16396.257758758819	0.539338987088
1	25885	16397.235654098579	0.622007379355
1	25905	16414.849890652064	0.803997778241
1	25920	16420.003752214754	1.370148007272
1	25925	16421.449711566801	0.842799580283
1	25930	16423.443576191632	0.933958946634
1	25935	16426.446635689752	0.463051182823
1	25955	16435.390810270726	1.878779301778
1	25960	16455.015472539759	0.5916656096
1	25965	16456.490931214266	0.494234719314
1	25990	16469.598814541498	1.577375606038
1	25995	16472.209883654487	0.524844603101
1	26000	16474.336737430914	0.932190092793
1	26005	16475.514395406988	0.632541438006
1	26010	16478.555995023981	0.442029208038
1	26020	16480.22331288872	0.991263358139
1	26030	16487.495383292898	1.083353437594
1	26037	16490.708276018764	0.457041587913
1	26045	16491.820327691305	1.502543399787
1	26077	16503.989186476057	1.501857462931
1	26080	16504.729818091148	5.9520424355
1	26085	16511.099786911739	0.628483538097
1	26095	16514.736219745031	0.551015237486
1	26100	16518.692659755632	0.981505397707
1	26110	16527.078013112873	0.635401001945
1	26115	16529.746281826757	0.996554268757
1	26120	16541.269608992041	0.71510163052
1	26125	16542.347142196194	0.852009154065
1	26135	16556.118555918863	0.809760140534
1	26142	16557.778364413042	0.441041573556
1	26154	16559.399261059527	0.792633180972
1	26162	16560.648621579827	1.417319539366
1	26167	16561.596123305577	1.418068998841
1	26180	16569.99490521561	0.680256190151
1	26205	16610.737841665603	0.569892005529
1	26234	16632.256796720722	0.923674108833
1	26240	16633.760833549551	1.661834020257
1	26250	16644.589406111548	1.297779589629
1	26260	16647.225455666636	4.361600549039
1	26265	16648.704311144997	0.439960241271
1	26280	16656.1138414239	0.825697952928
1	26290	16660.614739896897	0.467714189924
1	26295	16668.508540167404	0.816653812909
1	26310	16677.157531246645	2.951222042314
1	26315	16678.941788350281	0.690433380473
1	26320	16680.77163715245	5.299585664485
1	26330	16688.121192092245	1.410950012184
1	26335	16690.560337307058	0.683617740823
1	26375	16704.366939705651	3.043332197738
1	26380	16707.792821523781	0.8081472422
1	26395	16713.054336283959	2.132180394978
1	26400	16721.347186929784	0.818424868817
1	26410	16738.970856837978	0.502828024281
1	26420	16756.678802054516	0.532031079661
1	26425	16757.55587172863	0.786500704708
1	26435	16774.249603692014	0.744376673875
1	26440	16780.268895083857	0.787290882645
1	26460	16793.637600982847	2.380994145044
1	26492	16813.800131236961	0.908472590847
1	26505	16838.869745481625	0.837604201213
1	26510	16843.714791275737	0.804215076286
1	26517	16849.090414871561	0.908589965571
1	26532	16851.951897139316	3.53783300351
1	26537	16852.748954058839	2.53169546506
1	26550	16858.552445309237	0.866194334254
1	26585	16875.714030469221	1.8962617682
1	26590	16878.013476876805	0.513904800266
1	26595	16878.612546375764	0.595595411118
1	26600	16881.296404551454	0.713087557955
1	26617	16887.388775380301	0.752257326106
1	26650	16901.389716928182	4.104110800317
1	26655	16907.639878176108	0.406112365983
1	26670	16911.615398485587	0.502060196269
1	26682	16919.119159292538	0.761119564297
1	26695	16931.006966902112	0.734449582081
1	26705	16933.231669548805	0.886065083416
1	26710	16942.516211124082	0.584641205519
1	26715	16943.623613213338	0.713659334648
1	26720	16951.60267881188	0.744938099477
1	26725	16954.481076751884	0.42915315805
1	26765	16973.108296817638	0.847416606219
1	26770	16973.665155624237	0.452993200626
1	26782	16976.337936190535	0.93309099176
1	26785	16977.228846067768	1.726264876809
1	26797	16981.036335163283	1.012763669996
1	26810	16988.105917305302	2.291558742466
1	26815	16992.812845976059	0.889524764242
1	26820	17001.410007214019	0.439301817212
1	26825	17002.45678451724	0.889231319679
1	26840	17010.203829575434	1.747539509929
1	26852	17014.074087960419	2.247361325563
1	26855	17014.546180938563	0.802297773804
1	26862	17022.02970231399	0.864796266612
1	26865	17022.915970763332	0.938627290362
1	26870	17026.390239438313	0.733501350088
1	26900	17041.492999969848	0.523075998621
1	26910	17046.862595718075	1.857837865392
1	26929	17050.497168995395	0.964905629959
1	26964	17055.919397280367	7.605351543712
1	26975	17058.108972710512	10.211835831812
1	26980	17058.793845054294	3.280523926549
1	26995	17062.37522378763	1.533877694525
1	27000	17064.782227234765	0.945888882317
1	27012	17069.938550066975	0.940221367124
1	27025	17077.579929682952	0.82956297393
1	27055	17083.313267043495	1.910133321753
1	27060	17086.824798504215	0.60144888931
1	27070	17114.79077923232	0.808693554811
1	27085	17121.617866773668	1.628414282118
1	27095	17125.73477820965	1.34413529142
1	27110	17136.009422153442	1.028408658639
1	27117	17137.689209878225	0.921774311038
1	27160	17156.87326755997	0.684397354629
1	27170	17164.071692749493	0.790234212112
1	27185	17170.079458839959	3.085025904675
1	27210	17186.610498478674	1.174068428264
1	27215	17191.849152918337	0.901624271274
1	27230	17205.581236612245	0.985788158793
1	27235	17206.645641369734	0.899592295103
1	27240	17217.62034708018	0.816318180412
1	27247	17226.251531386641	0.964895374421
1	27250	17226.964315896048	1.007531397219
1	27267	17238.326618375993	0.625825333316
1	27270	17239.306170415171	1.326934726117
1	27275	17240.925502901302	4.340867479519
1	27295	17261.650354572703	0.955319527537
1	27300	17265.297983042888	0.906813909858
1	27320	17286.331283374542	3.257917435331
1	27332	17302.282241289017	0.837083023833
1	27337	17302.833727609857	1.162791816829
1	27345	17310.402206747934	0.503732374916
1	27350	17315.539226923358	0.862992991647
1	27355	17316.130232415902	0.567993022362
1	27362	17318.091118211438	0.81952357511
1	27365	17318.878275507082	1.319216060495
1	27370	17327.940392389219	0.772548248759
1	27375	17330.076850591979	0.546884768456
1	27392	17332.791218168056	1.259087788488
1	27395	17333.454060622864	3.080513274861
1	27405	17340.212094752481	1.493040620444
1	27410	17348.82411858153	0.526199961174
1	27442	17367.79524020238	0.816856658713
1	27459	17371.831189909402	0.818158481596
1	27467	17373.159560073318	1.509228343398
1	27474	17373.981643581541	8.996938790213
1	27490	17385.172872336595	0.578790589189
1	27500	17397.864291547704	1.164306914675
1	27505	17404.102519591551	0.817419345677
1	27515	17408.643616820746	0.915024123015
1	27545	17431.090397311812	0.921732808044
1	27550	17432.516636743226	0.623663811479
1	27555	17435.683180569121	0.827791908104
1	27560	17437.721067363147	0.513731579157
1	27565	17442.670831391124	0.914669123013
1	27570	17456.47432930842	0.453527969541
1	27575	17458.949355058887	0.666744719818
1	27585	17468.314269357098	1.310900244892
1	27590	17471.544904451534	0.490938375238
1	27595	17480.374637549113	0.837065602187
1	27600	17481.975366506606	0.434871759964
1	27615	17489.907306037801	0.657079129573
1	27630	17497.280149188867	0.50704383743
1	27645	17503.075280984368	7.562036017764
1	27665	17518.516238762383	0.975170919811
1	27675	17525.223235168473	1.682116850722
1	27702	17540.784803484776	0.815775307734
1	27705	17541.567358448659	1.411723683848
1	27717	17545.961390385158	0.892404807126
1	27735	17548.31337814162	1.754678127308
1	27752	17562.871538326319	0.612917862926
1	27777	17571.649271832265	0.410356923752
1	27780	17572.087045850789	3.920256683591
1	27785	17583.503160328159	0.613010713318
1	27790	17585.543013874784	0.607782980101
1	27795	17590.917519088625	0.632192726526
1	27812	17613.384373056113	1.261272714798
1	27820	17615.200280989443	1.724771981068
1	27830	17622.599297243324	0.831071302714
1	27840	17634.371052705732	0.580461390968
1	27850	17638.027729675787	1.563741296989
1	27875	17644.136447015042	5.083700888036
1	27915	17663.831775045204	0.645311977816
1	27925	17665.895996078499	3.44308465084
1	27955	17687.034360510311	0.693997965427
1	27960	17693.956608234321	0.401067125658
1	27967	17694.490534269423	0.530981698632
1	27987	17697.438058726354	3.307044738186
1	27990	17698.40050132764	2.93423937773
1	28000	17713.178079960249	0.621902090777
1	28005	17718.894464913956	0.465112012718
1	28029	17731.904145809135	0.805728105782
1	28032	17732.564475276612	1.341702231303
1	28040	17734.874123550646	3.265037442226
1	28050	17743.405799932993	0.698281637626
1	28085	17752.755531336252	2.726518794305
1	28110	17758.79589392764	4.2320523449
1	28115	17760.97374022488	9.383318753064
1	28157	17781.790916898354	3.930663561369
1	28160	17782.368364087232	2.46245890911
1	28177	17794.043127838697	1.932572796975
1	28190	17795.996105616128	0.469756383635
1	28195	17798.310995063417	4.810598463541
1	28212	17807.858589182057	1.318863344527
1	28222	17809.698509255622	1.84474195252
1	28240	17812.517267474218	3.681925906572
1	28247	17823.562053017629	0.51116766925
1	28260	17832.464061977675	0.734053263487
1	28297	17860.824642357905	0.743446415337
1	28312	17866.404604576982	1.015078099569
1	28325	17870.429636766117	1.938245996318
1	28340	17875.830697063469	2.176716110716
1	28360	17888.535639762055	0.783203682257
1	28370	17893.706573211861	1.355517902377
1	28375	17896.257028179835	0.435339079006
1	28380	17898.650938832852	0.520065077348
1	28385	17904.606809364506	0.74703275552
1	28397	17909.416626196665	1.120135814511
1	28410	17925.67580142301	0.405518360622
1	28430	17938.40570434948	4.889411778726
1	28440	17942.223802216853	3.44641773996
1	28477	17952.772534253818	6.133476396871
1	28487	17959.223154973717	0.491153267119
1	28497	17960.676440742857	1.238771030896
1	28500	17961.644277164352	1.394944621354
1	28505	17963.478818911509	4.426116306035
1	28515	17971.702068890269	2.176940863794
1	28549	17983.988926514994	0.804192868713
1	28565	17986.762273594143	3.498761372396
1	28570	17989.146967700705	0.89744267026
1	28577	17991.858537968362	0.719538573083
1	28585	18002.123644137963	0.426143307285
1	28590	18018.868022938032	0.774721929803
1	28620	18047.162083576171	1.109673346453
1	28627	18049.198542389465	3.384540997154
1	28635	18052.393733998506	0.651099502761
1	28640	18053.681475259229	0.981632462749
1	28645	18059.825079686014	0.956655838573
1	28660	18062.420923571975	2.204763490334
1	28665	18074.693045019158	0.550620366028
1	28680	18086.279534199249	0.422045504348
1	28697	18090.534446126087	0.963211414311
1	28700	18091.349227503552	1.100710340889
1	28715	18093.191560946068	1.796921298187
1	28725	18101.694292877101	0.453344201902
1	28730	18102.657245540313	0.959873190336
1	28735	18106.020368577368	0.799690718437
1	28750	18112.242081195926	2.480390900366
1	28755	18112.856793904305	0.445605747681
1	28765	18120.219572897375	0.502736517508
1	28790	18132.931923489002	1.700193976258
1	28825	18151.149985594394	1.272288789881
1	28830	18152.825505445892	0.640610353369
1	28835	18157.391493501865	0.48602363877
1	28845	18160.179667350997	0.693289969675
1	28855	18163.021008640424	5.034063705841
1	28860	18165.080384003449	0.498549143458
1	28875	18180.628944456238	0.500688786572
1	28885	18202.881255372109	0.622928864555
1	28890	18207.053257197656	0.415492824279
1	28900	18223.377158273036	0.683476094203
1	28915	18235.704622211538	1.10332511785
1	28920	18237.354597931108	0.764180207159
1	28945	18262.372012849969	3.882534762247
1	28950	18264.498523678814	0.584548023762
1	28985	18285.719342025137	0.540966047486
1	28995	18294.246838580909	0.668798480555
1	29020	18313.019018011586	0.80051489948
1	29035	18319.690732640427	1.547587395593
1	29045	18327.763607405723	1.03191875346
1	29050	18330.530594406948	0.76224503261
1	29060	18335.33252906666	1.98105483397
1	29065	18350.859633950837	0.697060186183
1	29070	18351.856125809108	0.668182982877
1	29095	18361.376504593117	2.366332450185
1	29100	18365.348629668659	0.760149641335
1	29130	18378.325059930154	2.719084460602
1	29135	18386.830408566176	0.42016944387
1	29140	18389.19284396357	0.784516561683
1	29155	18397.518441797191	0.81818509805
1	29160	18414.866944561783	0.94639220247
1	29165	18416.849548139262	0.870445421804
1	29175	18419.745249182924	0.664911260922
1	29187	18433.652716945588	0.569955948135
1	29200	18436.027614167836	0.521403976576
1	29205	18436.866207355341	0.82442881586
1	29215	18443.391729161552	0.495096401451
1	29220	18447.609614596323	0.824247393897
1	29230	18450.743668185991	0.929106431967
1	29240	18460.423367980763	0.818853491824
1	29247	18468.046663399705	0.724869126687
1	29250	18468.771519628738	1.135637878644
1	29255	18472.525877753795	0.835417604912
1	29260	18484.475136256057	0.891299442109
1	29280	18494.791314539491	1.618024026945
1	29285	18498.939395144957	0.939437163807
1	29302	18504.66526007357	1.18086610194
1	29305	18505.627759595243	3.169270159106
1	29310	18509.065646131165	0.902460276289
1	29315	18512.272297245304	0.815965175023
1	29325	18520.644962072564	0.480383568443
1	29330	18522.836546466902	0.780251516588
1	29340	18540.181931496233	0.551546219038
1	29345	18542.075136333041	0.621383046731
1	29350	18544.537033713642	0.913777080923
1	29365	18551.283479582278	1.000092789531
1	29370	18552.93243693735	0.860142741818
1	29375	18560.101315536548	0.79063233505
1	29380	18564.570652732338	0.862664641906
1	29385	18565.508184844394	0.725525520928
1	29405	18573.136631893821	1.778293195612
1	29410	18583.483450419855	0.683087878255
1	29415	18589.947866455925	0.797398956632
1	29425	18599.595701345602	0.737838330492
1	29432	18606.413165623438	0.690291158855
1	29435	18607.003956060926	0.796087386493
1	29467	18615.342922150863	1.099692041426
1	29472	18615.887618908852	4.801691189418
1	29475	18616.52391961674	6.846137799573
1	29480	18621.185498644109	0.45744675668
1	29490	18623.692690597164	0.495001417445
1	29495	18625.302351840386	0.413368695648
1	29500	18636.093295211125	0.51610215418
1	29515	18659.157497605541	0.678615219006
1	29520	18662.153787555812	0.947512299102
1	29540	18668.698758046191	0.933835707318
1	29545	18669.774841125415	2.502994027465
1	29565	18675.280727535774	2.455739597841
1	29572	18681.628201387407	0.572598187486
1	29585	18687.374617763996	0.866971767088
1	29600	18697.962404384937	0.818740144325
1	29605	18710.541118849334	0.617983435234
1	29612	18717.911888529643	0.444757622853
1	29615	18718.340052171334	0.714758961117
1	29630	18728.8293397039	2.387925847374
1	29635	18733.636790532844	0.833082383638
1	29655	18744.164663802299	0.696092293039
1	29670	18746.651118437246	1.515436916911
1	29677	18748.123515292187	6.58146082217
1	29680	18748.559906988195	4.184851815321
1	29692	18751.234957248172	1.020390012248
1	29695	18751.799964857348	0.953433203991
1	29720	18759.059652300334	2.787784409243
1	29732	18769.605937404363	3.650077889671
1	29735	18770.407406409774	1.48635989234
1	29740	18773.449139625435	0.992432837654
1	29745	18775.365613538648	0.92166802627
1	29750	18780.639181611876	0.9190564021
1	29755	18785.856054160485	0.451308016758
1	29770	18788.837222944748	1.740754963252
1	29785	18794.725496537136	1.662744768942
1	29790	18795.839638366203	0.451741590677
1	29817	18807.567883846097	6.199174696165
1	29820	18808.181620464081	1.849180211127
1	29847	18820.453902598424	0.97038901737
1	29857	18822.878294557642	5.910464104168
1	29867	18824.411773357524	1.061440273011
1	29870	18825.38794660222	3.034878039913
1	29884	18833.781963020908	0.810943950257
1	29889	18834.6433677179	1.420940691163
1	29892	18835.047393193115	1.581124374144
1	29900	18837.457405350669	5.191442456483
1	29905	18844.120073193618	0.82811139538
1	29910	18846.022165069171	0.780335230567
1	29920	18855.228269389746	0.797753691487
1	29940	18866.510165874695	2.027656635538
1	29955	18874.029278956337	2.088108951012
1	29970	18882.942349105206	1.010978235062
1	29997	18891.626023892139	2.23090484615
1	30005	18893.469393048727	1.628823393506
1	30012	18896.675746668889	0.592166543566
1	30035	18908.202637752622	0.707317659212
1	30042	18913.725211090041	0.872108196514
1	30045	18914.190401758818	0.822491242701
1	30052	18921.80669186299	0.946279964177
1	30067	18928.742909632135	0.610893057613
1	30079	18930.576692136028	1.360446602382
1	30087	18931.785926292162	2.173897534472
1	30102	18934.699489737941	5.387619397032
1	30105	18935.188085233081	2.348229284247
1	30117	18937.928658124986	1.316182940137
1	30120	18938.811642525107	2.415567712811
1	30130	18942.061471444486	1.387914251847
1	30135	18952.228193436097	0.892419204721
1	30157	18957.359555227905	3.270961169027
1	30177	18961.612619633291	7.707930869472
1	30180	18962.598129701492	1.322999388232
1	30185	18963.462068979327	0.847844316717
1	30190	18964.46134131676	0.721151199564
1	30205	18990.721738844626	0.975684741372
1	30212	18992.078874094638	0.619400603836
1	30230	19001.325191219821	0.835524109704
1	30235	19005.649607582361	0.692092923122
1	30240	19012.030372619989	0.580339115206
1	30245	19016.590105156496	0.463517551357
1	30250	19022.773137768107	0.857975220215
1	30265	19050.801607607661	0.876186623424
1	30272	19053.631263196295	0.725555965817
1	30275	19054.430824650278	1.079711362578
1	30280	19065.102581648366	0.446149014449
1	30300	19082.687859102829	0.437651163572
1	30305	19088.003499646594	0.622722918401
1	30310	19091.175836622504	0.435538865998
1	30325	19100.666127992453	0.460550023615
1	30345	19111.941497983841	0.869635386718
1	30350	19121.08770212076	0.894354048464
1	30360	19124.254272637382	1.579579332923
1	30365	19125.898319655076	0.518488886021
1	30375	19132.053237608249	0.475042920932
1	30389	19134.429013540553	0.629991480336
1	30395	19135.776304724491	1.468456405525
1	30420	19155.550754406649	0.449626423419
1	30427	19158.093098161344	0.527839841135
1	30435	19159.448421809984	1.604668976941
1	30440	19166.031027622656	0.8278853775
1	30452	19168.905851304803	0.502484388743
1	30455	19169.722056000533	0.916207910139
1	30467	19178.153756346169	1.857290978377
1	30475	19183.433419854265	0.75662827976
1	30492	19192.527347096494	2.759079835432
1	30495	19193.467367883279	1.237951435294
1	30500	19197.864698626958	0.583818038227
1	30515	19207.937985519506	0.945457879826
1	30524	19212.898887636136	0.5894733252
1	30527	19213.29938742695	0.607259657688
1	30537	19215.017827981893	1.605330597591
1	30540	19215.836317337161	3.096951973594
1	30550	19218.186310703417	1.097838671495
1	30555	19220.200076002522	0.783018105803
1	30582	19250.432025556674	0.577824117616
1	30590	19252.528800242044	0.694985413272
1	30595	19255.710538249998	0.535450850194
1	30602	19257.233547069384	0.605484210327
1	30605	19258.05676987201	1.263103483784
1	30610	19268.574063807251	0.679429595079
1	30620	19280.76915362428	0.892501000082
1	30625	19291.867268026618	0.412838894548
1	30634	19294.005584471262	0.653063924704
1	30647	19296.270026208856	2.838234253336
1	30650	19296.676786258048	2.834867636892
1	30665	19314.124073487573	0.90451403521
1	30690	19332.105533242433	2.700236467742
1	30695	19339.36972511844	0.666909014061
1	30715	19348.399182864461	3.977376172564
1	30720	19349.587070868831	0.996043576021
1	30725	19351.356818576916	0.876971986238
1	30732	19354.744828523565	0.471526922518
1	30740	19366.461466002916	0.871706472291
1	30752	19371.821232600508	1.434210405633
1	30765	19374.222765412287	4.095458968324
1	30770	19376.477522212967	0.861777092936
1	30775	19378.992747934897	0.992796129454
1	30782	19383.33127992683	0.561761465436
1	30785	19384.124029303891	0.993988164027
1	30810	19390.379225948903	1.045050175233
1	30815	19392.544930102595	0.661250940664
1	30835	19396.847186197911	1.34741383916
1	30840	19397.506738684053	0.402509523649
1	30845	19401.128359262544	0.498485588934
1	30850	19405.845576665445	0.782562273042
1	30865	19417.273782804924	0.899649718544
1	30875	19422.170126898958	1.493203164105
1	30880	19424.507790053955	0.919208059786
1	30905	19440.236586045218	0.810861638421
1	30932	19452.74732983123	3.268618096085
1	30935	19453.459902766454	2.026648873037
1	30945	19456.403027876102	1.761714512454
1	30950	19459.337069437335	0.759124300303
1	30955	19459.98861576511	0.426633200888
1	30975	19477.318731600432	3.508789489222
1	30987	19479.76118306887	1.026815796514
1	31005	19485.397045347963	0.595721376874
1	31010	19490.330977535003	0.438862550026
1	31015	19494.679906790675	0.664454384614
1	31020	19496.979223115362	0.725541813252
1	31032	19506.876593235918	0.469851284381
1	31040	19508.589218615461	0.565319017274
1	31055	19510.707623119134	2.095820632549
1	31067	19521.15975485853	0.703433024278
1	31070	19521.953794786884	1.002752360507
1	31080	19529.730337741825	0.924842814729
1	31087	19552.344267439206	0.482154743373
1	31090	19552.910594881155	0.636805870758
1	31135	19604.371376967888	0.717687174398
1	31165	19618.481182549217	2.696933643929
1	31170	19623.717541514946	0.855253801914
1	31187	19634.576904664212	0.670824186923
1	31195	19636.130155980037	2.046744467176
1	31205	19642.354413078238	3.197759477982
1	31215	19649.172289997372	0.564968034858
1	31237	19652.80310869116	3.339880734208
1	31244	19653.236798514627	1.000431386137
1	31247	19654.093943030821	1.081332445223
1	31257	19657.63982035798	0.773705990752
1	31262	19658.052742467783	5.009469982334
1	31270	19659.575644737326	0.790693597542
1	31275	19661.023273749643	0.427731013531
1	31280	19661.549872050216	0.512588900002
1	31290	19674.931958980134	0.990798130445
1	31297	19676.658753470032	0.429449911229
1	31305	19681.570310622619	0.82827029014
1	31320	19689.479672948027	0.970117957657
1	31325	19697.020007282812	0.783967876015
1	31330	19701.039092572023	0.939718620293
1	31340	19705.685233864888	0.765555683477
1	31345	19708.002199558089	0.49429325629
1	31350	19710.67016450815	0.816242063092
1	31355	19718.514268508675	0.985449992865
1	31360	19722.085408689001	0.988378958544
1	31367	19742.411947193857	0.968702103756
1	31375	19744.131216189148	1.357251013902
1	31380	19744.871755776983	0.688741536206
1	31387	19745.352423850443	0.41147932359
1	31390	19746.009299500795	0.679633643181
1	31410	19764.799521061303	3.689449688848
1	31424	19780.965600241514	1.794302519074
1	31430	19782.633779600755	3.193972815457
1	31435	19783.76282464477	0.969625478098
1	31445	19787.208506489564	0.975142862581
1	31480	19800.598609929065	0.51324474914
1	31485	19808.285890879376	0.837265280494
1	31492	19810.450363243708	0.801135291252
1	31505	19813.597260772519	0.934628983433
1	31510	19819.948466906496	0.460977397021
1	31515	19821.146613910421	0.520798344398
1	31520	19824.179507696573	0.544477757299
1	31542	19839.733011071203	0.851930552488
1	31550	19841.558876134003	2.60281409949
1	31555	19843.568122565886	0.48662305926
1	31565	19854.173229589885	0.940530148474
1	31577	19856.455911475178	0.622274403233
1	31580	19857.181350792842	1.830314119254
1	31585	19858.114043471511	0.921926730778
1	31610	19864.458805156337	3.585637773815
1	31617	19868.688923921251	0.999964241823
1	31620	19869.365404147144	0.701249737257
1	31630	19871.05166916704	1.367584702349
1	31635	19874.1848474468	0.67396824928
1	31647	19883.385257054384	0.787033777265
1	31652	19884.296050100246	1.545194696845
1	31665	19887.421037486354	0.692338531464
1	31670	19890.068545351743	0.683731190301
1	31675	19898.911164069121	0.485697018215
1	31690	19907.357810669866	1.026579846028
1	31707	19912.932872394491	0.771482429195
1	31710	19913.788816364128	1.232105702039
1	31715	19922.473632912623	0.741196192009
1	31730	19937.119786713173	1.002758122716
1	31737	19939.396014103051	5.080853730182
1	31740	19939.966744620483	4.111081654016
1	31745	19945.515576530329	0.662284670165
1	31750	19949.638918023656	0.716614932986
1	31755	19963.340204459662	0.815673829569
1	31760	19968.93538600064	0.920396756846
1	31772	19979.052469771477	1.183844212796
1	31775	19979.729963843739	1.216936304843
1	31790	19988.232422501577	0.947599054174
1	31800	19996.525467017639	0.652835725294
1	31805	19999.732211886924	0.572888293676
1	31810	20004.157179303114	0.871351390705
1	31815	20007.8404378778	0.511726091197
1	31822	20012.562077393492	0.810643617576
1	31825	20013.166484538622	0.805771723839
1	31840	20020.11375416773	2.971084840905
1	31845	20026.866580709739	0.904272966785
1	31854	20028.894376369994	0.708451378951
1	31860	20030.111659596916	1.569968462527
1	31875	20050.435731457898	0.495394138806
1	31895	20063.295509878444	2.418868081785
1	31900	20068.246128003058	0.776131296391
1	31905	20069.067280261898	0.419162060507
1	31917	20074.221270483787	0.986912604492
1	31930	20078.189471525268	5.224995829192
1	31935	20083.994960273324	0.890279750619
1	31957	20088.435922353464	0.635861615604
1	31960	20088.985471465747	0.621187772351
1	31972	20098.770732382977	1.160642943616
1	31982	20100.170063348826	1.055630672429
1	31987	20101.099030786486	3.817464922648
1	31990	20101.792471943762	3.860340588694
1	31995	20103.06197210937	0.681073785573
1	32000	20105.482308980777	0.830952694174
1	32042	20122.605607551043	1.004502054874
1	32045	20123.351624118569	6.199140401939
1	32052	20125.236523664076	0.900224628393
1	32065	20130.851276605716	0.911359050777
1	32070	20135.001634403035	0.878128956398
1	32075	20152.911312504587	0.896486604819
1	32095	20157.766717477085	0.695304545684
1	32115	20160.83000528898	2.266453785159
1	32120	20162.321751171349	0.455459119519
1	32125	20164.077858509415	0.879002418462
1	32144	20167.102161192033	1.2513218467
1	32150	20168.705922097737	2.793884244876
1	32165	20189.029541152891	0.582693177601
1	32172	20197.978629044287	0.871434282698
1	32175	20198.516405819805	0.814992761973
1	32185	20202.792780583819	1.959588524394
1	32195	20214.912364526204	0.584462571796
1	32210	20219.310136585049	2.406601535072
1	32225	20223.706494325792	3.435650113991
1	32245	20239.038175328143	3.897745989259
1	32255	20241.209075269864	1.658847638939
1	32262	20250.728164744686	0.975243314449
1	32265	20251.34689801939	1.124452926137
1	32300	20261.782494671771	0.695167217311
1	32335	20281.382314954674	0.762693220656
1	32345	20284.916016027411	0.731436010869
1	32350	20288.492154044919	0.600785579439
1	32355	20290.02405800756	0.620196887432
1	32370	20315.507447468983	2.258753642845
1	32382	20321.482860731563	0.952742053336
1	32385	20322.093474334428	0.687494482796
1	32390	20324.020463806128	0.885408911016
1	32395	20336.250947220079	0.677794203348
1	32400	20339.312602157983	0.659837995842
1	32410	20342.457666094129	2.068556661558
1	32425	20345.017898813762	1.407769202717
1	32450	20350.674613761095	1.65664209253
1	32460	20361.613484260892	0.999193176441
1	32482	20372.563546121526	2.324384893465
1	32485	20373.363186648288	0.958328676993
1	32495	20389.599294064354	0.54816927067
1	32519	20395.246216340749	1.347268740034
1	32522	20396.181028836839	3.014807432619
1	32525	20396.94825620932	3.066660104785
1	32532	20398.261804789198	0.874179524183
1	32540	20401.593672195654	0.892242570221
1	32545	20402.522296814253	0.75741753038
1	32550	20408.151162532391	0.703888213728
1	32575	20417.994205956212	3.497009398219
1	32580	20423.013227308786	0.727808348741
1	32587	20427.950747250235	0.956490270421
1	32590	20428.681770193093	0.906218694999
1	32600	20438.256519828667	0.872611127468
1	32614	20444.01154231655	0.48884563488
1	32624	20445.585190976109	2.035461222492
1	32632	20447.108478090843	2.178577006448
1	32645	20449.549096697632	0.564634558186
1	32660	20462.462772758537	0.953981130803
1	32675	20470.797650846327	0.631623203866
1	32680	20476.185554126406	0.991862081457
1	32707	20489.410478108675	1.549487271692
1	32712	20490.061186676538	0.789772332651
1	32722	20491.737502312586	3.965017218329
1	32730	20494.374522553458	0.70967115094
1	32740	20497.128603098156	0.64427048699
1	32755	20510.579736826494	1.079714649619
1	32765	20516.92309586677	0.536154639488
1	32812	20533.771874195136	5.676227468322
1	32830	20543.303029235084	0.620607616892
1	32835	20547.482693978102	0.525811360637
1	32850	20553.0309458665	0.838561461214
1	32860	20557.925525920504	1.794563620314
1	32870	20560.696594543942	1.663783487314
1	32882	20564.220883147691	0.786898977263
1	32887	20565.198683697817	1.668339926578
1	32890	20566.087469367909	1.075683090287
1	32897	20573.824027325079	0.809155757679
1	32910	20579.351447915672	1.603186798478
1	32920	20593.406165859715	2.626276335837
1	32927	20596.087430746192	0.997139371419
1	32945	20601.372628309955	1.039799517428
1	32965	20609.344324433621	0.952030122699
1	32975	20615.687038659331	0.696293773176
1	32980	20616.473433975735	2.118217911277
1	32990	20621.771094217747	1.744699369155
1	33015	20659.142403747129	2.654648348513
1	33020	20663.768635524962	0.408433492389
1	33042	20683.674736193406	0.947751717409
1	33070	20697.558115579291	0.432998579787
1	33075	20699.315788240222	0.757648304012
1	33080	20705.183007950186	0.639453865308
1	33085	20706.635744557773	0.768109339382
1	33090	20708.867171105142	0.4754096549
1	33100	20715.738327669571	0.7190581189
1	33110	20718.058117201481	0.861900183
1	33115	20721.51764421837	0.626202036161
1	33120	20724.538878774146	0.999955042964
1	33125	20733.665744954906	0.664421415376
1	33130	20739.587555315915	0.706525254063
1	33135	20743.336526591127	0.895625692699
1	33140	20781.141940479067	0.991911927518
1	33147	20785.03950497342	0.640739370277
1	33160	20793.057762170993	1.510075461735
1	33165	20795.205485896556	0.97278400301
1	33170	20801.134032756596	0.637110561924
1	33200	20832.424442514256	0.73157427148
1	33205	20835.819982275352	0.914274643268
1	33227	20844.287651328416	1.173919909474
1	33235	20846.568573079363	0.666275840625
1	33272	20882.36040010165	0.44817689578
1	33275	20882.93137882344	0.843290155438
1	33290	20895.945797563417	0.678267171094
1	33297	20897.982417492819	0.469314334914
1	33300	20898.565639055678	0.743223556502
1	33305	20899.650666073473	0.583117155079
1	33340	20938.866727840117	0.682905698847
1	33350	20943.466313336224	1.608773479015
1	33362	20945.464978604149	1.51670429622
1	33365	20946.237755203051	2.384354841756
1	33385	20954.138442317125	0.914323547831
1	33397	20956.654886678351	2.079849886272
1	33400	20957.252636477608	0.941817197341
1	33437	20976.052107707196	2.948203519492
1	33445	20977.47172385355	2.948520032378
1	33455	20983.497643167986	2.246851990388
1	33470	20997.720767955862	0.568158683134
1	33480	21001.986829419947	3.112898295937
1	33492	21008.105720973358	0.765123273525
1	33535	21035.486981127108	1.334033284349
1	33540	21036.058943804975	0.436341790436
1	33545	21048.263134621548	0.799185051071
1	33562	21055.153527714713	3.698578283074
1	33577	21057.426566402305	4.571112316258
1	33582	21058.089944452204	0.767589976021
1	33590	21059.55306371494	1.290251545625
1	33599	21064.260974724738	0.41911535305
1	33602	21065.071935901892	1.137302926321
1	33605	21065.552408756883	1.375475475279
1	33610	21066.07163948294	0.490691024996
1	33615	21076.887327775838	0.468349585263
1	33630	21086.860450528581	1.299211612606
1	33635	21097.341420650782	0.833054516045
1	33650	21111.73057440527	0.503062551469
1	33655	21115.961574878824	0.851137412386
1	33660	21118.158208982172	0.982071630191
1	33682	21131.661685569866	2.391561059262
1	33685	21132.464095862864	3.381159767788
1	33700	21144.202837364844	0.672444923315
1	33710	21148.344557339718	0.4092753537
1	33715	21156.179187392813	0.957532804273
1	33730	21166.789168272704	0.769209407596
1	33770	21187.16694587861	5.135204335244
1	33775	21188.371117115034	0.970994172757
1	33790	21202.650115524933	0.405118078925
1	33810	21207.871722855544	3.093976434134
1	33815	21209.429145334558	4.317283456252
1	33824	21211.197057753781	0.793567980547
1	33832	21212.703244324101	1.56887450001
1	33835	21213.429729804143	1.396192547803
1	33849	21227.045859709772	0.629083895963
1	33855	21228.471184581349	1.674967545716
1	33882	21238.41956427374	0.996172437724
1	33900	21243.003412146355	4.124039228772
1	33912	21256.838989011916	1.296680271025
1	33930	21269.44241654184	0.756858475599
1	33940	21274.149224813981	0.885076902015
1	33950	21280.438537089715	2.125470631821
1	33955	21281.723095434059	0.970078345342
1	33965	21287.359049450323	3.070662363486
1	33999	21297.554944788575	0.700224566972
1	34007	21299.330324183967	2.004054755822
1	34010	21299.74322631271	2.08255550178
1	34015	21301.122993757567	9.745320606069
1	34020	21305.296606529401	0.751481366949
1	34040	21310.521829657501	2.307432217768
1	34045	21312.80267312875	0.908858359559
1	34080	21335.206120958047	0.535514098778
1	34102	21343.147093078936	0.838575142296
1	34110	21346.004646994412	0.491613272112
1	34127	21350.919755781583	0.648390668631
1	34140	21361.740309533121	0.441313919052
1	34150	21367.291689612159	0.624077071855
1	34155	21372.174967752981	0.62290581977
1	34180	21388.283736925956	1.589517460702
1	34185	21396.468296077974	0.722418829426
1	34190	21400.145846686257	0.655840901332
1	34205	21411.946669326739	0.76981465253
1	34235	21463.68243466627	0.525319582643
1	34240	21466.604879322675	0.940268465457
1	34245	21486.770118943354	0.865761166718
1	34252	21491.557571619049	0.854814818734
1	34255	21492.484829341945	1.264825770595
1	34270	21497.986683100426	2.635971606646
1	34275	21499.88375467479	0.724999328936
1	34280	21507.044810793432	0.41613547178
1	34295	21521.243255921801	1.631990020153
1	34310	21526.356015930054	0.86081537446
1	34315	21528.1317055845	0.511412367038
1	34330	21540.678072009266	0.522981236316
1	34342	21542.374404210227	7.095929358271
1	34350	21543.965840608023	1.038255958628
1	34370	21552.994374920919	1.80608169577
1	34375	21569.401847778237	0.632275477843
1	34392	21574.778826878773	0.405588024575
1	34420	21579.92873911001	6.072153767409
1	34425	21583.327469962644	0.453748626215
1	34435	21592.862877926228	0.926287793787
1	34470	21617.262202007773	1.881915134835
1	34477	21618.295744624905	0.500775549747
1	34480	21618.901997865349	0.712804166193
1	34485	21625.046818449659	0.971445443248
1	34490	21628.135286047982	0.752522212965
1	34495	21636.504422579067	0.624548885971
1	34500	21640.693673388413	0.475825712597
1	34515	21644.013957377322	2.630262147331
1	34532	21648.029131555646	2.853019051418
1	34545	21650.173562232187	1.483416444993
1	34555	21660.284407123832	1.682786250973
1	34565	21683.005926947493	0.641457270784
1	34575	21686.491518184977	0.857121727476
1	34580	21691.393679326088	0.974238014687
1	34585	21698.898480118334	0.518367066653
1	34597	21706.434258724729	0.964875288727
1	34600	21706.916717653096	1.206250172562
1	34610	21716.489849705469	0.691532205511
1	34615	21720.85841387848	0.750863496913
1	34627	21729.35161743743	0.776854915451
1	34632	21729.951049635109	0.805271189825
1	34635	21730.869909109004	1.350903447091
1	34640	21739.280622188766	0.455130193941
1	34645	21745.012295228855	0.904275393067
1	34650	21746.837839197859	0.916765632015
1	34655	21752.309348417638	0.963660043944
1	34660	21753.355528823667	0.46398985316
1	34675	21781.191639871365	0.680164870294
1	34680	21789.748679442642	0.677168322029
1	34685	21795.027757151231	0.425628206786
1	34700	21812.366392624797	0.47281275047
1	34705	21814.286441291865	0.805970996711
1	34710	21819.527658799219	0.988418474328
1	34725	21840.722427083272	0.964782838291
1	34745	21847.872493330177	1.663349081461
1	34752	21850.090676681216	0.462220783764
1	34755	21851.07801348449	1.027656596747
1	34765	21855.739471107654	0.564477331681
1	34785	21871.164807393818	1.879615362468
1	34810	21879.937210212486	2.641379734477
1	34815	21880.705915308601	2.765612653173
1	34820	21885.589300617072	0.585375577863
1	34830	21893.062147063294	0.515660041478
1	34845	21897.349018009454	1.854934568145
1	34857	21903.804268993507	2.761682426806
1	34860	21904.35532473207	1.225185398257
1	34870	21910.082020478695	1.630994217655
1	34875	21914.448569830176	0.486666927347
1	34880	21918.55766412274	0.41659008204
1	34887	21921.864948575628	0.55901035103
1	34890	21922.302356840587	0.738603627757
1	34905	21942.529179260342	3.043989465967
1	34910	21959.782031079077	0.806274759956
1	34920	21965.809369131056	0.786836192488
1	34935	21979.00577380284	2.355752526391
1	34955	21986.308164859139	2.466620740118
1	34965	22004.117537623383	0.577288742829
[...]
8	28228	17810.31564045694	1
8	28231	17811.084592356545	0
8	28245	17823.445984786543	1
8	28246	17823.562053017629	0
8	28265	17837.723022832726	1
8	28266	17838.460482144256	0
8	28295	17860.353928962556	1
8	28296	17860.824642357905	0
8	28310	17865.4533888207	1
8	28311	17866.404604576982	0
8	28330	17874.424311031376	1
8	28331	17874.633165205475	0
8	28395	17909.125422519719	1
8	28396	17909.416626196665	0
8	28465	17950.70525625222	1
8	28466	17951.363581471945	0
8	28475	17952.218488687338	1
8	28476	17952.772534253818	0
8	28520	17972.108155151734	1
8	28521	17972.444837213512	0
8	28525	17972.527020846411	1
8	28527	17972.886457542817	2
8	28528	17972.927167459409	1
8	28532	17973.268127024678	2
8	28533	17973.607288921503	1
8	28536	17974.585936441011	0
8	28547	17983.565171711922	1
8	28548	17983.988926514994	0
8	28555	17985.453367185499	1
8	28556	17985.706669234868	0
8	28575	17991.13970568047	1
8	28576	17991.858537968362	0
8	28625	18048.295782354632	1
8	28626	18049.198542389465	0
8	28705	18091.921709508958	1
8	28706	18091.930479361944	0
8	28800	18137.41535581841	1
8	28801	18137.805669694462	0
8	29005	18310.594175950862	1
8	29006	18310.720703453523	0
8	29010	18311.252647321602	1
8	29011	18311.508718311879	0
8	29075	18354.949777130389	1
8	29076	18355.267754474078	0
8	29080	18355.547327868095	1
8	29081	18355.88364734266	0
8	29110	18373.802667545807	1
8	29111	18374.459066799116	0
8	29145	18391.843423420948	1
8	29146	18391.940061248489	0
8	29185	18433.441578589377	1
8	29186	18433.652716945588	0
8	29265	18486.579339137263	1
8	29266	18487.253434304012	0
8	29455	18613.73577534331	1
8	29456	18614.242903434772	0
8	29525	18663.977708789926	1
8	29526	18664.040402642917	0
8	29552	18673.088316079274	1
8	29553	18673.522826050417	0
8	29557	18673.555495681759	1
8	29558	18674.005585344564	0
8	29570	18681.267329143691	1
8	29571	18681.628201387407	0
8	29700	18753.780355713939	1
8	29701	18754.601379120116	0
8	29760	18787.074958453345	1
8	29763	18787.756516831917	0
8	29845	18820.263066293927	1
8	29846	18820.453902598424	0
8	29980	18889.032166809951	1
8	29982	18889.217993692688	2
8	29985	18889.539994397958	1
8	29988	18890.197952405841	0
8	29995	18891.564068445365	1
8	29996	18891.626023892139	0
8	30010	18896.377856436234	1
8	30011	18896.675746668889	0
8	30050	18921.316412547117	1
8	30051	18921.80669186299	0
8	30055	18922.414525420834	1
8	30056	18922.461302338655	0
8	30065	18928.354204574041	1
8	30066	18928.742909632135	0
8	30210	18991.800484100054	1
8	30211	18992.078874094638	0
8	30330	19102.014198422603	1
8	30331	19102.554151065029	0
8	30385	19133.95688383639	1
8	30388	19134.429013540553	0
8	30465	19178.022311508041	1
8	30466	19178.153756346169	0
8	30505	19205.899903934195	1
8	30506	19206.1487806249	0
8	30580	19250.397928308371	1
8	30581	19250.432025556674	0
8	30655	19303.345353926654	1
8	30656	19304.007574477983	0
8	30675	19326.299706523922	1
8	30676	19327.163329206678	0
8	30700	19344.51225533571	1
8	30701	19345.343290431269	0
8	30730	19354.443846682274	1
8	30731	19354.744828523565	0
8	30915	19450.249515726321	1
8	30916	19450.445099501838	0
8	30922	19451.23811645487	1
8	30923	19451.266975794327	0
8	30985	19479.307075840289	1
8	30986	19479.76118306887	0
8	30990	19479.91647441739	1
8	30991	19480.379137111145	0
8	31030	19506.569835185262	1
8	31031	19506.876593235918	0
8	31110	19599.535942624532	1
8	31111	19600.1605887799	0
8	31175	19628.769692608444	1
8	31176	19628.861670453041	0
8	31220	19649.630518361277	1
8	31221	19649.977176602954	0
8	31260	19657.763448761082	1
8	31261	19658.052742467783	0
8	31295	19676.604689097372	1
8	31296	19676.658753470032	0
8	31365	19741.613176870636	1
8	31366	19742.411947193857	0
8	31400	19762.883708927002	1
8	31401	19763.458193921521	0
8	31422	19780.320486982429	1
8	31423	19780.965600241514	0
8	31455	19790.72533932317	1
8	31456	19791.129131501951	0
8	31470	19795.735807716215	1
8	31471	19796.564273387815	0
8	31490	19810.064346426187	1
8	31491	19810.450363243708	0
8	31592	19861.087002512002	1
8	31593	19861.344018787185	0
8	31650	19883.88466733224	1
8	31651	19884.296050100246	0
8	31850	20028.509059617628	1
8	31853	20028.894376369994	0
8	32050	20124.639750491463	1
8	32051	20125.236523664076	0
8	32105	20159.03785688827	1
8	32106	20159.340767547413	0
8	32130	20165.294307775159	1
8	32135	20165.932465423109	0
8	32142	20166.660611408896	1
8	32143	20167.102161192033	0
8	32270	20252.607267119941	1
8	32272	20252.628047931612	2
8	32273	20253.118193617679	1
8	32276	20253.641297393368	0
8	32280	20253.783516539703	1
8	32281	20254.398511770583	0
8	32415	20342.909775870409	1
8	32418	20343.653776901388	0
8	32440	20348.652970449981	1
8	32443	20349.378806987436	0
8	32470	20371.027252210607	1
8	32471	20371.492052912326	0
8	32530	20398.105201148996	1
8	32531	20398.261804789198	0
8	32612	20443.732435924032	1
8	32613	20444.01154231655	0
8	32622	20444.982160321191	1
8	32623	20445.585190976109	0
8	32630	20446.245926404863	1
8	32631	20447.108478090843	0
8	32710	20489.754979864971	1
8	32711	20490.061186676538	0
8	32720	20491.206710945249	1
8	32721	20491.737502312586	0
8	32790	20530.434453581549	1
8	32791	20530.855274660358	0
8	32797	20531.146342085597	1
8	32799	20531.345846084322	2
8	32800	20531.729077196572	1
8	32803	20532.425566254402	0
8	32810	20533.29817498498	1
8	32811	20533.771874195136	0
8	32895	20573.340273295732	1
8	32896	20573.824027325079	0
8	32925	20595.974721009514	1
8	32926	20596.087430746192	0
8	33040	20683.420671329454	1
8	33041	20683.674736193406	0
8	33050	20686.438526895435	1
8	33051	20686.550409816026	0
8	33145	20784.581712989586	1
8	33146	20785.03950497342	0
8	33225	20843.696179902619	1
8	33226	20844.287651328416	0
8	33370	20950.832888060735	1
8	33371	20951.478439135498	0
8	33405	20966.47595030325	1
8	33406	20967.112894229156	0
8	33410	20967.462608426394	1
8	33411	20967.993878507971	0
8	33490	21007.818705695882	1
8	33491	21008.105720973358	0
8	33500	21009.206386989554	1
8	33501	21009.762642297889	0
8	33520	21030.9761220702	1
8	33521	21031.603487651654	0
8	33580	21057.868464634661	1
8	33581	21058.089944452204	0
8	33667	21129.63481792128	1
8	33668	21129.723043246337	0
8	33672	21130.41599318988	1
8	33673	21130.618133758989	0
8	33795	21205.099401986891	1
8	33798	21205.702503602006	0
8	33820	21210.512794499529	1
8	33823	21211.197057753781	0
8	33845	21226.771811096668	1
8	33848	21227.045859709772	0
8	33880	21237.645998619452	1
8	33881	21238.41956427374	0
8	33890	21239.350306135691	1
8	33891	21239.9593154947	0
8	33910	21256.071548060007	1
8	33911	21256.838989011916	0
8	34085	21336.065790399782	1
8	34086	21336.527838059553	0
8	34100	21342.429728755685	1
8	34101	21343.147093078936	0
8	34125	21350.843517753557	1
8	34126	21350.919755781583	0
8	34340	21541.93275807145	1
8	34341	21542.374404210227	0
8	34390	21574.489800097729	1
8	34391	21574.778826878773	0
8	34460	21615.534322134843	1
8	34461	21615.891433748083	0
8	34530	21647.442075746187	1
8	34531	21648.029131555646	0
8	34795	21877.521046541455	1
8	34798	21878.134558645892	0
8	34835	21895.833249050625	1
8	34836	21896.040176072977	0
8	35035	22063.798403689767	1
8	35036	22064.222074586361	0
8	35045	22065.124879236985	1
8	35046	22065.645631960464	0
8	35052	22065.999571832613	1
8	35053	22066.313354253686	0
8	35057	22066.388199011397	1
8	35058	22066.747662087866	0
8	35255	22213.079163246618	1
8	35256	22213.684109727258	0
8	35260	22214.297187500902	1
8	35261	22214.571234329894	0
8	35355	22249.055453801097	1
8	35356	22249.058120339092	0
8	35360	22249.701319274443	1
8	35361	22249.748254380988	0
8	35367	22250.085609614439	1
8	35368	22250.452440320335	0
8	35375	22251.452373221389	1
8	35376	22251.769263471344	0
8	35390	22254.02770598069	1
8	35391	22254.787167123186	0
8	35395	22254.82576771845	1
8	35396	22255.21645907731	0
8	35415	22280.423311155291	1
8	35416	22280.922301052242	0
8	35590	22433.47444112961	1
8	35591	22433.916584771951	0
8	35604	22434.831761130842	1
8	35607	22434.896915968494	0
8	35617	22436.123328087874	1
8	35620	22436.857441624846	0
8	35710	22498.919062242406	1
8	35711	22499.652737782677	0
8	35730	22513.757388024907	1
8	35731	22514.449496701215	0
8	35735	22515.159779743569	1
8	35736	22515.189024169459	0
8	35740	22515.267473556779	1
8	35741	22515.779240685604	0
8	35745	22515.824193372742	1
8	35748	22516.706771323826	0
8	35765	22524.442116166501	1
8	35769	22524.655649485349	2
8	35770	22525.009886434595	1
8	35773	22525.675003125765	0
8	35777	22526.132986491667	1
8	35778	22526.457500786907	0
8	35782	22527.267329361307	1
8	35783	22527.349610638632	0
8	35870	22567.547684142851	1
8	35871	22567.776763125617	0
8	35945	22619.741132001782	1
8	35946	22619.895342413254	0
8	35965	22630.057274106636	1
8	35966	22630.874442612673	0
8	36115	22774.382169865435	1
8	36116	22774.714307883699	0
8	36295	22900.115843378444	1
8	36296	22900.743413967911	0
8	36305	22902.628038621718	1
8	36306	22903.094310286241	0
8	36330	22925.255741032906	1
8	36331	22925.649914862932	0
8	36360	22957.36156013789	1
8	36361	22957.675372165734	0
8	36375	22965.273626355584	1
8	36377	22965.280421296973	2
8	36378	22965.766167244462	1
8	36381	22966.235519421015	0
8	36440	23007.440916199154	1
8	36441	23007.833244689614	0
8	36495	23046.950182629787	1
8	36496	23047.536416086692	0
8	36555	23084.110071595446	1
8	36556	23084.180509117718	0
8	36610	23115.652479972324	1
8	36611	23116.048179562102	0
8	36675	23171.307326667338	1
8	36676	23171.687003782029	0
8	36805	23286.111051487186	1
8	36806	23286.469584291074	0
8	36832	23299.429737900089	1
8	36833	23299.457129283821	0
8	36840	23300.06610459575	1
8	36841	23300.781441628293	0
8	36850	23304.455709219447	1
8	36851	23304.701589917707	0
8	36865	23323.762325935182	1
8	36866	23323.998540265886	0
8	36890	23328.22104762483	1
8	36891	23328.699252645302	0
8	36972	23384.640818880333	1
8	36973	23385.112541393999	0
8	37075	23435.667841446934	1
8	37078	23436.419763464902	0
8	37090	23444.513295802992	1
8	37093	23445.254309368787	0
8	37120	23460.333551943916	1
8	37121	23460.922581538152	0
8	37142	23463.670628493553	1
8	37143	23463.912025261544	0
8	37255	23530.732255948759	1
8	37256	23531.150316588223	0
8	37335	23567.338332832515	1
8	37336	23567.889181284173	0
8	37345	23569.39563560952	1
8	37346	23569.780010780491	0
8	37465	23671.970618581864	1
8	37468	23672.339609358604	0
8	37535	23719.873771768543	1
8	37536	23719.890896574753	0
8	37555	23731.056106703031	1
8	37556	23731.350659688757	0
8	37565	23732.893639646982	1
8	37566	23732.909585775206	0
8	37570	23733.413039539337	1
8	37571	23733.564650380848	0
8	37580	23734.77402920617	1
8	37581	23735.335273190917	0
8	37640	23770.787972590931	1
8	37641	23771.640505064765	0
8	37690	23812.253609787854	1
8	37694	23812.685226115443	2
8	37695	23813.135188917869	1
8	37699	23813.558106290446	2
8	37700	23813.822499101197	1
8	37703	23814.234580101685	0
8	37710	23814.795157259411	1
8	37711	23815.235408664222	0
8	37800	23868.49042508841	1
8	37801	23868.688183997555	0
8	37815	23874.219144733756	1
8	37816	23874.407047618443	0
8	38285	24183.29453469853	1
8	38286	24183.698587834547	0
8	38475	24305.108844414268	1
8	38476	24305.466498082657	0
8	38495	24312.333373608578	1
8	38496	24312.916586936237	0
8	38500	24313.344553772101	1
8	38503	24313.765515180416	0
8	38525	24330.767595884729	1
8	38526	24330.903038556367	0
8	38535	24332.031705054312	1
8	38536	24332.575910817604	0
8	38640	24414.301348072214	1
8	38641	24414.652537708982	0
8	38660	24418.429103377548	1
8	38661	24419.033343877431	0
8	38700	24436.309133873788	1
8	38701	24436.35706706429	0
8	38720	24441.718207604124	1
8	38723	24442.205662548933	0
8	38732	24443.609068465404	1
8	38733	24443.750445727557	0
8	38825	24513.794128981967	1
8	38826	24514.146441140149	0
8	38890	24532.809495767634	1
8	38893	24533.6122642693	0
8	39000	24628.517967890916	1
8	39001	24628.884984847985	0
8	39060	24680.528710300928	1
8	39061	24680.884658756287	0
8	39075	24689.1861479021	1
8	39076	24689.55806185097	0
8	39320	24901.391940673199	1
8	39321	24902.204676223465	0
8	39335	24903.825382444125	1
8	39336	24904.355020016537	0
8	39340	24904.714661639573	1
8	39341	24904.929324832571	0
8	39350	24905.959276010143	1
8	39351	24906.514654903545	0
8	39355	24906.949949523186	1
8	39357	24907.065249293047	2
8	39358	24907.260541347892	1
8	39363	24908.144186233322	0
8	39462	24978.240739731012	1
8	39465	24978.628684393438	0
8	39650	25149.233544264961	1
8	39651	25149.40197330495	0
8	39695	25172.98613404914	1
8	39696	25173.60214549742	0
8	39705	25176.306148358039	1
8	39706	25176.600669576176	0
8	39750	25193.909944230599	1
8	39751	25194.688249401528	0
8	39757	25195.136101892434	1
8	39758	25195.564008386958	0
8	39765	25196.357327689126	1
8	39766	25196.662147000957	0
8	39810	25219.181633107807	1
8	39811	25219.801765357954	0
8	39850	25253.480453974537	1
8	39851	25253.500987465276	0
8	39860	25254.684718641687	1
8	39861	25255.040728335703	0
8	39872	25256.541059914162	1
8	39873	25256.785558660562	0
8	39915	25281.904892234644	1
8	39917	25282.297997678607	2
8	39918	25282.653562611338	1
8	39921	25283.325483794367	0
8	40025	25352.440737988542	1
8	40026	25352.861479647825	0
8	40050	25361.747490278361	1
8	40051	25362.223194356696	0
8	40100	25393.760544905013	1
8	40101	25394.548705901796	0
8	40115	25396.507839270245	1
8	40116	25396.566832771172	0
8	40135	25408.734063343891	1
8	40136	25408.779799258559	0
8	40140	25409.110055800785	1
8	40143	25409.588420593076	0
8	40150	25410.146397320923	1
8	40151	25410.556456827222	0
8	40210	25450.753548310047	1
8	40211	25451.113265491301	0
8	40320	25548.266431386964	1
8	40321	25548.398432384653	0
8	40360	25564.881365899575	1
8	40361	25565.299159004049	0
8	40665	25794.776882608542	1
8	40666	25795.57897722088	0
8	40710	25816.440175263801	1
8	40711	25816.813172163681	0
8	40775	25878.437311417713	1
8	40776	25878.818001784879	0
8	40885	25956.219720343016	1
8	40886	25956.753058230917	0
8	40910	25966.872517019676	1
8	40911	25967.177180623595	0
8	41040	26082.235510128051	1
8	41041	26082.559482090163	0
8	41049	26083.019499880024	1
8	41050	26083.355631134321	0
8	41085	26096.922605375871	1
8	41086	26097.252297351695	0
8	41090	26097.856722502629	1
8	41091	26098.203312636166	0
8	41107	26102.577807652248	1
8	41108	26102.91343870348	0
8	41185	26194.850475348059	1
8	41186	26195.166594815464	0
8	41205	26207.266246254939	1
8	41206	26207.900852103433	0
8	41295	26267.503435938206	1
8	41296	26268.307951629319	0
8	41300	26268.722855747359	1
8	41301	26268.766721181216	0
8	41335	26281.834869721871	1
8	41336	26282.133001912993	0
8	41340	26282.218136850106	1
8	41341	26282.691510098477	0
8	41420	26334.510013099558	1
8	41421	26334.930712646587	0
8	41440	26345.974083582352	1
8	41441	26346.521159809214	0
8	41510	26374.193343538928	1
8	41511	26374.616169135845	0
8	41630	26463.069376772213	1
8	41631	26463.272509126628	0
8	41865	26595.179556714457	1
8	41866	26595.339452674967	0
8	41870	26596.185787083818	1
8	41871	26596.210675961413	0
8	41880	26605.644987286392	1
8	41881	26606.084828939243	0
8	41885	26606.247926969843	1
8	41886	26606.516573486571	0
8	41895	26613.187455875553	1
8	41896	26613.327471694121	0
8	41955	26628.693120652591	1
8	41958	26629.174800659471	0
8	41995	26644.935700216004	1
8	41996	26645.230945504936	0
8	42060	26673.562075747593	1
8	42061	26673.842626114145	0
8	42065	26674.068613043593	1
8	42066	26674.697914408289	0
8	42140	26728.276321807286	1
8	42141	26728.520331876839	0
8	42160	26748.955397204502	1
8	42161	26749.445075355514	0
8	42225	26797.409855725659	1
8	42228	26797.637688050443	0
8	42360	26878.113187319567	1
8	42361	26878.80436401861	0
8	42440	26923.350007226669	1
8	42441	26923.354944607848	0
8	42475	26947.65467744714	1
8	42478	26948.364799383081	0
8	42485	26949.030264935841	1
8	42486	26949.351105790011	0
8	42620	27044.656056974127	1
8	42621	27045.063560072763	0
8	42625	27045.561600688512	1
8	42628	27045.809697830735	0
8	42690	27070.696306249474	1
8	42691	27070.807883144296	0
8	42695	27070.928286501557	1
8	42696	27071.619951608717	0
8	42740	27096.065811203571	1
8	42741	27096.11363293065	0
8	42770	27107.726435145085	1
8	42771	27107.887707385929	0
8	42825	27146.842388096525	1
8	42826	27146.994513321812	0
8	42905	27204.936522914039	1
8	42906	27205.391788335005	0
8	42952	27254.844067431917	1
8	42953	27254.984523079279	0
8	42990	27293.298814773305	1
8	42991	27293.309277895793	0
8	43027	27315.101078161716	1
8	43028	27315.108472853026	0
8	43035	27316.080570575834	1
8	43036	27316.673035288288	0
8	43060	27329.522846500903	1
8	43061	27329.641224090968	0
8	43070	27333.17520498678	1
8	43071	27333.458014835831	0
8	43105	27347.811823458396	1
8	43106	27348.679937204984	0
8	43205	27407.234943259	1
8	43206	27407.644780099385	0
8	43285	27450.073494729391	1
8	43286	27450.076555143044	0
8	43295	27450.678907889328	1
8	43300	27451.010738742576	0
8	43307	27452.75031707827	1
8	43308	27452.929252205921	0
8	43325	27454.99028486318	1
8	43328	27455.277959378542	0
8	43430	27528.893594506491	1
8	43431	27528.920510565694	0
8	43465	27561.039634529173	1
8	43466	27561.349100381293	0
8	43525	27637.799701416351	1
8	43526	27638.064786270262	0
8	43540	27651.258264553235	1
8	43541	27651.79117262312	0
8	43585	27685.522579665391	1
8	43586	27686.081958748025	0
8	43660	27733.147154376906	1
8	43661	27733.54259635283	0
8	43710	27757.642109488539	1
8	43711	27757.84730138548	0
8	44000	27953.168495867772	1
8	44001	27953.403780839119	0
8	44140	28045.378666175923	1
8	44141	28045.547917783706	0
8	44265	28124.759460647624	1
8	44266	28124.892398408231	0
8	44335	28182.743025094066	1
8	44336	28183.276428146698	0
8	44340	28183.383885207532	1
8	44341	28183.799259549231	0
8	44350	28190.561647889189	1
8	44351	28191.478585657429	0
8	44430	28233.004758434669	1
8	44431	28233.481075101746	0
8	44515	28296.943321761833	1
8	44516	28297.147378713624	0
8	44545	28314.634219068131	1
8	44546	28314.919690522167	0
8	44552	28315.285398656998	1
8	44553	28315.321916853019	0
8	44615	28338.065924013547	1
8	44616	28338.206341574988	0
8	44725	28406.888139023508	1
8	44726	28407.390998085351	0
8	44735	28408.589435732793	1
8	44736	28408.755493344176	0
8	44920	28559.1196624892	1
8	44921	28559.823307257934	0
8	45090	28695.84100799717	1
8	45091	28696.384744244639	0
8	45115	28720.045920703519	1
8	45116	28720.262463181328	0
8	45235	28819.032420124629	1
8	45236	28819.503077046797	0
8	45245	28820.68797453734	1
8	45246	28821.206942404611	0
8	45385	28925.492461627763	1
8	45386	28926.195876262281	0
8	45400	28947.652978738819	1
8	45401	28947.720384870012	0
8	45440	28976.877002992759	1
8	45441	28976.930571257837	0
8	45450	28978.354290910764	1
8	45451	28979.096553398929	0
8	45495	29007.338098997712	1
8	45496	29007.734445595572	0
8	45515	29015.364424600471	1
8	45516	29015.367282628411	0
8	45550	29021.477681866647	1
8	45551	29021.85094079057	0
8	45627	29068.624524303738	1
8	45628	29069.1349895558	0
8	45715	29144.236736626356	1
8	45718	29144.630873204561	0
8	45825	29228.780871902349	1
8	45826	29228.936016292323	0
8	45845	29248.548063549095	1
8	45846	29248.666760607945	0
8	45855	29249.75843133628	1
8	45856	29250.01648980267	0
8	45890	29261.796972731241	1
8	45891	29261.90295402768	0
8	45935	29297.844262706285	1
8	45936	29298.017680510989	0
8	46020	29341.740986967707	1
8	46021	29341.759226566963	0
8	46120	29402.610348953928	1
8	46121	29403.178642767646	0
8	46130	29406.475416772945	1
8	46131	29406.577622439608	0
8	46320	29518.767816950257	1
8	46321	29519.307308505936	0
8	46400	29567.659763093105	1
8	46401	29567.761512338181	0
8	46435	29586.747092696995	1
8	46436	29586.754308105193	0
8	46467	29599.125313901518	1
8	46468	29599.4383545055	0
8	46475	29600.017093074446	1
8	46476	29600.397364688054	0
8	46560	29656.235107531069	1
8	46561	29656.734265725548	0
8	46580	29661.043297256575	1
8	46581	29661.148999297044	0
8	46695	29760.753846223715	1
8	46696	29761.367881931367	0
8	46760	29813.216077359247	1
8	46763	29814.038124754847	0
8	46835	29871.762639698195	1
8	46836	29872.24256122685	0
8	46895	29928.810781057092	1
8	46896	29929.166570839773	0
9	18690	11765.829182267846	1
9	18691	11765.879339479274	0
9	20245	12735.067271906403	1
9	20246	12735.454411722728	0
9	24070	15161.620327392049	1
9	24071	15162.005740419416	0
9	24275	15301.2705444325	1
9	24279	15301.983175506541	0

