version 2
run First_exit_8-4-20191017-13:43:31-1854
attr configname First_exit_8
attr datetime 20191017-13:43:31
attr experiment First_exit_8
attr inifile omnetpp.ini
attr iterationvars ""
attr iterationvarsf ""
attr measurement ""
attr network ResponseTimeNetwork
attr processid 1854
attr repetition 4
attr replication #4
attr resultdir results
attr runnumber 4
attr seedset 4
param **.Source.interArrivalTime exponential(4s)
param **.jobPriority bernoulli(0.4)
param **.PS.serviceTimeU1 "uniform(0.4s, 1.0s)"
param **.PS.serviceTimeU2 "uniform(1s, 1.2s)"
param **.SS1.serviceTime exponential(0.4s)
param **.SS2.serviceTime exponential(0.8s)
param **.PS.exitProbability bernoulli(0.8)

vector 0 ResponseTimeNetwork.SS1 queueLength:vector ETV
attr interpolationmode sample-hold
attr title "queue length, vector"
vector 1 ResponseTimeNetwork.SS2 queueLength:vector ETV
attr interpolationmode sample-hold
attr title "queue length, vector"
vector 2 ResponseTimeNetwork.QueueU1 queueLength:vector ETV
attr interpolationmode sample-hold
attr title "queue length, vector"
vector 3 ResponseTimeNetwork.QueueU2 queueLength:vector ETV
attr interpolationmode sample-hold
attr title "queue length, vector"
vector 4 ResponseTimeNetwork.sink lifeTimeU2:vector ETV
attr interpolationmode none
attr title "lifetime of arrived jobs U2, vector"
attr unit s
vector 5 ResponseTimeNetwork.sink lifeTime:vector ETV
attr interpolationmode none
attr title "lifetime of arrived jobs, vector"
attr unit s
vector 6 ResponseTimeNetwork.sink lifeTimeU1:vector ETV
attr interpolationmode none
attr title "lifetime of arrived jobs U1, vector"
attr unit s
3	0	0	0
3	50	35.216969644046	1
3	51	35.385900945353	0
3	82	41.69765746752	1
3	86	42.602332219847	0
3	145	61.255204825875	1
3	146	61.918583565663	0
3	170	66.320749345597	1
3	171	67.061320513272	0
3	225	82.427021262392	1
3	226	82.812935223931	0
3	247	88.591217697893	1
3	249	88.765607367869	2
3	253	89.668255714116	1
3	269	91.810723783137	2
3	273	93.213206114083	1
3	291	95.797296908055	0
3	295	96.000905501236	1
3	296	96.432965611084	0
3	304	96.892214107794	1
3	309	97.481094710378	2
3	318	98.866344594838	1
3	321	99.792420308873	0
3	335	102.005826582973	1
3	336	102.173619082033	0
3	342	102.347322234329	1
3	347	102.976772451485	2
3	348	103.325425472086	1
3	357	104.680019605541	2
3	358	104.822528791031	1
3	362	105.303724766911	2
3	363	105.326796667999	1
3	366	105.84397949411	0
3	375	107.621153465187	1
3	377	107.830138166794	2
3	378	108.464460456808	1
3	381	108.886577390897	0
3	400	114.660420131436	1
3	402	114.727856046304	2
3	403	114.750718090264	1
3	407	115.216490473916	2
3	408	115.519609759608	1
3	412	115.635395171167	2
3	413	116.489411125797	1
3	416	117.270152822369	0
3	420	117.53176654732	1
3	422	117.615457636897	2
3	423	117.965225404919	1
3	426	118.744240750744	0
3	445	124.407222328165	1
3	446	124.730247564612	0
3	455	126.557193686254	1
3	457	127.22375464233	2
3	458	127.35668217293	1
3	461	128.29127481659	0
3	465	128.595436169685	1
3	467	128.606714782681	2
3	468	128.772126380075	1
3	471	129.24387239283	0
3	490	132.623593774922	1
3	491	132.996456865135	0
3	505	135.084657447375	1
3	506	135.953316749532	0
3	520	139.942758441927	1
3	521	140.1305042929	0
3	525	140.716722907612	1
3	526	141.04421455399	0
3	530	141.246668527315	1
3	531	141.687342692491	0
3	540	144.247885067648	1
3	542	144.62472092691	2
3	543	144.704113243565	1
3	546	145.258196196983	0
3	557	146.427737690714	1
3	562	146.601216106251	2
3	573	147.847651336369	3
3	586	149.652498347352	4
3	607	153.190134748861	3
3	610	153.833590277236	2
3	613	154.372037843054	1
3	616	154.803498770527	0
3	632	156.685598947931	1
3	637	157.174026197517	2
3	638	157.507007360804	1
3	642	157.882702165294	2
3	644	157.90328608079	3
3	651	158.145941346165	4
3	652	158.99766192033	3
3	660	160.065444075708	2
3	668	161.511235792395	1
3	672	161.527354816371	2
3	673	162.033822616581	1
3	677	162.051881035709	2
3	678	162.609539072793	1
3	682	162.768761958125	2
3	683	163.595082242526	1
3	686	164.055412381021	0
3	690	164.662044590252	1
3	691	164.71711498389	0
3	695	164.912684356255	1
3	696	165.559381509218	0
3	700	165.953574067574	1
3	701	166.067291290704	0
3	705	166.526905167531	1
3	706	166.79745642568	0
3	710	167.542006897795	1
3	711	167.67265677305	0
3	720	169.329377694773	1
3	721	169.76618070162	0
3	725	169.817868613472	1
3	726	170.306448959579	0
3	730	170.693510355527	1
3	731	170.978746502773	0
3	735	170.985734382394	1
3	737	171.323041947404	2
3	739	171.79674576842	3
3	740	171.881972923149	2
3	743	172.381069988125	1
3	747	172.690748643232	2
3	749	172.759811846098	3
3	750	172.955573900064	2
3	754	173.091760747455	3
3	755	173.926575055366	2
3	758	174.724248014737	1
3	762	175.033207117593	2
3	763	175.377841566198	1
3	766	175.832246304464	0
3	775	177.654402913995	1
3	777	177.933417180796	2
3	778	177.97501546908	1
3	781	178.475653595429	0
3	785	178.656324000815	1
3	786	179.077961494306	0
3	795	179.940003901047	1
3	797	180.230134364327	2
3	799	180.514894715462	3
3	800	180.722271717523	2
3	804	181.554093318322	3
3	805	181.641328391197	2
3	809	181.988790053189	3
3	810	182.399230357303	2
3	814	182.414373063205	3
3	816	182.690291988134	4
3	818	182.817953492619	5
3	819	183.0664445837	4
3	822	183.730804012946	3
3	826	183.841711124954	4
3	827	184.531276730399	3
3	830	185.40204317183	2
3	834	185.677598134985	3
3	835	185.804366754412	2
3	838	186.351409893201	1
3	842	186.604380449749	2
3	844	186.791939180724	3
3	846	186.850596548886	4
3	847	186.969796285915	3
3	851	187.271937803881	4
3	852	187.895865189933	3
3	855	188.590426886125	2
3	858	189.434810953584	1
3	862	189.468077345172	2
3	864	189.636782576283	3
3	865	190.137811200504	2
3	869	190.23691226723	3
3	870	190.661989014965	2
3	874	190.952609754053	3
3	875	191.569704754601	2
3	879	191.794874617458	3
3	881	192.472461344425	4
3	882	192.533669678258	3
3	885	193.00759965791	2
3	894	194.911710168984	3
3	895	194.948850993296	2
3	903	195.846460001679	1
3	909	195.959156061521	2
3	913	197.03274310757	1
3	916	197.467378167897	0
3	920	197.47719951366	1
3	922	197.731651527065	2
3	924	197.978156775354	3
3	926	198.048227444349	4
3	927	198.301617673128	3
3	935	199.554323855364	2
3	944	200.667716755384	3
3	946	200.668802188464	4
3	947	200.937227396989	3
3	958	202.127894300368	4
3	987	206.615411265563	3
3	990	207.334748380162	2
3	1009	209.57001285564	3
3	1010	209.919322487941	2
3	1014	210.054746907161	3
3	1016	210.110369867983	4
3	1017	210.84026923468	3
3	1023	211.413395989288	4
3	1028	211.880459415938	5
3	1029	212.25965501377	4
3	1032	213.25544973821	3
3	1036	213.676310895979	4
3	1037	213.827461959138	3
3	1040	214.400512589603	2
3	1044	214.487639530857	3
3	1045	215.252546045739	2
3	1048	215.699207309024	1
3	1052	215.900363237531	2
3	1054	215.965219536	3
3	1055	216.271574279895	2
3	1059	216.31901881169	3
3	1060	217.089805143276	2
3	1063	217.636614301238	1
3	1066	218.514161984665	0
3	1095	223.735998641285	1
3	1096	223.788263850786	0
3	1100	224.481415021444	1
3	1101	224.777770972565	0
3	1105	225.319671009342	1
3	1106	225.629610299213	0
3	1110	225.901442578819	1
3	1112	225.936838594085	2
3	1113	226.321670567278	1
3	1116	227.233574625883	0
3	1120	227.800885716792	1
3	1127	228.405472176921	2
3	1128	228.676174205249	1
3	1131	229.346710809633	0
3	1137	229.678915765119	1
3	1141	230.641335075569	0
3	1145	230.709950862744	1
3	1149	231.216741533558	2
3	1154	232.011608861306	3
3	1155	232.16922350953	2
3	1159	232.98624240904	3
3	1160	233.138587167567	2
3	1169	233.918816080546	3
3	1171	233.956286239199	4
3	1172	234.349802805192	3
3	1176	235.174543987395	4
3	1177	235.273233194917	3
3	1181	235.569494184501	4
3	1188	236.233949373679	5
3	1189	236.775168491749	4
3	1195	237.415634912026	5
3	1200	237.882369881103	6
3	1201	238.38845591041	5
3	1212	239.899098709424	6
3	1221	241.806117728016	5
3	1235	243.800621006406	6
3	1236	244.182706713153	5
3	1247	244.691349215924	6
3	1286	251.227227392736	5
3	1302	253.502901945957	6
3	1307	254.038928171414	7
3	1308	254.15662455404	6
3	1311	254.61768386321	5
3	1314	255.400035129803	4
3	1340	258.778877547205	5
3	1347	259.91225364761	6
3	1400	266.554193758346	7
3	1428	271.174020885074	8
3	1500	282.627178852812	7
3	1509	283.731074943458	8
3	1510	284.216272583271	7
3	1516	284.380351947943	8
3	1520	285.939075222139	7
3	1523	286.432298204808	6
3	1531	288.235976814285	5
3	1535	288.257256498968	6
3	1536	288.850907642946	5
3	1540	289.057838736839	6
3	1541	289.431238992039	5
3	1545	289.79003105063	6
3	1546	290.243198559612	5
3	1550	290.924700409514	6
3	1551	291.170969620293	5
3	1554	291.854382052125	4
3	1557	292.278491433609	3
3	1560	292.994348321242	2
3	1563	293.427833626691	1
3	1567	293.758352519862	2
3	1568	293.98815102935	1
3	1571	294.858723521784	0
3	1575	295.673922158574	1
3	1576	295.794522939894	0
3	1585	297.831169610239	1
3	1586	298.54253353069	0
3	1590	299.299296379244	1
3	1592	299.332252437954	2
3	1593	299.447757463506	1
3	1596	300.07660045519	0
3	1610	302.550671632224	1
3	1612	302.654006142797	2
3	1614	302.707772005395	3
3	1615	303.037509684796	2
3	1619	303.136300855143	3
3	1620	303.842438113709	2
3	1624	304.386166725619	3
3	1626	304.401163128038	4
3	1627	304.587524599415	3
3	1631	304.660116716126	4
3	1633	304.891261605393	5
3	1634	305.234305050104	4
3	1638	305.240238275208	5
3	1639	306.099259832335	4
3	1643	306.575611915237	5
3	1644	307.009622509797	4
3	1647	307.905254176837	3
3	1650	308.601814191947	2
3	1654	309.179718637408	3
3	1655	309.438063270478	2
3	1658	310.34460650703	1
3	1662	310.61972561928	2
3	1663	311.293535898599	1
3	1667	311.792481563447	2
3	1668	312.114994581622	1
3	1671	313.005643215748	0
3	1675	313.240631834447	1
3	1676	313.429528898905	0
3	1690	317.593438407143	1
3	1691	317.881215857972	0
3	1705	319.570908879972	1
3	1707	319.746258078066	2
3	1714	320.449381460188	3
3	1715	320.867535537695	2
3	1721	321.154289775763	3
3	1725	322.316403555758	2
3	1733	323.209473725436	1
3	1741	324.41198023472	0
3	1745	324.760448383679	1
3	1751	325.770055928156	0
3	1765	327.649134986635	1
3	1766	328.107212043753	0
3	1770	328.173099621891	1
3	1777	329.421055930251	2
3	1778	329.54866229935	1
3	1781	330.534064176459	0
3	1790	331.901163054273	1
3	1791	332.171030430783	0
3	1800	332.965813060769	1
3	1801	333.579198423009	0
3	1810	335.215168712282	1
3	1811	335.389663960561	0
3	1815	336.174165917482	1
3	1816	336.296856785109	0
3	1825	337.235483153927	1
3	1827	337.558411330382	2
3	1828	337.571684740142	1
3	1837	338.643356215697	2
3	1839	338.789192046289	3
3	1841	338.892605505903	4
3	1842	338.962581822028	3
3	1851	340.150601929589	4
3	1852	340.753932686228	3
3	1855	341.24787629003	2
3	1858	342.153671911809	1
3	1861	343.14334519504	0
3	1870	344.664644630896	1
3	1871	345.13268206536	0
3	1885	347.541068252804	1
3	1886	347.691237312393	0
3	1890	347.824140681874	1
3	1891	348.538421976404	0
3	1905	351.353785672315	1
3	1907	351.41247730537	2
3	1908	351.508283172218	1
3	1911	351.937472864888	0
3	1915	351.95025107543	1
3	1916	352.683591742763	0
3	1930	354.432929454259	1
3	1934	354.608119326713	2
3	1941	355.268126994654	3
3	1943	355.326418584838	4
3	1950	355.627311914501	5
3	1964	357.922627846111	4
3	1967	358.779593824555	3
3	1976	359.76982093494	4
3	1977	359.986128927541	3
3	1980	360.923215095892	2
3	1993	361.897953651708	3
3	2050	369.81765469725	4
3	2077	373.189882588599	5
3	2094	375.876702299396	4
3	2097	376.516074857869	3
3	2101	376.843290644913	4
3	2102	376.926373570421	3
3	2106	377.250667829041	4
3	2107	377.712163442242	3
3	2110	378.220358582129	2
3	2113	378.726806845385	1
3	2117	378.883709166355	2
3	2119	379.151606609005	3
3	2120	379.558649106612	2
3	2124	380.12934691078	3
3	2125	380.318434592951	2
3	2129	380.876097384887	3
3	2130	381.091178286457	2
3	2133	381.592056482387	1
3	2136	382.157244825372	0
3	2140	382.453439235171	1
3	2142	382.47039098578	2
3	2143	382.877952387984	1
3	2147	383.284419611141	2
3	2149	383.411034415059	3
3	2150	383.688348535876	2
3	2154	383.945898577611	3
3	2155	384.164251523474	2
3	2159	384.705554134015	3
3	2160	384.908369473843	2
3	2164	385.279979255865	3
3	2166	385.441362898769	4
3	2167	385.498194335364	3
3	2170	386.364315573834	2
3	2174	386.721886262029	3
3	2176	386.832554680312	4
3	2183	387.198961931014	5
3	2184	387.784325657747	4
3	2192	388.987281584283	3
3	2195	389.478234468316	2
3	2204	390.49489255514	3
3	2205	390.602228931393	2
3	2214	391.596352485781	3
3	2215	392.028926048903	2
3	2223	393.602657120312	1
3	2232	394.937772054837	2
3	2233	395.061848573769	1
3	2237	395.579587121526	2
3	2239	395.838684577148	3
3	2240	395.896214553258	2
3	2243	396.35095402157	1
3	2247	397.212369437056	2
3	2248	397.233168414804	1
3	2251	397.944313365278	0
3	2255	398.357048581303	1
3	2256	398.486425813065	0
3	2275	402.518081872074	1
3	2276	402.767993959782	0
3	2285	403.719204326423	1
3	2287	403.780547697131	2
3	2289	403.999344835832	3
3	2290	404.34710388514	2
3	2293	405.043068820329	1
3	2296	405.841630855992	0
3	2305	406.682542187552	1
3	2307	406.85244405747	2
3	2309	407.150202404704	3
3	2310	407.465176955784	2
3	2313	408.396223266503	1
3	2316	408.958941369584	0
3	2330	412.001929679866	1
3	2331	412.414081124829	0
3	2350	414.782353492539	1
3	2352	414.784793994452	2
3	2353	415.137085925405	1
3	2356	415.924911477639	0
3	2360	416.281146977942	1
3	2361	416.408960770013	0
3	2365	416.466589981916	1
3	2367	416.896030508321	2
3	2368	417.160610931169	1
3	2372	417.315521611985	2
3	2373	417.629712187348	1
3	2376	418.321524158994	0
3	2380	418.65234430531	1
3	2381	419.20794920855	0
3	2385	419.39108402821	1
3	2387	419.819752562541	2
3	2388	419.845691200893	1
3	2391	420.399240392482	0
3	2395	421.108856812154	1
3	2396	421.162006739935	0
3	2420	426.051759485786	1
3	2421	426.492123996478	0
3	2425	426.537132944355	1
3	2426	427.289260279771	0
3	2445	431.796710062722	1
3	2447	431.880715045854	2
3	2448	432.249316000183	1
3	2452	432.821509848213	2
3	2453	432.985341396405	1
3	2457	433.304465928822	2
3	2458	433.508541625448	1
3	2462	433.525171109976	2
3	2463	434.404858547438	1
3	2466	434.848394572305	0
3	2475	437.270513287285	1
3	2476	437.740590843854	0
3	2485	440.326392421215	1
3	2486	440.434735329821	0
3	2490	440.636738542255	1
3	2491	441.237333189556	0
3	2500	444.066492827159	1
3	2501	444.158254081633	0
3	2515	445.393764212124	1
3	2516	446.097324569344	0
3	2540	450.087470858306	1
3	2541	450.804398859187	0
3	2550	451.983949568792	1
3	2574	455.030587385529	2
3	2578	455.523187397827	1
3	2581	456.133688940095	0
3	2590	456.859082765769	1
3	2594	457.070527907742	2
3	2608	459.793059312166	1
3	2616	460.939889529753	0
3	2620	461.301813517476	1
3	2622	461.467016003969	2
3	2623	461.866191429724	1
3	2626	462.365086982432	0
3	2665	476.018077962553	1
3	2666	476.20375820053	0
3	2670	476.218470753514	1
3	2672	477.001725832342	2
3	2673	477.049749089723	1
3	2677	477.327029456332	2
3	2678	478.023472664823	1
3	2682	478.163556965118	2
3	2683	478.712426378709	1
3	2687	478.908594287859	2
3	2688	479.385441149064	1
3	2691	479.810447024126	0
3	2700	481.353249864838	1
3	2701	481.369341555312	0
3	2705	482.148338317973	1
3	2706	482.357165473448	0
3	2730	491.821109149283	1
3	2732	491.828140575084	2
3	2733	492.637597835107	1
3	2736	493.353798767455	0
3	2740	493.587869372189	1
3	2741	493.913164936561	0
3	2752	495.522270306711	1
3	2756	496.385092375602	0
3	2762	496.826632239854	1
3	2766	497.363107178302	0
3	2775	498.385798769891	1
3	2776	498.55375017639	0
3	2780	498.651223646808	1
3	2786	500.139838342031	0
3	2800	501.738794459127	1
3	2801	502.133789403275	0
3	2945	559.683853022756	1
3	2946	559.771392311526	0
3	2955	561.34832835838	1
3	2956	561.375724640207	0
3	2962	562.072460135639	1
3	2967	562.715169144238	2
3	2968	563.052616577919	1
3	2971	563.547202197646	0
3	2975	564.194918518365	1
3	2976	564.262422637173	0
3	3015	573.761092026721	1
3	3016	573.890641334364	0
3	3035	577.84979567035	1
3	3036	577.91767430282	0
3	3040	578.073160656129	1
3	3041	578.883685125129	0
3	3055	580.367040463344	1
3	3057	580.535001580363	2
3	3059	580.717479131061	3
3	3060	580.975538274383	2
3	3064	581.870290236643	3
3	3065	581.929774386732	2
3	3068	582.912461113947	1
3	3072	582.966458532332	2
3	3079	583.675473068812	3
3	3080	583.816578456265	2
3	3083	584.387522759725	1
3	3089	585.142286365274	2
3	3094	585.637952503784	3
3	3096	585.729970252727	4
3	3097	586.072543746949	3
3	3100	586.652198233054	2
3	3106	586.982077895973	3
3	3111	588.221770886403	4
3	3112	588.27559366256	3
3	3120	590.052109437827	2
3	3129	591.300638333242	3
3	3136	591.732853311792	4
3	3137	592.468548844401	3
3	3140	593.160076530669	2
3	3144	593.319672829726	3
3	3170	596.87506510431	2
3	3183	598.456258057195	3
3	3190	599.427477851029	4
3	3210	601.830815155687	5
3	3234	605.684617489596	4
3	3238	606.009289976397	5
3	3239	606.23803335053	4
3	3242	607.16330218792	3
3	3246	607.212047085517	4
3	3248	607.648596758498	5
3	3249	608.034898864264	4
3	3253	608.303628804176	5
3	3254	608.764518986941	4
3	3257	609.417552357093	3
3	3261	609.793485647028	4
3	3262	610.216580887996	3
3	3265	611.098693418755	2
3	3271	611.346337654154	3
3	3273	611.665746063443	4
3	3278	611.8837264877	5
3	3284	613.26642208255	4
3	3292	614.690422615521	3
3	3298	615.131518233549	4
3	3303	615.714854744015	5
3	3305	616.164556004416	6
3	3306	616.21435694729	5
3	3310	616.40489238773	6
3	3311	616.927460486042	5
3	3315	617.139857056976	6
3	3316	617.382453373513	5
3	3320	617.455990085405	6
3	3321	618.212180438704	5
3	3325	618.576050861101	6
3	3326	619.107433812293	5
3	3330	619.32747067903	6
3	3331	619.516211256358	5
3	3335	619.680191231424	6
3	3336	620.081045178251	5
3	3340	620.353533210646	6
3	3341	620.887300922742	5
3	3344	621.675596687311	4
3	3348	621.714750099708	5
3	3349	622.456344004228	4
3	3352	623.373572161953	3
3	3356	624.02253947076	4
3	3357	624.224099601592	3
3	3361	624.855468561346	4
3	3362	625.042405426429	3
3	3365	625.977026928702	2
3	3369	626.340635495421	3
3	3370	626.795272024555	2
3	3373	627.347411256257	1
3	3376	627.8907382854	0
3	3390	629.805198068365	1
3	3392	629.909408739555	2
3	3393	630.588564227098	1
3	3397	630.707281122195	2
3	3398	631.043080800767	1
3	3402	631.367066534434	2
3	3403	631.671489119106	1
3	3406	632.651422759374	0
3	3410	632.84804221797	1
3	3411	633.455524525042	0
3	3415	633.556731431887	1
3	3419	634.20781809954	2
3	3423	635.249856593316	1
3	3429	635.728949223732	2
3	3433	636.6923972025	1
3	3442	637.82494780352	2
3	3444	638.101901765314	3
3	3446	638.236813288817	4
3	3447	638.354607488722	3
3	3450	638.793171913311	2
3	3454	638.921924646001	3
3	3455	639.292068652757	2
3	3458	640.255399769446	1
3	3462	640.953460984077	2
3	3463	641.123954349285	1
3	3467	641.5391169074	2
3	3469	641.564022909312	3
3	3470	641.756846788846	2
3	3473	642.39855160992	1
3	3477	642.77515816659	2
3	3478	642.839562402334	1
3	3481	643.648763575818	0
3	3485	643.795340775083	1
3	3486	644.060669986991	0
3	3490	644.680558916562	1
3	3492	644.754203493567	2
3	3493	644.923240897985	1
3	3497	645.701236419076	2
3	3498	645.905399373075	1
3	3501	646.449485273048	0
3	3505	646.809644569252	1
3	3507	646.847437560737	2
3	3508	647.209960920684	1
3	3511	647.827839855798	0
3	3515	648.249540397405	1
3	3516	648.632689474984	0
3	3520	648.9644150457	1
3	3522	649.159647606432	2
3	3523	649.168528097724	1
3	3526	650.105849582279	0
3	3530	650.488317800523	1
3	3531	651.07462523514	0
3	3535	651.657002430689	1
3	3536	652.053995061382	0
3	3560	655.637385778775	1
3	3561	655.828493337876	0
3	3567	656.185656907247	1
3	3571	657.010431966169	0
3	3575	657.435610831941	1
3	3576	657.562739684463	0
3	3580	657.949659594726	1
3	3582	658.505409361695	2
3	3583	658.523904267496	1
3	3587	658.792854124076	2
3	3588	659.465624113411	1
3	3592	659.785272803758	2
3	3593	660.345625290398	1
3	3596	660.981542448823	0
3	3615	671.114662414815	1
3	3616	671.847017103037	0
3	3620	671.866267601877	1
3	3621	672.430014930548	0
3	3640	677.366927997669	1
3	3641	678.184798686605	0
3	3645	678.266959109022	1
3	3646	679.089912937468	0
3	3650	679.157977102084	1
3	3652	679.413767255728	2
3	3653	679.841568731962	1
3	3656	680.446571001018	0
3	3675	684.089386894073	1
3	3676	684.556722406207	0
3	3685	685.547336851372	1
3	3686	685.891460237281	0
3	3750	705.347390415953	1
3	3751	705.380545849596	0
3	3800	717.107303436056	1
3	3807	718.569759065797	2
3	3808	718.836434698745	1
3	3811	719.393805218849	0
3	3820	720.702099346677	1
3	3831	722.171349154235	2
3	3874	727.561433646019	3
3	3875	728.004808395157	2
3	3883	728.844626287824	1
3	3891	730.264689066528	0
3	3900	732.379887538724	1
3	3901	732.508436311826	0
3	3930	739.596018837589	1
3	3931	740.097381026282	0
3	3950	746.536485653723	1
3	3951	746.714191046541	0
3	3955	746.922968436666	1
3	3956	747.384253274181	0
3	3980	752.067393825299	1
3	3981	752.57293457235	0
3	3985	752.600933088699	1
3	3986	753.042416804189	0
3	3995	754.124039947068	1
3	3996	754.311045338581	0
3	4000	754.346585418562	1
3	4001	755.139734750003	0
3	4005	755.233941957495	1
3	4006	755.689153556101	0
3	4010	755.894144474481	1
3	4011	756.31466903672	0
3	4025	760.1766503846	1
3	4026	760.461748950559	0
3	4030	760.473495391873	1
3	4031	761.085897554833	0
3	4040	762.20594013868	1
3	4041	762.724403866784	0
3	4050	763.995648227368	1
3	4051	764.375536642287	0
3	4060	765.022949649137	1
3	4061	765.653749230381	0
3	4095	787.261162128728	1
3	4096	787.496775270984	0
3	4122	797.502953700138	1
3	4151	801.73981524483	0
3	4160	802.737963671937	1
3	4161	803.25256235493	0
3	4180	806.621180688091	1
3	4191	808.162443611767	0
3	4204	809.674948641932	1
3	4243	813.633749322263	2
3	4250	814.780180799123	3
3	4280	819.459835109232	4
3	4292	820.413213057498	5
3	4354	829.7143750797	4
3	4357	830.158493139732	3
3	4361	830.344353016766	4
3	4425	838.755975338303	5
3	4493	848.276516620345	6
3	4538	854.398688315805	7
3	4545	854.950126084788	8
3	4563	857.902812285146	9
3	4647	870.58753421679	8
3	4661	872.564691126696	9
3	4677	874.673158435568	8
3	4693	876.298689385973	9
3	4712	878.127053835571	10
3	4724	880.699993112821	9
3	4733	881.963311736192	10
3	4734	882.212980149172	9
3	4737	882.624858398407	8
3	4740	883.505510067658	7
3	4744	883.5135356658	8
3	4745	884.232068787233	7
3	4749	884.519623331041	8
3	4751	884.770684336215	9
3	4752	885.030756355307	8
3	4756	885.065467831157	9
3	4758	885.220835240023	10
3	4759	885.491035047217	9
3	4762	885.921577216123	8
3	4765	886.431933596913	7
3	4769	886.707585074304	8
3	4770	887.004449568825	7
3	4774	887.827043125967	8
3	4775	887.979856965594	7
3	4778	888.434853536632	6
3	4782	888.514208318861	7
3	4784	888.726539157514	8
3	4785	889.14133781171	7
3	4788	889.725426740894	6
3	4792	889.757749805796	7
3	4794	889.774227596037	8
3	4795	890.578761060718	7
3	4799	890.896914836127	8
3	4801	891.247564016886	9
3	4802	891.346438265215	8
3	4805	892.123073714362	7
3	4808	892.902301276424	6
3	4812	892.952925014638	7
3	4814	893.141244870047	8
3	4815	893.401380812745	7
3	4818	893.915617507878	6
3	4822	894.052122418707	7
3	4823	894.797898984696	6
3	4827	894.977593916346	7
3	4828	895.246632323177	6
3	4831	895.863442746685	5
3	4835	895.897534321545	6
3	4837	896.37313491252	7
3	4838	896.534842038197	6
3	4842	897.004347772342	7
3	4843	897.048061726145	6
3	4846	897.516944558449	5
3	4850	897.757819707865	6
3	4852	897.919442994608	7
3	4853	898.00290233879	6
3	4856	898.445663946072	5
3	4860	898.477073139043	6
3	4862	898.544822533793	7
3	4863	899.089420789617	6
3	4866	899.820946237209	5
3	4870	900.429316956333	6
3	4871	900.595529824818	5
3	4875	900.667839090517	6
3	4877	901.066040198389	7
3	4879	901.22649753598	8
3	4881	901.262558742007	9
3	4882	901.454083012321	8
3	4886	901.653701544442	9
3	4887	902.212455666714	8
3	4891	902.396530447695	9
3	4898	902.984699476695	10
3	4899	903.401427425068	9
3	4907	904.654913165091	8
3	4911	904.661124117574	9
3	4918	905.702565923108	10
3	4919	906.323883180317	9
3	4928	907.31795359983	10
3	4930	907.372701293301	11
3	4931	907.891328952272	10
3	4940	908.531107913065	11
3	4941	909.099671896683	10
3	4950	910.132706668451	11
3	4951	910.280068151835	10
3	4959	911.251317931941	9
3	4965	911.593719489531	10
3	4969	912.809761736445	9
3	4973	912.893835031751	10
3	4974	913.450338198706	9
3	4982	915.083380011185	8
3	4985	915.538228022628	7
3	4989	916.188341180218	8
3	4991	916.388823920452	9
3	4992	916.527735542967	8
3	4995	917.120456944914	7
3	4998	917.688659697022	6
3	5002	917.926106670976	7
3	5003	918.130616639364	6
3	5007	918.633351725958	7
3	5008	919.00337818204	6
3	5012	919.509210815496	7
3	5013	919.909953552434	6
3	5019	920.315957712318	7
3	5029	921.584123682437	8
3	5031	921.623435212465	9
3	5033	921.730945143172	10
3	5040	922.409503522282	11
3	5041	922.858706619866	10
3	5045	923.290627377433	11
3	5054	923.764134681238	12
3	5073	927.480148947142	11
3	5079	928.177349997813	12
3	5083	929.15612111529	11
3	5086	929.752994422006	10
3	5092	929.931202015837	11
3	5096	930.968976896998	10
3	5099	931.438820753197	9
3	5103	931.461039497999	10
3	5104	932.193401569265	9
3	5107	933.145384872749	8
3	5110	933.913109911371	7
3	5113	934.583097919634	6
3	5117	934.899131118982	7
3	5118	935.009932107104	6
3	5121	935.617393136768	5
3	5125	935.718612525374	6
3	5126	936.410606415429	5
3	5130	936.55168979791	6
3	5132	936.916484931317	7
3	5133	937.08143888004	6
3	5136	937.517954307048	5
3	5140	937.669784323761	6
3	5142	938.428774315655	7
3	5143	938.474111394722	6
3	5146	939.04848536928	5
3	5149	939.794677116208	4
3	5153	939.82027604333	5
3	5155	940.049057554031	6
3	5157	940.613878319341	7
3	5158	940.652330820447	6
3	5166	942.317012439573	5
3	5172	942.78173293294	6
3	5174	942.917805182795	7
3	5179	943.084089701634	8
3	5180	943.694913567089	7
3	5188	944.835916949201	6
3	5194	945.253035369919	7
3	5198	945.841694488141	6
3	5204	946.040215415051	7
3	5211	947.037479577667	8
3	5220	948.847572597067	7
3	5228	950.235053871523	6
3	5232	950.609750496127	7
3	5238	951.634668453175	6
3	5244	952.081362804158	7
3	5249	952.455457206252	8
3	5250	952.892027947583	7
3	5259	953.958089164417	8
3	5260	954.326264869186	7
3	5269	955.117116921299	8
3	5271	955.214820358419	9
3	5272	955.817067275147	8
3	5275	956.59436722635	7
3	5281	957.155303566602	8
3	5285	957.944771295177	7
3	5293	959.306854849538	6
3	5302	960.150683727302	7
3	5303	960.680218934451	6
3	5307	960.854350032716	7
3	5308	961.490199010956	6
3	5311	962.023809724531	5
3	5315	962.625100411555	6
3	5317	962.688563262948	7
3	5318	962.880785034687	6
3	5324	963.599333000998	7
3	5329	964.430554359194	8
3	5330	964.447821165152	7
3	5334	964.467546234398	8
3	5341	965.380284721521	9
3	5342	965.851537983069	8
3	5345	966.715549138045	7
3	5348	967.286958010444	6
3	5351	967.919323776193	5
3	5355	968.090413839258	6
3	5356	968.599261661476	5
3	5360	969.085996242389	6
3	5361	969.291072720472	5
3	5364	969.705153640822	4
3	5367	970.259534285214	3
3	5370	971.208781725584	2
3	5373	972.131523939265	1
3	5377	972.423960953506	2
3	5379	972.551369054945	3
3	5381	972.788009827096	4
3	5383	972.970552217827	5
3	5384	973.053567796523	4
3	5388	973.08445419067	5
3	5390	973.410262665808	6
3	5392	973.695085502352	7
3	5393	973.95750634479	6
3	5397	974.29372407123	7
3	5398	974.522331729854	6
3	5401	975.263128492466	5
3	5404	975.718555100399	4
3	5407	976.294740506911	3
3	5411	976.30807966307	4
3	5413	976.382675998133	5
3	5414	977.098427238592	4
3	5418	977.430702138529	5
3	5419	978.07961695776	4
3	5422	978.56859458191	3
3	5425	978.982104752768	2
3	5429	979.23325173861	3
3	5431	979.974836559193	4
3	5432	979.977100317642	3
3	5436	979.987101385857	4
3	5437	980.73696529348	3
3	5440	981.332383567044	2
3	5444	981.843002749894	3
3	5445	981.977641678458	2
3	5448	982.714364092514	1
3	5451	983.133474161053	0
3	5455	983.319669873223	1
3	5456	983.98225176483	0
3	5460	984.709008919223	1
3	5461	984.808349920386	0
3	5465	985.126813187119	1
3	5466	985.40069565591	0
3	5502	993.238835838858	1
3	5507	993.652252882526	2
3	5509	993.880258923496	3
3	5510	994.232871998175	2
3	5514	994.437684483378	3
3	5516	994.440167229485	4
3	5518	994.935825944078	5
3	5524	995.680856446996	4
3	5533	996.317388813473	5
3	5544	998.344943062011	4
3	5553	998.952347800104	5
3	5554	999.42044451477	4
3	5557	999.854064769279	3
3	5561	1000.801432103863	4
3	5562	1000.807271123193	3
3	5565	1001.387059310153	2
3	5568	1001.881746427324	1
3	5572	1002.504308549422	2
3	5573	1002.665124561573	1
3	5576	1003.510630910965	0
3	5590	1005.19706349371	1
3	5591	1005.721462895176	0
3	5595	1005.911228640708	1
3	5597	1005.926495540363	2
3	5599	1005.976214817361	3
3	5600	1006.316872327649	2
3	5604	1006.676836942723	3
3	5605	1007.275401956742	2
3	5608	1007.867062687236	1
3	5612	1008.065522019446	2
3	5614	1008.090459372534	3
3	5615	1008.360037179585	2
3	5619	1008.822234532697	3
3	5620	1008.906454376565	2
3	5624	1009.261489859466	3
3	5625	1009.432580377502	2
3	5629	1009.763195373224	3
3	5630	1010.29226995885	2
3	5634	1010.544220264674	3
3	5635	1011.239111145787	2
3	5639	1011.287910716992	3
3	5640	1011.659079051685	2
3	5648	1013.133106116267	1
3	5652	1013.637144674555	2
3	5653	1013.9383431459	1
3	5657	1014.2927017074	2
3	5658	1014.594855194042	1
3	5662	1015.21244724291	2
3	5664	1015.328037439831	3
3	5665	1015.587436370846	2
3	5668	1016.051436401174	1
3	5671	1016.520700838199	0
3	5675	1016.521851795014	1
3	5677	1016.625430226077	2
3	5678	1017.065243969733	1
3	5682	1017.162515642454	2
3	5683	1017.689296380352	1
3	5686	1018.34593480161	0
3	5700	1020.125642760056	1
3	5701	1020.908294412295	0
3	5760	1033.658391684556	1
3	5761	1034.149485635956	0
3	5770	1035.163091949519	1
3	5771	1035.815248526599	0
3	5855	1085.802939001642	1
3	5856	1085.810403519216	0
3	5932	1102.20078378784	1
3	5962	1106.343090936786	2
3	5963	1106.678025700946	1
3	5974	1108.077556987888	2
3	5989	1110.258063707967	3
3	5995	1111.273421611128	2
3	6006	1112.296918512138	3
3	6010	1113.160959566993	2
3	6019	1114.126182954479	3
3	6020	1114.265560738559	2
3	6036	1115.922330671303	3
3	6045	1118.288952326917	2
3	6049	1118.315731180337	3
3	6055	1119.762329366387	2
3	6059	1119.885106034687	3
3	6065	1121.113984725813	2
3	6068	1121.944496830555	1
3	6076	1123.189530590086	0
3	6082	1123.304723214477	1
3	6086	1124.799035452122	0
3	6092	1125.004225835128	1
3	6094	1125.237366610204	2
3	6099	1125.761940845768	3
3	6100	1125.96181064388	2
3	6103	1126.83506954564	1
3	6107	1126.848662438128	2
3	6109	1127.153038470922	3
3	6110	1127.331806974674	2
3	6114	1127.887371500947	3
3	6115	1128.247098901311	2
3	6119	1128.545544093746	3
3	6120	1128.999801093854	2
3	6124	1129.509999856452	3
3	6125	1129.731594624465	2
3	6129	1129.904885346933	3
3	6130	1130.384838947981	2
3	6133	1131.133460712993	1
3	6136	1131.696265887703	0
3	6150	1133.449783521	1
3	6152	1133.679334181592	2
3	6153	1133.817969624181	1
3	6156	1134.754281599442	0
3	6165	1136.839857153179	1
3	6167	1136.857731457834	2
3	6168	1137.383176182582	1
3	6176	1138.640190839907	0
3	6180	1138.641979656018	1
3	6182	1138.988668939868	2
3	6183	1139.547759873746	1
3	6191	1140.699013887579	0
3	6195	1141.201344917581	1
3	6201	1142.450755508711	0
3	6207	1142.91922503462	1
3	6212	1143.048115851938	2
3	6214	1143.202508418661	3
3	6215	1143.766841161765	2
3	6224	1144.817231028165	3
3	6225	1145.228709618935	2
3	6228	1145.964701878002	1
3	6232	1146.31525966819	2
3	6233	1146.639551419022	1
3	6242	1148.168892174504	2
3	6244	1148.223749734541	3
3	6245	1148.3697440377	2
3	6248	1148.778886128918	1
3	6252	1148.935934129966	2
3	6253	1149.505346349536	1
3	6256	1150.243373819769	0
3	6260	1150.724198640179	1
3	6261	1150.751208113416	0
3	6265	1150.950719141493	1
3	6266	1151.368904747444	0
3	6270	1151.730709880156	1
3	6271	1152.332234305518	0
3	6275	1152.548468798552	1
3	6277	1152.725152568858	2
3	6278	1153.122877215876	1
3	6281	1153.834319640233	0
3	6285	1153.931945080026	1
3	6287	1153.938038566697	2
3	6289	1153.958877596759	3
3	6290	1154.454627202174	2
3	6293	1155.085592713721	1
3	6296	1155.603351888435	0
3	6300	1156.141301127791	1
3	6302	1156.323190228514	2
3	6303	1156.461202201389	1
3	6307	1156.594206546975	2
3	6308	1157.179910115434	1
3	6311	1158.146575429991	0
3	6317	1158.694067728805	1
3	6321	1159.868509657869	0
3	6335	1161.72781736394	1
3	6337	1161.851947751127	2
3	6338	1162.49115150126	1
3	6342	1162.702788230331	2
3	6356	1164.269912232751	3
3	6366	1165.995569239422	4
3	6367	1166.73596367135	3
3	6371	1167.119745512704	4
3	6372	1167.200761869804	3
3	6378	1167.493504474659	4
3	6385	1167.970243115788	5
3	6390	1168.638407611591	6
3	6392	1168.927524567297	7
3	6393	1169.494077318882	6
3	6402	1170.495786483723	7
3	6403	1170.732945355329	6
3	6412	1171.925690216168	7
3	6413	1172.079816609829	6
3	6421	1173.776252764998	5
3	6429	1174.989326063985	4
3	6433	1175.014456271302	5
3	6440	1175.968349812145	6
3	6441	1176.47985150197	5
3	6444	1177.04530329348	4
3	6447	1177.857393362116	3
3	6450	1178.365016367961	2
3	6453	1178.871356125525	1
3	6457	1178.963727165563	2
3	6458	1179.667430157796	1
3	6462	1180.091234701164	2
3	6463	1180.632570245373	1
3	6466	1181.444425655366	0
3	6485	1185.946414149682	1
3	6487	1186.448864905648	2
3	6488	1186.510225355254	1
3	6491	1187.214676467843	0
3	6495	1187.432791095491	1
3	6501	1188.527958542064	0
3	6530	1193.577369493991	1
3	6531	1193.850302923122	0
3	6540	1194.68127153352	1
3	6541	1195.637349100156	0
3	6550	1196.67345977756	1
3	6551	1197.167718168	0
3	6570	1199.255401291572	1
3	6571	1199.887791620618	0
3	6580	1200.59763677982	1
3	6581	1200.977960192602	0
3	6605	1204.859878564082	1
3	6606	1205.440491413075	0
3	6795	1261.432325256119	1
3	6797	1261.858907445668	2
3	6798	1262.0547077457	1
3	6802	1262.382581055169	2
3	6809	1263.550839503042	3
3	6810	1263.625324595305	2
3	6824	1265.139536070293	3
3	6841	1267.272580069216	4
3	6842	1268.089471096131	3
3	6845	1268.496741400803	2
3	6854	1269.854890499857	3
3	6855	1270.07189454744	2
3	6859	1270.236585665746	3
3	6860	1271.003809072174	2
3	6863	1271.65576936901	1
3	6866	1272.117460323036	0
3	6870	1272.804931290025	1
3	6871	1273.105901113902	0
3	6900	1277.617073924114	1
3	6902	1277.891562804724	2
3	6903	1278.061154488128	1
3	6907	1278.147962089949	2
3	6913	1279.484024158751	1
3	6917	1279.568805830281	2
3	6919	1280.250583645118	3
3	6920	1280.254283962564	2
3	6926	1280.304775317701	3
3	6928	1280.416385906956	4
3	6933	1281.293761318977	5
3	6934	1281.713257845843	4
3	6937	1282.383669027479	3
3	6941	1282.449022066307	4
3	6942	1283.218576929837	3
3	6946	1283.435511932073	4
3	6947	1283.952380552168	3
3	6951	1284.334347998109	4
3	6952	1284.739684197658	3
3	6956	1285.05013546381	4
3	6957	1285.661881121041	3
3	6960	1286.314728001252	2
3	6963	1286.756205878992	1
3	6966	1287.189729423242	0
3	6970	1287.453474821562	1
3	6972	1287.555383246924	2
3	6973	1287.73351668774	1
3	6976	1288.483381146033	0
3	6985	1289.751184971747	1
3	6987	1290.333249414558	2
3	6988	1290.402801332525	1
3	6992	1290.587091285528	2
3	6993	1291.176983955032	1
3	6996	1291.830648200861	0
3	7000	1292.046920633989	1
3	7001	1292.512738685305	0
3	7005	1293.18082976599	1
3	7006	1293.509948509973	0
3	7015	1295.077829532381	1
3	7016	1295.212738872729	0
3	7025	1297.530036437616	1
3	7026	1297.597937165366	0
3	7030	1297.776665053103	1
3	7037	1298.556250527755	2
3	7038	1298.686723756676	1
3	7041	1299.487759928012	0
3	7045	1299.818636191113	1
3	7046	1300.301584618518	0
3	7080	1309.506414165255	1
3	7081	1310.250255921922	0
3	7100	1312.652512745245	1
3	7101	1313.446347157964	0
3	7110	1314.912191012727	1
3	7111	1315.133028338132	0
3	7145	1330.317274371628	1
3	7146	1330.812785831673	0
3	7150	1330.877188192122	1
3	7152	1330.976686764572	2
3	7153	1331.706810549015	1
3	7156	1332.222740214804	0
3	7175	1337.621520886149	1
3	7176	1338.347857942885	0
3	7190	1339.679292200919	1
3	7192	1340.016162076442	2
3	7199	1340.793204059816	3
3	7200	1340.990124917377	2
3	7221	1344.150065700302	3
3	7230	1345.725798108776	2
3	7239	1346.613460534934	3
3	7240	1347.022673700119	2
3	7249	1347.783689157861	3
3	7251	1348.040120554304	4
3	7252	1348.143264995117	3
3	7261	1349.588357415209	4
3	7262	1349.660277701842	3
3	7265	1350.27952584822	2
3	7268	1351.071195139804	1
3	7271	1351.636787500161	0
3	7275	1351.847933624507	1
3	7276	1352.144537438474	0
3	7285	1353.322416534129	1
3	7286	1353.916013934128	0
3	7292	1354.440942850601	1
3	7296	1355.169111128655	0
3	7315	1358.171132503633	1
3	7316	1358.38516631509	0
3	7322	1358.640488272465	1
3	7334	1359.923605227362	2
3	7339	1360.088300162454	3
3	7340	1360.766367759797	2
3	7349	1362.024618918919	3
3	7350	1362.354271080912	2
3	7359	1363.27927346254	3
3	7360	1363.990563374347	2
3	7364	1364.229126650031	3
3	7365	1364.920597077821	2
3	7369	1364.973855640187	3
3	7371	1365.366838697052	4
3	7372	1365.433777760024	3
3	7376	1365.592969243403	4
3	7377	1366.014487802944	3
3	7381	1366.372446733415	4
3	7382	1366.842841537026	3
3	7386	1366.904316816542	4
3	7387	1367.47331785961	3
3	7391	1367.792138290201	4
3	7392	1368.218930811118	3
3	7395	1368.628376460923	2
3	7398	1369.447184550911	1
3	7401	1369.916504005911	0
3	7405	1370.047497178604	1
3	7406	1370.909755669311	0
3	7420	1374.640762199266	1
3	7421	1375.408316907863	0
3	7425	1375.480982144045	1
3	7426	1376.220318979229	0
3	7430	1376.8537869971	1
3	7431	1377.060615705903	0
3	7435	1377.668455132894	1
3	7436	1378.009774806043	0
3	7445	1379.657027257347	1
3	7446	1379.755994512074	0
3	7477	1391.666151533738	1
3	7492	1393.749395778116	2
3	7503	1395.697812901088	1
3	7509	1396.518425325164	2
3	7518	1398.033182943076	1
3	7521	1398.646877302857	0
3	7525	1398.671834556158	1
3	7532	1399.359093364248	2
3	7533	1399.74084792428	1
3	7541	1401.1784538788	0
3	7545	1401.194196714202	1
3	7547	1401.200338906884	2
3	7554	1401.854254759487	3
3	7555	1402.511153667441	2
3	7564	1403.567198818499	3
3	7565	1403.783529843597	2
3	7568	1404.293358644072	1
3	7571	1404.930812181599	0
3	7595	1410.966535805643	1
3	7596	1411.352570237968	0
3	7600	1411.467090458277	1
3	7601	1412.253928499626	0
3	7605	1413.125736239847	1
3	7606	1413.182674097925	0
3	7610	1413.268277815024	1
3	7612	1413.600452384168	2
3	7613	1414.074445716667	1
3	7616	1414.8703136005	0
3	7625	1416.202741393263	1
3	7627	1416.244601625758	2
3	7629	1416.44598406646	3
3	7630	1416.50320555927	2
3	7633	1417.399147770654	1
3	7637	1417.798948126342	2
3	7638	1418.183709091281	1
3	7642	1418.336198139091	2
3	7643	1419.076337686002	1
3	7646	1419.669707165805	0
3	7660	1423.36932775371	1
3	7661	1423.575637228294	0
3	7665	1423.88942711979	1
3	7666	1424.399098290848	0
3	7675	1426.090428637825	1
3	7676	1426.676363721964	0
3	7680	1426.796469571579	1
3	7681	1427.203241922994	0
3	7695	1430.745624312169	1
3	7696	1431.028194445351	0
3	7710	1432.517845312951	1
3	7711	1433.396951478038	0
3	7720	1435.046437549476	1
3	7721	1435.425548692758	0
3	7730	1437.504650573978	1
3	7732	1437.876430618952	2
3	7733	1437.876651940651	1
3	7737	1438.278995965096	2
3	7738	1438.354330363141	1
3	7742	1438.654770100275	2
3	7743	1439.111317606287	1
3	7747	1439.347991085886	2
3	7748	1439.784849244885	1
3	7752	1440.380062186318	2
3	7753	1440.398449017683	1
3	7756	1440.816921027673	0
3	7775	1446.602994630176	1
3	7777	1446.636964615344	2
3	7779	1446.857589338864	3
3	7780	1447.31562472102	2
3	7784	1447.868718698612	3
3	7785	1447.929565499814	2
3	7789	1448.212710085247	3
3	7790	1448.37739183828	2
3	7794	1448.433029805626	3
3	7795	1449.256563070647	2
3	7798	1449.81095734555	1
3	7802	1449.998399338239	2
3	7803	1450.335879015221	1
3	7806	1450.750082538088	0
3	7815	1451.583030954959	1
3	7817	1452.132534084602	2
3	7819	1452.151667208235	3
3	7825	1453.297191672064	2
3	7834	1454.046939346698	3
3	7835	1454.319244429227	2
3	7841	1454.780626985482	3
3	7845	1455.523100658217	2
3	7854	1456.610297755221	3
3	7856	1456.853963938634	4
3	7857	1456.907459845151	3
3	7863	1457.535605205952	4
3	7865	1457.54687646474	5
3	7869	1458.237367644337	4
3	7878	1459.08386673003	5
3	7879	1459.363652413282	4
3	7885	1459.693354593743	5
3	7890	1460.929954139857	6
3	7891	1460.979173576309	5
3	7899	1462.169761631302	4
3	7903	1462.322392935215	5
3	7907	1462.727454189665	6
3	7912	1463.263052059067	7
3	7913	1463.571171186063	6
3	7921	1464.870605247458	5
3	7925	1465.388781796356	6
3	7926	1465.39736156933	5
3	7935	1466.131897536256	6
3	7936	1466.32809772444	5
3	7945	1467.707445029693	6
3	7946	1467.868429253754	5
3	7955	1468.830283910855	6
3	7956	1469.002146734149	5
3	7959	1469.462791411803	4
3	7967	1469.712133422199	5
3	7977	1471.082936619227	6
3	7999	1473.591777523892	7
3	8011	1475.133348664023	8
3	8025	1477.472467622712	7
3	8029	1478.024044275975	8
3	8030	1478.277633010402	7
3	8034	1478.639309810884	8
3	8035	1479.267007958788	7
3	8039	1479.4721858135	8
3	8040	1479.750392354318	7
3	8044	1480.046594383673	8
3	8045	1480.177253284809	7
3	8048	1481.018277057904	6
3	8052	1481.045539069501	7
3	8053	1481.829293402928	6
3	8056	1482.306347392351	5
3	8059	1482.712781569074	4
3	8062	1483.571643499929	3
3	8065	1484.04816636461	2
3	8069	1484.608816286893	3
3	8070	1485.015156051555	2
3	8073	1485.963784598877	1
3	8076	1486.65240244208	0
3	8080	1486.723238029287	1
3	8081	1487.115316296221	0
3	8095	1491.392528891926	1
3	8097	1491.71123685475	2
3	8098	1491.772083012982	1
3	8107	1492.86636501406	2
3	8108	1493.152592968883	1
3	8117	1494.820253632139	2
3	8118	1494.867671193916	1
3	8124	1495.423388395992	2
3	8128	1496.249658899883	1
3	8132	1496.26893320132	2
3	8136	1496.462511052709	3
3	8138	1496.493004972926	4
3	8140	1496.534681423592	5
3	8145	1497.125831175741	6
3	8147	1497.2380828089	7
3	8148	1497.460155935714	6
3	8151	1497.883122691827	5
3	8155	1498.456727420473	6
3	8156	1498.612128035992	5
3	8159	1499.538779087772	4
3	8162	1500.100787154666	3
3	8166	1500.267773526044	4
3	8167	1500.525720915326	3
3	8171	1500.763526950968	4
3	8172	1501.437325085082	3
3	8176	1501.453740780115	4
3	8177	1501.849364671145	3
3	8180	1502.775139886966	2
3	8184	1503.242879793387	3
3	8185	1503.303429425588	2
3	8189	1503.895357590089	3
3	8190	1504.003804928284	2
3	8194	1504.380093078244	3
3	8196	1504.656189599689	4
3	8198	1504.743883650391	5
3	8199	1504.991461315924	4
3	8203	1505.005848998971	5
3	8204	1505.872425253397	4
3	8208	1506.034412277147	5
3	8210	1506.329712501987	6
3	8211	1506.658393845834	5
3	8214	1507.30495548261	4
3	8218	1508.016225821596	5
3	8219	1508.260827854775	4
3	8223	1508.360783543984	5
3	8225	1508.671255920996	6
3	8226	1509.074015772237	5
3	8230	1509.09672364357	6
3	8232	1509.412815144671	7
3	8233	1509.62625422863	6
3	8236	1510.389529040909	5
3	8240	1510.962694404772	6
3	8242	1510.9923414279	7
3	8244	1511.007165262725	8
3	8245	1511.34875471749	7
3	8249	1512.121273556854	8
3	8250	1512.254646658652	7
3	8253	1512.845831311714	6
3	8256	1513.575768546794	5
3	8259	1514.10024773915	4
3	8262	1514.537617466493	3
3	8265	1515.1874196282	2
3	8269	1515.467629364762	3
3	8271	1516.081395028992	4
3	8272	1516.157513992616	3
3	8276	1516.594951762311	4
3	8277	1516.803469107474	3
3	8280	1517.642205157305	2
3	8284	1517.763840159574	3
3	8286	1518.077033384679	4
3	8288	1518.396043591095	5
3	8289	1518.563906809675	4
3	8293	1518.959927645951	5
3	8294	1519.12752964351	4
3	8297	1519.656709697318	3
3	8301	1519.993104767834	4
3	8302	1520.139780232764	3
3	8305	1520.81722163147	2
3	8309	1520.858476842077	3
3	8311	1521.154298183806	4
3	8313	1521.197840734067	5
3	8314	1521.779559348325	4
3	8317	1522.306670360208	3
3	8321	1522.765263195079	4
3	8322	1523.083231989095	3
3	8326	1523.086557681282	4
3	8328	1523.203660581513	5
3	8329	1523.941052557049	4
3	8333	1524.675369600112	5
3	8334	1524.83250842922	4
3	8337	1525.599775366658	3
3	8341	1525.768299552804	4
3	8342	1526.089980002945	3
3	8345	1526.87985834166	2
3	8349	1527.081871473027	3
3	8350	1527.47995583097	2
3	8353	1528.312945517884	1
3	8357	1529.248235784261	2
3	8358	1529.309817158883	1
3	8362	1529.580946324152	2
3	8363	1529.752309042947	1
3	8367	1529.861137803956	2
3	8369	1530.086201788096	3
3	8370	1530.651103271484	2
3	8373	1531.112254537675	1
3	8379	1531.918062807381	2
3	8384	1532.037430113626	3
3	8386	1532.465951505601	4
3	8387	1532.484562902605	3
3	8390	1533.220187073327	2
3	8393	1533.961300334507	1
3	8396	1534.947601924404	0
3	8400	1535.03768570173	1
3	8401	1535.808952719332	0
3	8410	1537.290119957324	1
3	8412	1537.36459037024	2
3	8413	1537.588557537557	1
3	8419	1538.204562853011	2
3	8424	1538.950476746588	3
3	8425	1539.383959058305	2
3	8434	1540.855398647216	3
3	8435	1541.355434647766	2
3	8438	1541.8653615573	1
3	8442	1542.063018429941	2
3	8449	1542.697581064972	3
3	8450	1543.308732156507	2
3	8456	1543.54502123879	3
3	8461	1544.829787072196	4
3	8462	1544.98645679886	3
3	8471	1545.726921582668	4
3	8472	1545.963641568232	3
3	8475	1546.926537489524	2
3	8479	1547.236893153664	3
3	8480	1547.771869379939	2
3	8483	1548.529154574317	1
3	8487	1548.918964365504	2
3	8488	1548.94239339028	1
3	8492	1549.73210844343	2
3	8493	1549.897955555613	1
3	8497	1549.985145204244	2
3	8498	1550.336436218866	1
3	8502	1550.36120915973	2
3	8503	1550.939202710385	1
3	8507	1551.656014980725	2
3	8508	1551.858915538159	1
3	8514	1552.627411114399	2
3	8518	1553.4395463971	1
3	8524	1554.062717100226	2
3	8528	1554.963065802171	1
3	8546	1557.827019293937	0
3	8565	1561.533956197061	1
3	8566	1561.573692809252	0
3	8570	1561.763775601791	1
3	8571	1562.022666189374	0
3	8575	1562.130080907023	1
3	8576	1562.842569648681	0
3	8585	1564.581395914446	1
3	8586	1564.856001321478	0
3	8595	1566.346592573146	1
3	8596	1566.34930597689	0
3	8600	1566.408474553823	1
3	8601	1567.197437463896	0
3	8605	1567.528170688027	1
3	8606	1567.77073774781	0
3	8615	1569.396393595923	1
3	8617	1569.699117357615	2
3	8618	1569.840678683138	1
3	8621	1570.608441930386	0
3	8635	1573.018563682183	1
3	8637	1573.35833885985	2
3	8639	1573.618063140524	3
3	8640	1573.696477897896	2
3	8643	1574.169731212233	1
3	8646	1575.05615842446	0
3	8655	1576.472617297452	1
3	8657	1576.786941295612	2
3	8658	1576.94900201143	1
3	8661	1577.9342215102	0
3	8665	1578.430425403963	1
3	8666	1578.5817268533	0
3	8670	1578.74475850669	1
3	8672	1578.822974143703	2
3	8674	1578.822983895641	3
3	8676	1578.915623846849	4
3	8677	1579.111106876686	3
3	8681	1579.119370906125	4
3	8682	1579.62465798313	3
3	8685	1580.224834029453	2
3	8689	1580.25945621959	3
3	8691	1580.324102439042	4
3	8693	1580.42773557732	5
3	8694	1580.978572938668	4
3	8698	1580.994700374372	5
3	8699	1581.639597446129	4
3	8703	1581.849984799012	5
3	8704	1582.195576272749	4
3	8708	1582.200914347798	5
3	8709	1582.896628609796	4
3	8712	1583.661046542677	3
3	8715	1584.547980323604	2
3	8719	1584.945015045848	3
3	8721	1585.318703040166	4
3	8722	1585.349790444116	3
3	8725	1586.035030882976	2
3	8728	1586.732701210941	1
3	8731	1587.144190631372	0
3	8740	1588.948095341755	1
3	8742	1588.957316537515	2
3	8743	1589.489682467957	1
3	8747	1589.764844728021	2
3	8748	1589.9825738888	1
3	8751	1590.536417944985	0
3	8760	1591.747725929964	1
3	8762	1591.858808971995	2
3	8763	1592.134826764394	1
3	8772	1593.301140360896	2
3	8773	1593.360842204954	1
3	8781	1594.55662690678	0
3	8787	1595.066116104633	1
3	8789	1595.311843731251	2
3	8803	1596.938574041111	3
3	8820	1599.474633159138	2
3	8829	1600.320197562269	3
3	8830	1600.955760636296	2
3	8833	1601.919033005902	1
3	8837	1602.273613980263	2
3	8838	1602.86617888396	1
3	8842	1603.410188834761	2
3	8843	1603.797959303272	1
3	8846	1604.279471764316	0
3	8855	1606.693856965422	1
3	8857	1607.164409386783	2
3	8858	1607.486816567633	1
3	8861	1608.443780830627	0
3	8870	1609.614929334959	1
3	8871	1610.186393463362	0
3	8885	1613.163383502776	1
3	8887	1613.509340467468	2
3	8888	1613.63446616995	1
3	8894	1613.749189324082	2
3	8896	1614.004960294556	3
3	8900	1615.243537628221	2
3	8906	1615.953016499174	3
3	8911	1616.703460150088	4
3	8912	1616.831777638233	3
3	8915	1617.61591689064	2
3	8919	1617.674960428504	3
3	8920	1618.033535477601	2
3	8924	1618.436784750905	3
3	8925	1618.995350369753	2
3	8929	1619.558291021328	3
3	8930	1619.730048662739	2
3	8934	1619.88680078694	3
3	8935	1620.649751689134	2
3	8939	1620.967186821772	3
3	8940	1621.501272743743	2
3	8944	1621.723289117118	3
3	8945	1622.343159645133	2
3	8949	1622.464323098431	3
3	8950	1623.185599758977	2
3	8954	1623.507705973223	3
3	8955	1623.711864410842	2
3	8959	1623.836450265032	3
3	8960	1624.486878186779	2
3	8963	1624.938160721294	1
3	8967	1625.525866296534	2
3	8968	1625.621505547769	1
3	8972	1626.303892049176	2
3	8973	1626.507181344868	1
3	8976	1626.925128984952	0
3	8980	1627.053671941608	1
3	8981	1627.482174771268	0
3	8985	1627.503767032976	1
3	8987	1627.724738888911	2
3	8988	1628.196932809137	1
3	8992	1628.23325923199	2
3	8993	1628.740117412701	1
3	8997	1628.793552128755	2
3	8998	1629.193954867532	1
3	9001	1629.924068427959	0
3	9015	1631.896503991717	1
3	9016	1632.46016484738	0
3	9030	1634.155144778325	1
3	9031	1634.599695342783	0
3	9040	1636.650662027279	1
3	9041	1636.959239120316	0
3	9050	1637.88649581311	1
3	9052	1638.069893050574	2
3	9053	1638.268909772626	1
3	9056	1639.127935370897	0
3	9080	1644.443060750865	1
3	9081	1644.798620351489	0
3	9090	1645.647362834112	1
3	9091	1645.973121675329	0
3	9110	1658.07841403168	1
3	9111	1658.431281080693	0
3	9115	1658.813547552721	1
3	9116	1659.424390020818	0
3	9122	1659.648184675754	1
3	9127	1660.127562720173	2
3	9128	1660.788037881107	1
3	9131	1661.777341960781	0
3	9165	1671.352380780983	1
3	9166	1671.719746479142	0
3	9180	1673.581006774158	1
3	9181	1674.262820556938	0
3	9190	1675.694994020937	1
3	9191	1675.867897603641	0
3	9200	1676.389683090904	1
3	9201	1676.809022387889	0
3	9205	1677.217262586756	1
3	9206	1677.280198135207	0
3	9215	1677.926916360838	1
3	9222	1679.068345321852	2
3	9223	1679.282307031637	1
3	9242	1681.315977809961	2
3	9246	1681.679828491938	3
3	9251	1682.002674366342	4
3	9260	1683.322117462792	5
3	9264	1684.194218559404	4
3	9268	1684.55488941272	5
3	9269	1684.913046903097	4
3	9273	1685.015922402829	5
3	9274	1685.488274273443	4
3	9282	1685.840212272932	5
3	9294	1686.821367898326	6
3	9321	1691.267129563615	5
3	9344	1693.26536185531	6
3	9346	1693.629948835303	7
3	9373	1698.744693081995	6
3	9391	1701.650072315226	5
3	9400	1702.473181324605	6
3	9402	1702.625031578248	7
3	9403	1702.866623479857	6
3	9406	1703.296377055983	5
3	9420	1704.706615278368	6
3	9422	1704.796293633628	7
3	9423	1705.089917913622	6
3	9436	1705.803996066779	7
3	9448	1707.036220540303	8
3	9460	1709.223934678564	9
3	9480	1712.561604284436	10
3	9504	1715.9142195226	9
3	9512	1717.613463674563	8
3	9521	1718.471815719855	9
3	9528	1719.337854349435	10
3	9549	1722.213175404429	9
3	9552	1722.841858258595	8
3	9563	1724.20417727112	9
3	9567	1725.135050161353	8
3	9578	1726.233737601536	9
3	9598	1729.705761020049	10
3	9599	1730.121444816872	9
3	9607	1731.29271491201	8
3	9613	1731.933727081543	9
3	9618	1732.276702744926	10
3	9619	1732.79344340673	9
3	9627	1734.019875864156	8
3	9630	1734.981128222758	7
3	9634	1735.12345247457	8
3	9635	1735.647590782849	7
3	9638	1736.417466480361	6
3	9641	1737.265330776881	5
3	9644	1737.947504464566	4
3	9648	1738.016173385907	5
3	9652	1738.589161700069	6
3	9654	1738.740676573387	7
3	9659	1739.32630053221	8
3	9660	1739.850247315067	7
3	9664	1739.896741031969	8
3	9671	1741.314481391884	9
3	9673	1741.539550907866	10
3	9674	1741.682954677549	9
3	9685	1742.641806999757	10
3	9687	1742.919409227242	11
3	9706	1746.060497436049	10
3	9714	1747.521751254406	9
3	9717	1748.358991879532	8
3	9726	1749.2811749327	9
3	9727	1749.323530558804	8
3	9738	1750.405933822616	9
3	9740	1750.47442932743	10
3	9742	1750.56213553526	11
3	9744	1751.035467109565	12
3	9758	1753.584351979411	11
3	9774	1755.515323520185	12
3	9794	1757.899796817691	13
3	9798	1758.065258634925	14
3	9802	1759.229137706784	13
3	9818	1761.104831964646	14
3	9827	1763.194956712267	13
3	9830	1763.797786327061	12
3	9838	1765.226667809469	11
3	9842	1766.008619738472	12
3	9843	1766.037748563272	11
3	9847	1766.187037950738	12
3	9848	1766.939455871406	11
3	9851	1767.63664156234	10
3	9855	1767.97206668012	11
3	9856	1768.433217000757	10
3	9859	1769.238766316772	9
3	9865	1769.733975987625	10
3	9869	1771.093435931747	9
3	9875	1771.250555165119	10
3	9877	1771.527604077965	11
3	9882	1772.099707035061	12
3	9883	1772.425123304949	11
3	9892	1773.617165761205	12
3	9893	1773.710711730067	11
3	9896	1774.630644043563	10
3	9902	1774.853545530218	11
3	9907	1775.198651154451	12
3	9908	1775.47919489502	11
3	9911	1776.001900420925	10
3	9915	1776.126382316664	11
3	9916	1776.596593266894	10
3	9920	1776.718808194851	11
3	9922	1776.830973648687	12
3	9923	1777.125894145277	11
3	9926	1777.80640963994	10
3	9930	1777.848842709993	11
3	9931	1778.312192570074	10
3	9934	1779.285555362078	9
3	9938	1779.286513505572	10
3	9940	1779.539766934838	11
3	9941	1779.949332197086	10
3	9944	1780.873463604768	9
3	9947	1781.861137547606	8
3	9950	1782.335942560231	7
3	9953	1783.077613403072	6
3	9957	1783.793395043133	7
3	9958	1783.841630436649	6
3	9961	1784.478618173237	5
3	9964	1785.175228360464	4
3	9968	1785.296886018066	5
3	9970	1785.409062411859	6
3	9971	1786.071527316404	5
3	9974	1786.910570718191	4
3	9978	1786.997739722832	5
3	9980	1787.303435140912	6
3	9982	1787.724161701087	7
3	9983	1787.905945960508	6
3	9987	1788.011778801173	7
3	9989	1788.098759334808	8
3	9990	1788.84824022649	7
3	9999	1789.83829534264	8
3	10001	1790.451822212852	9
3	10002	1790.802290805831	8
3	10008	1790.849372063295	9
3	10012	1791.416250136742	10
3	10017	1791.751140998257	11
3	10019	1791.866306851999	12
3	10038	1794.492127468886	11
3	10047	1795.173272812621	12
3	10048	1795.512809412304	11
3	10064	1796.961363871538	12
3	10069	1797.299070795988	13
3	10080	1799.033345131047	12
3	10088	1800.72006868886	11
3	10091	1801.233437280759	10
3	10094	1801.780268193671	9
3	10098	1801.91873523792	10
3	10099	1802.723389952007	9
3	10105	1803.260636548703	10
3	10110	1804.039939117342	11
3	10111	1804.281193105021	10
3	10119	1805.982862950286	9
3	10122	1806.453654997965	8
3	10138	1808.152156592479	9
3	10143	1809.00387868396	10
3	10150	1809.938460261536	11
3	10151	1810.196621133277	10
3	10159	1811.926998953038	9
3	10162	1812.509571225737	8
3	10165	1812.928542781231	7
3	10169	1813.00402263666	8
3	10170	1813.86028570871	7
3	10173	1814.389522084576	6
3	10177	1814.546755165513	7
3	10179	1814.838951028577	8
3	10180	1815.220691204379	7
3	10184	1815.869820434626	8
3	10185	1815.977962344401	7
3	10189	1816.005807262338	8
3	10191	1816.25419884219	9
3	10192	1816.481758339219	8
3	10195	1817.378118181722	7
3	10199	1817.616557519484	8
3	10200	1818.136534542013	7
3	10204	1818.543443722461	8
3	10205	1818.694018672248	7
3	10211	1818.921195536603	8
3	10213	1819.576965428633	9
3	10217	1820.094403455388	8
3	10226	1821.312695699178	9
3	10227	1821.395562113757	8
3	10230	1822.068645465123	7
3	10239	1823.164045053256	8
3	10240	1823.918073214991	7
3	10248	1825.623416480729	6
3	10252	1825.960395859937	7
3	10253	1826.041363949403	6
3	10262	1827.033384148026	7
3	10273	1829.458473568764	6
3	10277	1829.531931527104	7
3	10278	1830.359029917121	6
3	10282	1830.45582743494	7
3	10283	1831.308063536398	6
3	10286	1831.832551195454	5
3	10290	1831.897997301039	6
3	10292	1832.386043769176	7
3	10293	1832.448104451252	6
3	10297	1832.674176006578	7
3	10298	1833.176801779754	6
3	10301	1833.633185590552	5
3	10305	1833.740974830651	6
3	10307	1833.952318035626	7
3	10308	1834.119671961507	6
3	10311	1834.640942056598	5
3	10314	1835.606907832324	4
3	10317	1836.140261517632	3
3	10321	1836.235656642297	4
3	10323	1836.282168745631	5
3	10325	1836.420866879985	6
3	10326	1836.994661981174	5
3	10329	1837.750285853007	4
3	10332	1838.406483597941	3
3	10336	1838.409106228162	4
3	10338	1838.904293465331	5
3	10339	1839.316307276002	4
3	10342	1840.086337043791	3
3	10345	1841.081983384238	2
3	10349	1841.435903463083	3
3	10350	1841.499816189594	2
3	10354	1841.653181936455	3
3	10356	1841.83789665364	4
3	10357	1842.056495819175	3
3	10361	1842.104627071782	4
3	10363	1842.243364494756	5
3	10364	1842.819379768222	4
3	10367	1843.523806437645	3
3	10370	1844.005385391069	2
3	10374	1844.037286773409	3
3	10376	1844.07399685935	4
3	10377	1844.783363150041	3
3	10380	1845.301256333785	2
3	10384	1845.505588229262	3
3	10385	1845.800145176919	2
3	10388	1846.332980631366	1
3	10392	1846.658457769931	2
3	10393	1847.269226912763	1
3	10397	1847.896408783476	2
3	10398	1848.104376146179	1
3	10407	1849.031618596236	2
3	10408	1849.212077959469	1
3	10414	1849.617752370405	2
3	10416	1849.717326723575	3
3	10420	1850.157736597565	2
3	10429	1851.06928172892	3
3	10430	1851.400053390424	2
3	10436	1852.178376189425	3
3	10438	1852.182816269829	4
3	10442	1852.974083122734	3
3	10448	1853.489060079141	4
3	10453	1853.844132089059	5
3	10454	1854.252143250855	4
3	10463	1855.461635036015	5
3	10464	1855.544706287498	4
3	10473	1856.666219574034	5
3	10474	1857.006664831128	4
3	10483	1857.624300645043	5
3	10484	1858.089036101645	4
3	10487	1859.085886394775	3
3	10491	1859.184602680309	4
3	10492	1859.499014746894	3
3	10496	1859.816525416506	4
3	10497	1860.069927572117	3
3	10501	1860.402143094565	4
3	10502	1860.75493890269	3
3	10505	1861.583957506095	2
3	10509	1862.229905409617	3
3	10510	1862.509254490894	2
3	10513	1862.991824104388	1
3	10516	1863.415106204741	0
3	10520	1863.735177804982	1
3	10522	1863.74432231287	2
3	10523	1864.000729757997	1
3	10526	1864.841677108112	0
3	10530	1864.91296442976	1
3	10532	1864.927005634399	2
3	10533	1865.365668391002	1
3	10536	1866.164910002876	0
3	10540	1866.377326703362	1
3	10542	1866.44573376022	2
3	10543	1867.043736556716	1
3	10546	1867.572413863832	0
3	10590	1876.737657933891	1
3	10591	1877.266856450652	0
3	10600	1878.721432805079	1
3	10601	1878.914115228129	0
3	10605	1878.924859883724	1
3	10606	1879.448076900232	0
3	10610	1879.784240952648	1
3	10611	1880.097358738256	0
3	10637	1883.348483197271	1
3	10641	1884.358561830535	0
3	10645	1884.438346968801	1
3	10649	1884.751589271353	2
3	10651	1885.028911474193	3
3	10655	1885.735991760004	2
3	10664	1887.153273089175	3
3	10665	1887.262988934187	2
3	10674	1888.744191593141	3
3	10675	1888.829394540876	2
3	10683	1890.055500767926	1
3	10691	1891.529029761242	0
3	10697	1891.824239413826	1
3	10702	1892.571515388349	2
3	10704	1892.584833822998	3
3	10705	1893.080339438362	2
3	10714	1893.768170790111	3
3	10715	1894.175314175184	2
3	10724	1894.838480098477	3
3	10726	1895.160448245548	4
3	10742	1897.088488598154	3
3	10751	1897.782472686891	4
3	10757	1898.868916833712	3
3	10761	1899.01165876879	4
3	10762	1899.784050349364	3
3	10766	1899.847522654418	4
3	10767	1900.407203338467	3
3	10771	1900.566899272267	4
3	10772	1901.022618804019	3
3	10776	1901.379713671881	4
3	10777	1901.822516433787	3
3	10780	1902.757619839333	2
3	10783	1903.505582269173	1
3	10787	1903.766353722698	2
3	10788	1903.916257239491	1
3	10791	1904.699311937191	0
3	10795	1905.198705408995	1
3	10796	1905.634135806965	0
3	10800	1905.794005076842	1
3	10801	1906.516177448616	0
3	10805	1906.889372613898	1
3	10807	1906.901872718896	2
3	10808	1906.932138958186	1
3	10812	1907.203942848524	2
3	10813	1907.427878319504	1
3	10817	1907.689434479286	2
3	10819	1908.177091727872	3
3	10821	1908.259019541135	4
3	10822	1908.269699153895	3
3	10826	1908.493268119133	4
3	10827	1908.717616392564	3
3	10830	1909.365169390555	2
3	10834	1909.370276348217	3
3	10836	1910.142911783151	4
3	10838	1910.217779921751	5
3	10839	1910.361816543791	4
3	10842	1910.885069948187	3
3	10845	1911.448302293042	2
3	10849	1911.71707468381	3
3	10850	1912.173232566132	2
3	10856	1912.66710979801	3
3	10860	1913.78720779846	2
3	10864	1913.861974286043	3
3	10865	1914.664645879004	2
3	10868	1915.574290768137	1
3	10872	1915.849992698098	2
3	10873	1916.302243098696	1
3	10876	1917.249051085753	0
3	10895	1921.279485771908	1
3	10896	1921.785007084114	0
3	10900	1921.986179938916	1
3	10904	1922.087139476237	2
3	10906	1922.298314766534	3
3	10908	1922.339821065796	4
3	10910	1922.478573001568	5
3	10914	1923.582388699007	4
3	10918	1923.910909037881	5
3	10919	1924.513429394829	4
3	10923	1924.826627060703	5
3	10924	1925.009541186456	4
3	10928	1925.383470034177	5
3	10929	1925.897131460531	4
3	10932	1926.330647654131	3
3	10935	1926.820625591509	2
3	10939	1926.935692503928	3
3	10946	1927.732860110569	4
3	10947	1928.413064960854	3
3	10951	1928.438125512609	4
3	10952	1929.412264750197	3
3	10955	1929.871451969535	2
3	10959	1930.192443529883	3
3	10960	1930.288577998287	2
3	10963	1930.788072266846	1
3	10967	1931.130990523764	2
3	10968	1931.244209816071	1
3	10971	1931.694652074852	0
3	10985	1933.822142804889	1
3	10986	1933.921801990736	0
3	10990	1934.298134861842	1
3	10992	1934.458364389805	2
3	10993	1934.911707486352	1
3	11001	1936.276016277029	0
3	11010	1937.294660859847	1
3	11012	1937.548211198132	2
3	11013	1937.997579111442	1
3	11017	1938.320669250776	2
3	11018	1938.542708378708	1
3	11021	1938.990258760056	0
3	11035	1941.107154703357	1
3	11036	1941.534100438943	0
3	11052	1944.421073836782	1
3	11057	1945.187817551907	2
3	11058	1945.636855153482	1
3	11066	1947.414785225013	0
3	11070	1947.663872422477	1
3	11074	1947.826972619292	2
3	11079	1948.216970940285	3
3	11081	1948.569624797694	4
3	11088	1948.87497856265	5
3	11094	1950.31543702057	4
3	11102	1951.732452965597	3
3	11105	1952.461175489541	2
3	11109	1952.600682491543	3
3	11110	1953.273511980403	2
3	11113	1954.086652308911	1
3	11117	1954.246017324013	2
3	11118	1954.609382970048	1
3	11126	1956.21326950693	0
3	11135	1956.965431195358	1
3	11136	1957.717844272754	0
3	11145	1958.580432782929	1
3	11146	1958.764219186304	0
3	11152	1959.143149052283	1
3	11154	1959.194506119466	2
3	11156	1959.231754781297	3
3	11161	1959.794981715475	4
3	11162	1960.397045954073	3
3	11171	1961.491566639378	4
3	11172	1961.980884478649	3
3	11180	1963.100339505391	2
3	11188	1964.215244540747	1
3	11191	1964.914057302138	0
3	11195	1964.979875062614	1
3	11201	1965.96142134982	0
3	11207	1966.319480192173	1
3	11212	1967.071252716632	2
3	11213	1967.276559240686	1
3	11221	1968.87802215278	0
3	11225	1969.041825243956	1
3	11226	1969.540588861274	0
3	11245	1971.746281359115	1
3	11246	1972.655954467246	0
3	11255	1973.44302040624	1
3	11256	1974.343331272175	0
3	11265	1975.4518306608	1
3	11266	1975.73869062883	0
3	11275	1977.203575578518	1
3	11276	1977.253488862581	0
3	11285	1978.460413808117	1
3	11286	1979.116434056597	0
3	11290	1979.177408230906	1
3	11292	1979.498343944247	2
3	11293	1979.9902989775	1
3	11296	1980.774268758023	0
3	11300	1981.183878931511	1
3	11301	1981.556615433568	0
3	11305	1981.709431712188	1
3	11306	1982.06354522375	0
3	11315	1983.438174736489	1
3	11316	1984.09353581131	0
3	11320	1984.910520806754	1
3	11321	1984.91153179742	0
3	11325	1985.202294494229	1
3	11326	1985.661422568463	0
3	11365	1994.39153055352	1
3	11366	1994.476772888383	0
3	11370	1994.49174807798	1
3	11371	1995.004156183876	0
3	11400	2003.303880586225	1
3	11401	2003.68648884516	0
3	11410	2006.340027577897	1
3	11411	2006.669353043593	0
3	11450	2033.135736564564	1
3	11451	2034.037024485212	0
3	11460	2034.959553959915	1
3	11461	2035.610702255679	0
3	11470	2036.487106017617	1
3	11471	2037.121818571383	0
3	11480	2037.797083644769	1
3	11481	2038.453721313397	0
3	11495	2041.263308774298	1
3	11496	2041.311298131761	0
3	11530	2047.42069307071	1
3	11531	2047.571329529731	0
3	11612	2079.97232962471	1
3	11617	2080.575484786912	2
3	11618	2080.584189538926	1
3	11627	2081.495898911506	2
3	11628	2081.830750227662	1
3	11632	2081.911710135493	2
3	11633	2082.441669273924	1
3	11637	2083.16421087996	2
3	11638	2083.256175579678	1
3	11642	2083.365915274597	2
3	11644	2083.882400563638	3
3	11645	2083.884396863671	2
3	11649	2084.602695012493	3
3	11650	2084.805981167441	2
3	11654	2084.840517372925	3
3	11661	2086.265452442861	4
3	11662	2086.677097383456	3
3	11670	2088.197980481048	2
3	11676	2089.005756646275	3
3	11680	2089.462982971116	2
3	11686	2090.172300377869	3
3	11691	2090.621202970758	4
3	11695	2091.122501252102	5
3	11709	2092.876643597091	4
3	11713	2093.074751453274	5
3	11714	2093.482018884028	4
3	11717	2094.28143436619	3
3	11720	2094.926547909751	2
3	11723	2095.600231644408	1
3	11727	2095.778552489035	2
3	11729	2095.794886624234	3
3	11730	2096.048604712485	2
3	11733	2096.865747891077	1
3	11736	2097.707858559805	0
3	11742	2098.327078657741	1
3	11747	2098.659914746257	2
3	11748	2099.316515723373	1
3	11757	2100.803610396141	2
3	11758	2100.934117209389	1
3	11762	2100.963046966809	2
3	11783	2103.852883254126	3
3	11790	2105.173784623005	2
3	11806	2106.979145851592	3
3	11820	2109.792337841809	2
3	11833	2111.569865389157	1
3	11839	2112.386677735926	2
3	11844	2112.589184556427	3
3	11850	2113.474185349954	4
3	11862	2115.482290069235	3
3	11865	2115.899982259783	2
3	11879	2117.334627126294	3
3	11881	2117.590624943462	4
3	11903	2120.604056302531	5
3	11904	2120.748613303656	4
3	11913	2121.751541733896	5
3	11914	2121.942335178739	4
3	11917	2122.360259242625	3
3	11921	2122.864320005465	4
3	11922	2123.165055734375	3
3	11928	2123.382579946004	4
3	11932	2124.607761603398	3
3	11941	2125.638193264456	4
3	11943	2125.79938088482	5
3	11944	2126.43709061983	4
3	11947	2126.895196251235	3
3	11955	2128.542928803842	2
3	11971	2130.187842190595	3
3	11973	2130.19868614	4
3	11982	2131.846952983821	3
3	11990	2133.353443917251	2
3	11998	2134.509200202898	1
3	12007	2135.228309513971	2
3	12009	2135.245023782328	3
3	12010	2135.367430211409	2
3	12019	2136.315107068885	3
3	12020	2136.842363002795	2
3	12029	2137.525110073356	3
3	12031	2138.128997439389	4
3	12032	2138.345101182155	3
3	12035	2138.996875128468	2
3	12044	2140.002418749699	3
3	12046	2140.300457806738	4
3	12047	2140.333450370367	3
3	12055	2141.282842960527	2
3	12061	2141.65020467438	3
3	12065	2142.316799902489	2
3	12074	2143.319292537469	3
3	12075	2143.827509232929	2
3	12078	2144.499211719951	1
3	12082	2144.720879572706	2
3	12083	2144.945791545084	1
3	12087	2145.448836912753	2
3	12088	2145.461408426466	1
3	12092	2145.944857393693	2
3	12093	2146.075249269225	1
3	12097	2146.432873655145	2
3	12098	2146.713137087545	1
3	12102	2147.010340475837	2
3	12103	2147.30369550166	1
3	12106	2147.978409070469	0
3	12110	2148.317405984498	1
3	12111	2148.83160124984	0
3	12135	2153.294484128431	1
3	12136	2153.48858684453	0
3	12140	2154.132129347222	1
3	12141	2154.161183982648	0
3	12145	2154.30527054964	1
3	12146	2154.969743726522	0
3	12150	2155.097706199271	1
3	12151	2155.382488150316	0
3	12155	2155.49210313935	1
3	12156	2155.88637734617	0
3	12165	2156.492283443948	1
3	12166	2157.166075751532	0
3	12182	2159.634361297638	1
3	12187	2159.922270867332	2
3	12188	2160.631561177953	1
3	12201	2162.633849858942	0
3	12265	2172.77611941983	1
3	12266	2173.314690227104	0
3	12277	2174.385079990872	1
3	12282	2174.996959881912	2
3	12284	2175.166172839677	3
3	12285	2175.392218466251	2
3	12294	2176.386564470813	3
3	12295	2177.009077149964	2
3	12303	2178.457206611157	1
3	12314	2179.322467763549	2
3	12318	2180.031027782949	1
3	12356	2185.069161865404	0
3	12370	2186.268106038514	1
3	12371	2186.743676364384	0
3	12382	2188.256083257356	1
3	12386	2189.064771956121	0
3	12395	2190.230850206052	1
3	12396	2190.744632138786	0
3	12405	2191.760892106718	1
3	12406	2191.767293509291	0
3	12455	2202.837099375647	1
3	12456	2203.03849200588	0
3	12465	2203.749273317192	1
3	12466	2204.417271513821	0
3	12480	2206.755699537796	1
3	12481	2207.060340437078	0
3	12490	2207.950945904883	1
3	12491	2208.326451710164	0
3	12500	2210.216262055763	1
3	12501	2210.383344501233	0
3	12510	2211.010232503998	1
3	12511	2211.497684888983	0
3	12522	2212.891140755385	1
3	12537	2215.427734059067	2
3	12538	2215.785444762628	1
3	12547	2216.636105291057	2
3	12548	2216.756287235185	1
3	12557	2217.709594815244	2
3	12558	2217.839117265982	1
3	12567	2218.894499041093	2
3	12568	2219.566369068646	1
3	12571	2220.021720981528	0
3	12575	2220.330884109314	1
3	12576	2220.828072524886	0
3	12630	2234.817420625947	1
3	12636	2235.865923042808	0
3	12650	2238.082183664228	1
3	12652	2238.221242755152	2
3	12653	2238.268642444422	1
3	12662	2238.946804524652	2
3	12663	2239.346288281239	1
3	12672	2240.266271315712	2
3	12673	2240.930021728741	1
3	12681	2242.204727255765	0
3	12690	2243.787570989751	1
3	12691	2243.886792094945	0
3	12695	2244.011386643533	1
3	12696	2244.438583584954	0
3	12700	2244.5121770405	1
3	12706	2245.798595531411	0
3	12817	2261.078429138463	1
3	12829	2262.171385247197	2
3	12908	2273.744744688453	3
3	12930	2277.133357837113	2
3	12941	2277.923619149426	3
3	12985	2284.862712426546	2
3	12993	2286.514058500032	1
3	12996	2286.919680556252	0
3	13005	2288.020045292191	1
3	13006	2288.191343179652	0
3	13012	2288.270378960487	1
3	13014	2288.300299050273	2
3	13019	2289.142178475958	3
3	13020	2289.501463069701	2
3	13029	2290.655968069542	3
3	13031	2291.233826193888	4
3	13032	2291.236362917143	3
3	13035	2291.953412013575	2
3	13041	2291.986628772954	3
3	13046	2292.751594843817	4
3	13047	2293.463009160738	3
3	13056	2294.173892806388	4
3	13057	2294.55800924709	3
3	13065	2295.684413498667	2
3	13068	2296.147436135801	1
3	13072	2297.059986177457	2
3	13073	2297.124203217661	1
3	13077	2297.448786801	2
3	13078	2298.100045691224	1
3	13082	2298.111796532738	2
3	13083	2299.080391160099	1
3	13086	2300.017889454754	0
3	13095	2301.731822682317	1
3	13096	2301.761858142376	0
3	13100	2302.064816468618	1
3	13101	2302.46619029648	0
3	13105	2302.648542566874	1
3	13107	2302.678604427892	2
3	13108	2303.326524034071	1
3	13111	2304.283620262587	0
3	13115	2304.421477545074	1
3	13117	2304.545493737412	2
3	13118	2305.142862684208	1
3	13122	2305.642340264404	2
3	13123	2306.030340547043	1
3	13127	2306.199548700208	2
3	13128	2306.895001287221	1
3	13132	2306.975197661297	2
3	13133	2307.545222296122	1
3	13144	2308.501534402644	2
3	13146	2308.774130886648	3
3	13210	2319.214549714721	2
3	13221	2320.217395165868	3
3	13225	2321.64443714565	2
3	13236	2322.350907070939	3
3	13255	2326.169230305472	2
3	13263	2327.760436911857	1
3	13269	2327.992099812982	2
3	13281	2329.492449683279	3
3	13367	2341.089502225089	4
3	13382	2342.995236323074	5
3	13387	2343.599114232139	6
3	13391	2344.540905702416	5
3	13395	2344.710060567287	6
3	13436	2351.576180534319	5
3	13447	2352.710815251931	6
3	13476	2356.7944958369	5
3	13479	2357.370280043896	4
3	13490	2358.652108149792	5
3	13495	2359.056564522371	6
3	13511	2361.771500071627	5
3	13524	2362.859590348769	6
3	13531	2364.858367986628	5
3	13540	2365.839716196483	6
3	13541	2366.57457047843	5
3	13547	2366.957140118648	6
3	13551	2368.388567769086	5
3	13560	2369.627578825457	6
3	13561	2369.737366324315	5
3	13567	2369.867024475748	6
3	13571	2370.098144203194	7
3	13576	2370.393742491149	8
3	13580	2372.194280674659	7
3	13591	2373.240920042939	8
3	13595	2373.751564165276	7
3	13598	2374.424399937435	6
3	13601	2374.958413234378	5
3	13612	2375.798998018647	6
3	13614	2376.295315041714	7
3	13658	2382.839341365897	6
3	13669	2383.947434608465	7
3	13683	2386.454790661743	6
3	13686	2386.867016734256	5
3	13690	2387.363421335981	6
3	13691	2387.382102525121	5
3	13694	2388.338686797608	4
3	13697	2389.106036599519	3
3	13701	2389.405632945965	4
3	13703	2389.552740316047	5
3	13704	2389.686254009491	4
3	13708	2390.231109896325	5
3	13709	2390.399038498782	4
3	13713	2390.777007077079	5
3	13715	2391.236469070062	6
3	13716	2391.384729921611	5
3	13719	2391.796449784728	4
3	13722	2392.222496581383	3
3	13726	2392.395695029238	4
3	13727	2392.925646867862	3
3	13730	2393.451152603773	2
3	13734	2393.946323491493	3
3	13736	2394.050834329579	4
3	13737	2394.219489560162	3
3	13741	2394.327050744069	4
3	13743	2394.627814531884	5
3	13744	2395.090230111431	4
3	13748	2395.71726305749	5
3	13750	2395.877334922994	6
3	13751	2396.06631167976	5
3	13755	2396.390734299043	6
3	13757	2396.492580303062	7
3	13758	2396.972982445292	6
3	13762	2397.742463051968	7
3	13763	2397.932813474236	6
3	13767	2398.051032785434	7
3	13768	2398.892526182	6
3	13772	2399.391464412484	7
3	13773	2399.598952185808	6
3	13777	2399.668756124099	7
3	13778	2400.338851132317	6
3	13782	2400.784754968231	7
3	13783	2400.935733694889	6
3	13787	2401.394368867182	7
3	13788	2401.933252109241	6
3	13791	2402.66875650564	5
3	13794	2403.340712453171	4
3	13798	2403.542943975706	5
3	13799	2403.971323533847	4
3	13803	2404.521467529905	5
3	13804	2404.686325787126	4
3	13808	2404.968791281477	5
3	13810	2405.004538043928	6
3	13811	2405.622437337392	5
3	13815	2405.687012832038	6
3	13816	2406.405253964175	5
3	13819	2406.955391427387	4
3	13823	2407.308689164347	5
3	13825	2407.345936890277	6
3	13826	2407.929123956036	5
3	13830	2408.219008623487	6
3	13831	2408.66773237025	5
3	13835	2409.221553946056	6
3	13837	2409.279232355833	7
3	13838	2409.427778661601	6
3	13841	2410.087438406773	5
3	13845	2410.259846785622	6
3	13846	2410.596745906096	5
3	13850	2410.89057917839	6
3	13851	2411.02451134117	5
3	13854	2411.431687501703	4
3	13857	2412.128201995954	3
3	13861	2412.282949858956	4
3	13863	2412.449380379594	5
3	13865	2412.578981524127	6
3	13866	2412.605944524078	5
3	13869	2413.243371273322	4
3	13872	2413.995362832328	3
3	13876	2414.373552870685	4
3	13877	2414.550334750699	3
3	13881	2414.895966666181	4
3	13882	2414.960733681196	3
3	13886	2415.045474251699	4
3	13887	2415.603578645201	3
3	13891	2415.630210851759	4
3	13893	2415.708905774832	5
3	13894	2416.350960269361	4
3	13897	2417.003806561162	3
3	13901	2417.304788048005	4
3	13903	2417.421574864494	5
3	13904	2417.496115301014	4
3	13908	2417.789388858416	5
3	13909	2418.171487571043	4
3	13912	2419.143721276685	3
3	13916	2419.178301346424	4
3	13917	2420.092353613186	3
3	13920	2420.968492150889	2
3	13923	2421.531973659271	1
3	13926	2422.37870750737	0
3	13930	2422.779653855796	1
3	13931	2423.262713427633	0
3	13955	2429.208870654746	1
3	13956	2429.572768151741	0
3	13960	2430.048863961402	1
3	13961	2430.150506941722	0
3	13965	2430.388640215164	1
3	13967	2430.603522549867	2
3	13969	2430.612348705985	3
3	13971	2430.66363863156	4
3	13972	2430.889443925702	3
3	13975	2431.295555729539	2
3	13979	2431.530638246746	3
3	13980	2432.059525301986	2
3	13983	2432.497261709793	1
3	13987	2432.847436124076	2
3	13988	2433.257959751113	1
3	13992	2433.345136987787	2
3	13993	2434.170627348571	1
3	13996	2434.72251023108	0
3	14000	2434.867410907386	1
3	14002	2434.943613460931	2
3	14004	2435.094004863562	3
3	14006	2435.174067970359	4
3	14007	2435.354343669283	3
3	14010	2436.07391044272	2
3	14013	2437.006732854553	1
3	14016	2437.847342424447	0
3	14020	2437.897560655646	1
3	14022	2438.091862877116	2
3	14026	2438.538916383435	3
3	14030	2439.146342359137	2
3	14034	2439.238118494679	3
3	14036	2439.576484321117	4
3	14040	2439.759400719186	5
3	14045	2440.134564170238	6
3	14046	2440.973943998039	5
3	14052	2441.590500016459	6
3	14057	2442.157968921538	7
3	14058	2442.738173013998	6
3	14067	2443.57444093217	7
3	14069	2443.691731986812	8
3	14070	2443.808369602987	7
3	14073	2444.272504579022	6
3	14077	2444.481226815063	7
3	14084	2445.385285663751	8
3	14085	2445.615467405158	7
3	14089	2445.639694480027	8
3	14098	2447.226154527332	9
3	14107	2448.842978931615	8
3	14110	2449.343000391709	7
3	14114	2449.374631968771	8
3	14115	2449.902822401679	7
3	14119	2450.337739944586	8
3	14120	2450.799944915089	7
3	14123	2451.23078993445	6
3	14131	2452.565700571591	5
3	14134	2453.205916811785	4
3	14138	2454.078792876864	5
3	14139	2454.185619019464	4
3	14143	2454.451121157469	5
3	14144	2454.715344219262	4
3	14147	2455.140034855975	3
3	14151	2455.767181867356	4
3	14152	2455.791672581274	3
3	14155	2456.279863384718	2
3	14159	2456.326249416995	3
3	14161	2456.919725288374	4
3	14163	2457.105322427531	5
3	14164	2457.264422444699	4
3	14168	2457.393786213643	5
3	14170	2457.510891053219	6
3	14171	2457.997810269452	5
3	14175	2458.555006277848	6
3	14176	2458.968661078277	5
3	14180	2459.442725714973	6
3	14181	2459.745980601783	5
3	14184	2460.480593026641	4
3	14188	2460.91730005916	5
3	14189	2461.099844011969	4
3	14193	2461.489536504372	5
3	14195	2461.543206918691	6
3	14196	2461.91999497784	5
3	14200	2461.930694059786	6
3	14202	2462.068203999192	7
3	14204	2462.288761467197	8
3	14205	2462.508932173882	7
3	14209	2463.009574008291	8
3	14210	2463.363313259721	7
3	14214	2463.457047557449	8
3	14216	2463.488332185059	9
3	14217	2464.110429596646	8
3	14221	2464.632142397889	9
3	14222	2464.815082565999	8
3	14226	2464.984699600823	9
3	14227	2465.665862114845	8
3	14231	2465.805996407985	9
3	14232	2466.554905743875	8
3	14235	2467.238926419827	7
3	14239	2467.849314761913	8
3	14240	2468.160572023528	7
3	14243	2468.951780651581	6
3	14247	2469.020234890533	7
3	14248	2469.946430980113	6
3	14251	2470.479010298826	5
3	14255	2470.897645491651	6
3	14256	2470.905455044076	5
3	14260	2471.064055736924	6
3	14261	2471.357855767641	5
3	14265	2471.444976427659	6
3	14267	2471.687110544949	7
3	14268	2472.098138609227	6
3	14274	2472.253694183066	7
3	14278	2473.407615801204	6
3	14282	2473.811488581199	7
3	14283	2473.903908866994	6
3	14286	2474.769426477957	5
3	14289	2475.634862703435	4
3	14293	2475.998239861468	5
3	14294	2476.277613785934	4
3	14298	2476.51106726596	5
3	14300	2476.666346696076	6
3	14301	2477.047111932073	5
3	14304	2477.556021802711	4
3	14308	2477.946440507158	5
3	14310	2478.01627341587	6
3	14311	2478.131061457821	5
3	14314	2478.596344262293	4
3	14317	2479.307570895112	3
3	14321	2479.370759545086	4
3	14322	2479.915770097195	3
3	14326	2480.11981326816	4
3	14327	2480.762649387519	3
3	14330	2481.401804027545	2
3	14338	2482.559660893983	1
3	14344	2482.916304705147	2
3	14346	2482.938396209182	3
3	14355	2484.59708277893	2
3	14359	2484.752961725924	3
3	14376	2486.878007258783	4
3	14382	2487.982317942872	3
3	14391	2488.975018865701	4
3	14392	2489.500338226443	3
3	14400	2490.791627457298	2
3	14411	2491.782432185582	3
3	14415	2493.012191369503	2
3	14423	2494.039052123369	1
3	14431	2495.168732862712	0
3	14455	2503.175329592871	1
3	14456	2503.371659069002	0
3	14465	2504.475046831948	1
3	14466	2504.486749354753	0
3	14475	2505.711331328229	1
3	14477	2505.726029851248	2
3	14479	2506.083715417274	3
3	14480	2506.335399068995	2
3	14484	2506.436972391995	3
3	14486	2506.534728463953	4
3	14487	2507.023781983518	3
3	14491	2507.517088177681	4
3	14492	2507.735901922976	3
3	14496	2507.874912750476	4
3	14497	2508.6641947338	3
3	14500	2509.458054473867	2
3	14504	2509.631010361237	3
3	14506	2509.81117883913	4
3	14507	2509.915353245252	3
3	14510	2510.328650419797	2
3	14513	2510.838940182339	1
3	14516	2511.727967518486	0
3	14520	2512.434048308411	1
3	14522	2512.633206415235	2
3	14523	2512.703464635566	1
3	14527	2512.723296711702	2
3	14529	2513.071000960556	3
3	14530	2513.459700609429	2
3	14533	2514.262607361295	1
3	14536	2515.13884912004	0
3	14540	2515.143095823261	1
3	14541	2515.923550796195	0
3	14550	2517.663969345232	1
3	14551	2518.297829645609	0
3	14565	2523.102404352072	1
3	14567	2523.380591056278	2
3	14568	2523.616640570208	1
3	14572	2523.864648818882	2
3	14573	2524.480383671641	1
3	14576	2525.409549772421	0
3	14580	2525.590195964528	1
3	14581	2525.859367349053	0
3	14585	2526.430498977591	1
3	14586	2526.557844787797	0
3	14590	2527.161278072197	1
3	14591	2527.46551236376	0
3	14615	2530.259789948144	1
3	14622	2530.55600776871	2
3	14623	2531.038689291451	1
3	14641	2532.757399066858	2
3	14646	2532.926833389296	3
3	14695	2540.549498719091	2
3	14706	2541.320658876721	3
3	14710	2542.507892215831	2
3	14719	2543.512231080698	3
3	14720	2543.963057167988	2
3	14728	2545.501897982808	1
3	14737	2546.7868445278	2
3	14738	2547.137703173256	1
3	14747	2548.467990347036	2
3	14748	2548.772563855511	1
3	14757	2550.27788279006	2
3	14758	2550.479055843896	1
3	14766	2552.120386573228	0
3	14777	2553.452038466887	1
3	14779	2553.691343870548	2
3	14789	2555.250002929348	3
3	14790	2555.265103240285	2
3	14804	2556.504054801675	3
3	14806	2556.909802980268	4
3	14812	2557.955239475818	3
3	14820	2559.327169051926	2
3	14829	2560.379898615367	3
3	14831	2561.006728652019	4
3	14832	2561.086147455845	3
3	14840	2562.77327755091	2
3	14844	2562.785492069462	3
3	14851	2564.063427389638	4
3	14852	2564.413611746553	3
3	14860	2566.054356060756	2
3	14863	2566.978481550116	1
3	14871	2567.916389116293	0
3	14875	2568.29927316296	1
3	14876	2568.359875017658	0
3	14880	2568.394224676854	1
3	14881	2569.255059093164	0
3	14890	2572.588035979396	1
3	14891	2572.660361677613	0
3	15024	2594.108711831473	1
3	15034	2595.950102200542	2
3	15063	2600.333328899516	1
3	15067	2600.454415338557	2
3	15068	2600.856112502011	1
3	15074	2601.220758013355	2
3	15076	2601.35384305275	3
3	15080	2602.367129738171	2
3	15086	2602.725439291097	3
3	15090	2603.601765352589	2
3	15099	2604.543387047923	3
3	15100	2604.940020536733	2
3	15106	2605.359962330016	3
3	15110	2606.846660646432	2
3	15114	2607.052155476891	3
3	15120	2608.032885979496	2
3	15131	2609.038904243295	3
3	15133	2609.099477868488	4
3	15142	2610.545521223133	3
3	15153	2611.808560409301	4
3	15178	2615.449058669846	5
3	15189	2617.055003410166	4
3	15197	2618.829298110314	3
3	15201	2618.97010098721	4
3	15208	2620.051214463446	5
3	15209	2620.220028707905	4
3	15217	2621.805023489761	3
3	15221	2622.146930617566	4
3	15228	2622.391663726997	5
[...]
6	156907	25475.974672687235	12.709950719707
6	156947	25480.771577311908	6.621543962455
6	157007	25489.395965369834	28.976798806474
6	157167	25515.140675659988	1.094297323426
6	157290	25540.679417071474	2.312430229885
6	157295	25547.399379207446	0.984606259316
6	157342	25557.363447352999	6.494224655074
6	157365	25574.40286237507	0.992440705277
6	157392	25581.007954479472	4.638763227208
6	157492	25597.346335746665	2.060872391766
6	157529	25602.33282763714	1.403344077457
6	157564	25608.270141885132	5.507410475337
6	157567	25609.005539861955	15.106256703181
6	157631	25620.326140784908	3.341749848635
6	157739	25633.628107906336	14.366518749722
6	157742	25634.227979674766	8.333453919384
6	157750	25635.434257127269	9.268302444557
6	157753	25636.36682677471	7.115864028203
6	157946	25662.986980691658	6.019630439143
6	157980	25668.176918302843	25.781138771952
6	158046	25681.241747167716	9.8949134545
6	158054	25682.519600406578	2.973131451385
6	158097	25688.489119751759	11.691757704703
6	158161	25699.362430225208	11.528028756929
6	158234	25709.999593453729	13.796441097939
6	158286	25717.181995132486	12.324042425473
6	158309	25720.714284222446	7.529135572392
6	158400	25739.807933373862	1.251711151055
6	158474	25749.418269863196	5.767023617995
6	158517	25755.402227298527	0.722592622687
6	158541	25758.49690313752	1.210690148455
6	158591	25764.67357161849	0.552606604828
6	158803	25795.471581200336	2.977784651835
6	158832	25800.355359792536	5.516245448971
6	158858	25803.613764751948	3.203858668164
6	158946	25816.214096551542	2.294251268512
6	158954	25817.34991517697	1.629057816401
6	158964	25819.184267411534	17.616815814285
6	158981	25821.58692262663	0.941758112136
6	159022	25828.095354566791	8.237929389406
6	159032	25829.497735995401	0.621932658353
6	159070	25834.596512852657	0.7370069094
6	159135	25843.289628601633	8.988326315199
6	159161	25847.120247029885	0.825883833837
6	159196	25852.059573304793	13.375630080313
6	159287	25863.401217913675	3.945909134061
6	159422	25883.58376035002	1.122163584333
6	159550	25906.262387389258	13.175154630616
6	159575	25916.077223179047	5.918569910442
6	159727	25948.93504845713	22.707331312274
6	159735	25950.434673998459	1.725866777752
6	159880	25984.546830057479	1.436414078776
6	159960	25994.892451960953	5.066896854669
6	159984	25997.202192944508	1.144659290765
6	159995	25999.071436316553	8.031388626722
6	160018	26002.100793561	0.955094485556
6	160056	26007.677343697552	3.024219315681
6	160303	26044.563719434308	2.147432518182
6	160320	26046.882842270115	6.37867077969
6	160397	26056.970734394823	5.75034891381
6	160448	26063.669302815821	4.82985382995
6	160485	26069.031415184046	3.938883782616
6	160628	26087.39933309068	11.64416085054
6	160722	26101.251676423961	2.995789962233
6	161045	26146.591126971664	10.166590500336
6	161125	26158.745979797114	1.004594051393
6	161147	26161.943885628386	13.878949088453
6	161214	26170.755714827564	0.843951154638
6	161235	26174.226219065228	24.817324899209
6	161302	26184.491264597534	9.459850716405
6	161360	26192.202660171616	2.223224756328
6	161363	26193.077823638472	2.814851242959
6	161439	26203.847974245925	8.675501994281
6	161450	26205.854911518678	4.044325261598
6	161513	26214.467473849304	3.455371187493
6	161516	26215.249688066751	1.393518011514
6	161643	26233.542342407745	11.941600087971
6	161889	26270.015051487714	2.480938022573
6	161914	26273.68710146283	6.678128475906
6	161942	26277.754667804969	12.976671081894
6	162057	26293.746903389854	3.584987257265
6	162160	26307.44236301214	5.338678608257
6	162192	26311.256500762725	6.279294859142
6	162251	26319.841252120374	2.503944124728
6	162394	26342.044117419864	16.742457956701
6	162438	26347.64252240546	5.212179527102
6	162544	26362.204207661201	2.256799832079
6	162614	26373.42356190095	6.108485413729
6	162665	26379.633860123393	5.330801278542
6	162754	26391.163397657316	8.933727465246
6	163074	26436.679281717181	17.330500519083
6	163079	26437.572144818274	7.071600335245
6	163117	26443.950936442629	4.097561126454
6	163150	26448.870071898277	8.234046170983
6	163190	26454.756286583066	6.986096694375
6	163213	26458.844806700123	4.901894837668
6	163291	26469.179504023182	5.40145402039
6	163365	26490.954539578133	2.952734424572
6	163509	26521.861332701255	5.574829771842
6	163527	26524.969654206248	10.153097977457
6	163530	26525.40445879811	20.016943049927
6	163558	26529.495349578854	2.581922993686
6	163636	26540.869597946151	0.733736830614
6	163639	26541.722380030851	2.925907884512
6	163763	26559.511066776418	18.736611024466
6	163816	26564.94499452761	2.882066931165
6	163826	26566.538384674114	8.068749636722
6	163856	26571.244376428935	13.723259857497
6	163918	26580.596984736758	19.927577885568
6	163972	26588.371378320128	36.786564265539
6	164030	26596.887586663941	16.751992123628
6	164369	26647.820872185873	17.1243297827
6	164544	26673.450409223074	10.10216347108
6	164569	26677.034755423414	6.840081120562
6	164705	26699.458284207792	12.680261029072
6	164716	26701.567691342612	5.340508573845
6	164899	26727.426259587365	4.393528756125
6	164912	26729.161869458515	6.786394997364
6	164935	26732.610534768165	12.942962888797
6	165059	26747.595180373485	2.15104370085
6	165066	26748.583110258155	11.406377051554
6	165069	26749.383740674271	7.513797650297
6	165108	26755.221133705308	6.65915305927
6	165137	26758.742013348113	17.031143342963
6	165273	26777.731099438094	2.579685356531
6	165544	26813.00003739012	31.185588523605
6	165635	26825.91250991927	10.817909803631
6	165645	26826.970707534053	15.216528057389
6	165718	26837.264167845841	22.439349766801
6	165764	26843.634201447606	17.287316358726
6	165774	26845.045758679589	35.900372041661
6	165867	26858.161804743329	47.218913379615
6	165990	26875.940175976869	5.343937348047
6	166041	26882.392977919972	1.70392694744
6	166151	26898.432922940126	27.316905241637
6	166164	26901.106172589289	6.547385797885
6	166238	26913.04060132255	4.929656892376
6	166298	26922.223371674291	5.249979658212
6	166346	26929.158917974851	3.708610430982
6	166410	26937.91197039502	10.30165174915
6	166448	26943.441915891536	2.583619231935
6	166472	26946.107056567754	0.81064133064
6	166612	26967.088367302	0.935775540431
6	166625	26968.69266599713	9.982842358357
6	166760	26988.461541808195	0.878895692353
6	167024	27024.588219894598	0.64795938137
6	167056	27029.018327815913	9.664238514758
6	167184	27045.207546534144	6.992159383856
6	167187	27045.964187138236	30.34804224452
6	167228	27052.16572708449	11.412790713639
6	167412	27076.893406764782	14.15762695446
6	167444	27081.654032917685	9.542224305338
6	167479	27086.36632226132	18.356681240715
6	167527	27093.18580478578	5.01518018755
6	167680	27116.032256755039	3.378377958771
6	167824	27136.316018507206	24.770726566257
6	167856	27140.617585918954	6.703516621119
6	167917	27148.904149275269	12.115762924398
6	167920	27149.368575025811	5.506620949366
6	167949	27154.234197674222	9.871634095487
6	168053	27169.091791545269	5.782863095601
6	168068	27171.070922230458	2.462778393135
6	168103	27175.891143177304	4.211673321648
6	168122	27178.873572503862	5.040904134468
6	168200	27191.305042647982	2.243944248932
6	168213	27192.63382344492	0.824278294305
6	168290	27203.474691686865	5.877956123689
6	168534	27241.658653732238	5.005742219998
6	168547	27243.714649734262	9.349806972275
6	168605	27252.173094461046	5.01653477144
6	168655	27265.490645101097	7.163852927104
6	168694	27276.333740502586	5.370489631334
6	168756	27285.285590689014	10.498354020394
6	168759	27285.98483943901	2.820848113377
6	168802	27291.677737439189	1.367050346018
6	168875	27300.966331746487	12.280456710113
6	168885	27302.115526057093	6.160117190801
6	168888	27302.84984569886	2.138173154296
6	168938	27310.089930131949	5.501915021979
6	169022	27321.207215403823	1.299134737353
6	169080	27329.902118720822	16.993071587225
6	169090	27331.637864652099	15.543189298769
6	169233	27353.142202332881	10.576497360388
6	169283	27361.071519278209	7.336823582618
6	169346	27370.953316754462	11.532164710743
6	169422	27382.539421827035	10.323816369314
6	169445	27386.60591176865	2.872121259271
6	169560	27404.47979932345	5.675755835195
6	169595	27409.539704924045	18.094063464939
6	169756	27430.558796993967	3.163051203484
6	169808	27438.601633190036	9.008839024475
6	169860	27445.794779815849	19.509127792234
6	169881	27449.338675392929	32.688812531895
6	169902	27451.505258272352	23.319422872709
6	169907	27452.063265868925	2.455653421946
6	169918	27454.236423539461	22.448148044124
6	169926	27455.392943798004	3.979240853308
6	169967	27460.613392882978	38.494822396046
6	170028	27469.967576829154	46.185194529951
6	170041	27472.425510404675	23.322666959402
6	170044	27473.391452695147	21.445520493868
6	170136	27486.331109015314	2.829985904056
6	170141	27486.903818154611	0.845651975924
6	170167	27489.544929291585	2.394809809098
6	170180	27492.145155168323	3.522164526114
6	170190	27493.13698773803	6.660668284085
6	170220	27497.417586048597	6.076974894578
6	170284	27508.601099674182	1.017546273015
6	170360	27518.175875377667	0.653900230425
6	170387	27521.847169244068	2.772281815012
6	170409	27524.696734891144	2.798483952824
6	170444	27529.123311014811	6.899936015667
6	170472	27534.136317687074	6.485739231399
6	170568	27549.457299047953	4.762059707976
6	170588	27552.549954892148	1.156623428725
6	170673	27564.610653529609	10.879375994636
6	170760	27574.312654075786	10.352503286421
6	170841	27584.081709452407	1.561227726949
6	170886	27590.964335795134	14.636160575159
6	170896	27592.165885111611	23.981899962121
6	170946	27599.93210385816	15.536025647626
6	171006	27607.749524668109	8.42357985853
6	171028	27611.55154355617	43.410684596369
6	171153	27627.961068851935	2.770603497857
6	171163	27629.684498331851	1.239288117393
6	171241	27640.946167665736	3.480552901791
6	171244	27641.891973746584	12.493404740239
6	171254	27643.04021022177	0.774459808483
6	171294	27648.585022468322	4.690779893305
6	171427	27666.996740309072	17.50804685246
6	171501	27677.527961600683	2.881719210143
6	171727	27708.253384432217	5.275225428555
6	171735	27709.597549081475	20.804478888332
6	171759	27712.275330661071	1.028132513115
6	171774	27714.129672653947	1.867131479544
6	171787	27716.133548913357	1.386345350844
6	171992	27742.754343244409	12.670232930341
6	172000	27744.035951268136	5.541227577999
6	172048	27750.532416369833	21.127181438013
6	172124	27761.836485814742	30.144392787826
6	172210	27774.708528852389	0.683801400867
6	172308	27787.991457772693	9.650070066956
6	172389	27800.366216728455	6.909337700793
6	172452	27807.481182817174	2.676031324983
6	172455	27808.219723912272	3.073406572893
6	172508	27816.178412776851	4.066513659492
6	172568	27825.799554240135	5.36272983572
6	172573	27826.335018878979	8.449498358706
6	172626	27834.455338270812	8.240614488607
6	172745	27849.377309961553	11.706278023262
6	172796	27856.210354830352	1.614783936141
6	172877	27867.601454132682	29.870257704575
6	172908	27871.645523225496	16.124201856353
6	173007	27885.842608319203	3.413609157575
6	173096	27897.882596344062	3.721154106628
6	173110	27899.207109029991	0.787867495074
6	173144	27903.940240712257	2.997774590056
6	173202	27911.081021568906	13.40935721018
6	173329	27933.358906675854	2.568369881669
6	173352	27936.527203607212	3.700521272728
6	173656	27990.682041808029	3.466072379604
6	173692	27995.113281948862	3.094870940123
6	173735	28000.070807810638	29.92876335794
6	173746	28002.017990474028	8.867068073651
6	173838	28014.845695655046	9.960586350614
6	173893	28022.921621931483	6.706241011083
6	173896	28023.511336880409	11.403184944886
6	174029	28044.529836246697	10.785778012901
6	174034	28045.32553670844	15.635163792536
6	174149	28065.555603573128	1.003809854456
6	174213	28073.92753659496	17.87255781522
6	174219	28075.465168661391	6.475322229358
6	174241	28078.441136250318	19.777454636718
6	174244	28079.106261909286	7.102031618253
6	174302	28089.722973518051	3.27860123097
6	174389	28101.774917830884	11.228534707223
6	174514	28119.935454547188	13.225661452611
6	174517	28120.392006412071	10.252147161582
6	174535	28131.883744481169	2.493603972613
6	174550	28138.482107004078	2.110971825074
6	174582	28146.918663863737	1.734588885042
6	174745	28178.13147652337	7.099392049651
6	174784	28182.983362634355	2.293251486253
6	174828	28188.913657107684	12.952184903973
6	174846	28191.847691209069	2.897372027082
6	174918	28201.660100964285	14.667907590138
6	174941	28204.303057912378	4.396239534196
6	175116	28228.747890158848	22.374528165039
6	175152	28234.202988773737	16.57874850106
6	175310	28258.154210920133	4.064709974722
6	175340	28262.190858908943	9.46540153489
6	175355	28264.326561917332	20.269195910656
6	175443	28275.791324195093	6.134127179559
6	175488	28281.912734464103	18.339528415311
6	175503	28283.81796220519	9.978843761241
6	175511	28285.003128599761	2.846782962807
6	175586	28294.064432287089	5.473152026409
6	175651	28303.971360356654	14.868343243865
6	175771	28319.592373662456	4.79013050791
6	175853	28331.313785425074	22.687869586554
6	175915	28341.276665588342	11.548073847781
6	175957	28351.792666435223	9.921973802918
6	175960	28352.358045012206	1.096914003731
6	176002	28362.464300656245	2.725197957713
6	176007	28362.88346172629	3.743436763389
6	176032	28368.845794182328	0.790505202968
6	176062	28375.113990206015	3.717874028406
6	176141	28388.250189415405	5.967403335632
6	176168	28391.68425874402	7.490339435772
6	176171	28392.259941779628	2.520356697217
6	176351	28419.926169697791	2.287262048695
6	176372	28424.177749139061	13.393529502815
6	176480	28439.703886688737	15.494858649521
6	176574	28454.14755802725	2.746303583399
6	176673	28469.514734646024	2.82988191653
6	176734	28478.732624482174	5.578009709617
6	176870	28499.853425316763	7.249741054876
6	176877	28500.756991808553	2.078712818747
6	176883	28501.959169240407	1.383253513112
6	176908	28505.088533064694	14.249337131437
6	176976	28515.348856203226	4.559063694864
6	177175	28544.418756446537	9.452562010619
6	177234	28552.030996547936	17.754751323223
6	177242	28553.565414280089	16.006477272309
6	177304	28561.66149011149	12.819910173258
6	177348	28568.40314865822	18.818484785768
6	177422	28579.774328205021	4.844671843154
6	177491	28588.229918246608	4.245376223421
6	177629	28607.143470958652	20.901627685272
6	177700	28616.913176289092	1.698196214426
6	177748	28624.049140314183	11.525116071458
6	177812	28633.318396237011	1.973366790683
6	177920	28646.870739384353	8.331260830022
6	177985	28655.494392697032	7.751421384163
6	178065	28665.474788542682	24.433402218086
6	178133	28675.024536678599	11.301091285045
6	178304	28699.146377854037	1.020705929759
6	178307	28699.622348713956	6.281555737815
6	178380	28723.870496861529	3.503931994264
6	178415	28730.437689389839	5.891053597429
6	178576	28755.824735690351	4.524625838409
6	178591	28757.349789567735	22.649083255947
6	178659	28765.046362199099	5.507726310493
6	178710	28773.728719115094	36.355260385264
6	178891	28800.128059456596	2.648171846067
6	179009	28817.681569870396	1.749015059501
6	179012	28818.386403546457	10.462629671345
6	179248	28850.170556508129	3.010943467702
6	179281	28854.573189902663	14.66220155748
6	179321	28859.431857968059	8.024041773714
6	179397	28871.952557601368	3.934589494076
6	179432	28892.498101008221	2.48318154671
6	179440	28895.390612510692	4.618643637343
6	179450	28899.757471498312	2.5629481077
6	179465	28917.956423584704	0.986977508664
6	179485	28927.496174020294	0.810297429189
6	179515	28933.288231803723	1.37865554152
6	179535	28943.033566760037	0.961946750525
6	179540	28945.065533810799	0.402201187378
6	179575	28962.67777935553	1.654877867421
6	179610	28980.378604692997	3.190281986337
6	179753	29023.865545203806	2.871716107126
6	179761	29025.056408574981	3.190053627261
6	179794	29029.79618940697	8.386724363507
6	179912	29070.284225991416	2.479706561821
6	179947	29079.27159009647	3.59621256273
6	179995	29086.767943849476	5.632642332779
6	180020	29092.094593971401	0.469301615516
6	180206	29127.91432810014	3.732623819262
6	180317	29143.330999222098	13.068594029721
6	180372	29151.137271933098	4.845439932206
6	180385	29153.310921988337	12.818555563136
6	180657	29193.939041076019	10.575657539179
6	180690	29199.687945078104	11.245174529105
6	180705	29201.980949149398	8.242006183025
6	180710	29202.675617145305	14.647448997569
6	180713	29203.471688176715	24.051244639756
6	180875	29229.136869700928	11.172784114604
6	180880	29229.866188688087	46.132603791217
6	180983	29246.393890414734	4.646835327555
6	181125	29267.625450635882	2.060507360659
6	181130	29268.550244306814	2.786596717255
6	181282	29292.031409476121	1.026334486194
6	181338	29299.385437122762	5.865164027467
6	181359	29302.171790888655	4.042442326758
6	181678	29357.234440175147	17.464451578912
6	181759	29368.058999904555	10.677698789091
6	181817	29377.355083152729	11.496931543276
6	181853	29383.340653364614	1.08949096951
6	181884	29387.316732847618	3.152177860729
6	181894	29388.13524107693	1.693152782476
6	181998	29401.378118287746	17.816767830337
6	182013	29403.704354665262	11.96209414185
6	182029	29406.585130180717	16.823360055205
6	182070	29413.126872908111	26.975421231403
6	182143	29423.071089618906	5.018828448499
6	182165	29425.91282200252	8.537725382118
6	182168	29426.361788860264	4.479826357059
6	182221	29433.915435262929	9.850999720457
6	182241	29436.73879176832	2.717876450093
6	182267	29440.700680450044	10.063369391457
6	182373	29453.534987062285	14.947298448151
6	182391	29456.672173103433	8.44423690159
6	182413	29459.128022130042	17.458490351608
6	182432	29462.069527368968	5.098428319737
6	182622	29490.791713233838	11.451178197423
6	182643	29494.17402257322	13.465483834658
6	182648	29494.76339466808	6.442871543308
6	182729	29504.77093003959	1.267781630865
6	182853	29520.396378229922	10.099023616999
6	182885	29524.508700604447	35.001180964783
6	182985	29537.825226281993	26.413686896375
6	183149	29559.977971675842	33.289579087654
6	183226	29570.220405326213	1.314322357556
6	183252	29574.886974868399	2.169429678844
6	183255	29575.552816850959	17.501225882035
6	183296	29582.903469551296	3.038100726698
6	183397	29596.721457039925	0.838954477625
6	183443	29603.004871600809	2.947434097359
6	183485	29609.264928896899	1.021669931105
6	183537	29615.300617786764	4.863000929372
6	183584	29622.97554742008	24.416104071349
6	183623	29628.907412162177	6.235697548442
6	183708	29638.838044898943	7.939635012763
6	183753	29645.39865731265	16.053880010704
6	183786	29650.371085452787	12.97892157729
6	183811	29654.201234435835	2.231255031498
6	183824	29656.257316789762	15.010912657395
6	183903	29669.773238187524	2.185989725419
6	183937	29674.683468602141	3.583586885308
6	184107	29697.645206046069	13.292281431754
6	184110	29698.325572300807	14.631961611251
6	184137	29702.243045404239	6.198851252543
6	184140	29702.758640409273	34.690249712797
6	184162	29705.482502162329	6.839608119901
6	184214	29712.685078110419	9.007562068997
6	184276	29723.468771498662	34.345486818168
6	184345	29732.935264770837	4.321706365652
6	184460	29750.972470653162	8.316023334391
6	184583	29772.331841549165	5.901339303756
6	184658	29782.046033643634	5.465429256025
6	184678	29785.331606010563	15.073005712412
6	184730	29792.349730215716	22.979458461824
6	184765	29797.186115755449	9.238892827789
6	184777	29798.482659984316	0.944816270712
6	184895	29814.821461958234	2.605314549759
6	184918	29818.653476114786	18.158650513016
6	184942	29821.805760197742	2.556559517988
6	185080	29840.449244554231	13.897909866981
6	185093	29842.380649336132	4.940505105281
6	185130	29847.993161391265	2.05367921139
6	185145	29850.353171160382	5.146937410048
6	185252	29865.928434981574	7.232031238706
6	185279	29870.197428892163	11.411400889832
6	185305	29874.567889042927	5.618541369087
6	185425	29890.992182663159	46.956173246904
6	185489	29900.4478253139	13.042830174782
6	185691	29927.516621215066	20.435858110234
6	185769	29937.196877167546	5.473262926825
6	185777	29938.89989286818	0.893183957141
6	185861	29949.46171815976	9.761503053008
6	185906	29954.817148620808	18.7256260325
6	186021	29970.833116772431	12.347015121888
6	186139	29985.677629380565	9.5088872107

