version 2
run First_exit_8-6-20191017-13:43:32-1858
attr configname First_exit_8
attr datetime 20191017-13:43:32
attr experiment First_exit_8
attr inifile omnetpp.ini
attr iterationvars ""
attr iterationvarsf ""
attr measurement ""
attr network ResponseTimeNetwork
attr processid 1858
attr repetition 6
attr replication #6
attr resultdir results
attr runnumber 6
attr seedset 6
param **.Source.interArrivalTime exponential(4s)
param **.jobPriority bernoulli(0.4)
param **.PS.serviceTimeU1 "uniform(0.4s, 1.0s)"
param **.PS.serviceTimeU2 "uniform(1s, 1.2s)"
param **.SS1.serviceTime exponential(0.4s)
param **.SS2.serviceTime exponential(0.8s)
param **.PS.exitProbability bernoulli(0.8)

vector 0 ResponseTimeNetwork.SS1 queueLength:vector ETV
attr interpolationmode sample-hold
attr title "queue length, vector"
vector 1 ResponseTimeNetwork.SS2 queueLength:vector ETV
attr interpolationmode sample-hold
attr title "queue length, vector"
vector 2 ResponseTimeNetwork.QueueU1 queueLength:vector ETV
attr interpolationmode sample-hold
attr title "queue length, vector"
vector 3 ResponseTimeNetwork.QueueU2 queueLength:vector ETV
attr interpolationmode sample-hold
attr title "queue length, vector"
vector 4 ResponseTimeNetwork.sink lifeTimeU1:vector ETV
attr interpolationmode none
attr title "lifetime of arrived jobs U1, vector"
attr unit s
vector 5 ResponseTimeNetwork.sink lifeTime:vector ETV
attr interpolationmode none
attr title "lifetime of arrived jobs, vector"
attr unit s
vector 6 ResponseTimeNetwork.sink lifeTimeU2:vector ETV
attr interpolationmode none
attr title "lifetime of arrived jobs U2, vector"
attr unit s
3	0	0	0
3	10	20.986074541328	1
3	11	21.342492760267	0
3	17	21.441691855082	1
3	22	22.387248563196	2
3	23	22.750082801018	1
3	26	23.412967653867	0
3	35	24.478055417633	1
3	36	24.590841277331	0
3	42	25.169884735568	1
3	44	25.192501359085	2
3	48	26.109254202355	1
3	56	27.929270451625	0
3	65	28.861560441565	1
3	66	29.614873592898	0
3	75	30.852208854671	1
3	76	31.109321672858	0
3	110	48.757046163716	1
3	111	49.535275079472	0
3	120	51.326241758774	1
3	121	51.761502859408	0
3	125	52.15460790363	1
3	126	52.595945199292	0
3	130	53.012791153226	1
3	131	53.421971822429	0
3	150	59.837782750495	1
3	151	59.847228040553	0
3	160	60.874203425234	1
3	161	61.197072203557	0
3	175	62.786279694898	1
3	177	62.859576730904	2
3	178	63.199805822044	1
3	186	64.608508344048	0
3	230	74.676498159449	1
3	247	76.960880615849	2
3	288	82.771966984041	1
3	291	83.361209128668	0
3	309	84.951606208356	1
3	314	85.920114541726	2
3	349	89.879664566448	3
3	360	92.062344773962	2
3	407	96.843809151846	3
3	484	108.382927556424	4
3	509	112.193627479305	5
3	621	127.300359982686	6
3	663	133.483380954132	7
3	681	135.966358922713	8
3	685	136.99418883902	7
3	703	139.829681955055	6
3	711	141.298008866153	5
3	722	142.339781134478	6
3	727	142.973942905567	7
3	729	143.743569185408	8
3	730	143.843467619746	7
3	739	144.658110521478	8
3	740	145.05701893895	7
3	749	146.183413607478	8
3	750	146.852006780645	7
3	758	148.2085105782	6
3	764	148.970582947794	7
3	769	149.256783115795	8
3	770	149.786320957178	7
3	773	150.326885705264	6
3	776	151.065065008225	5
3	780	151.258293737547	6
3	781	151.467552025905	5
3	785	151.494821378676	6
3	786	152.248449933771	5
3	790	152.536123273542	6
3	791	152.923416280383	5
3	794	153.610007371576	4
3	800	154.525114839815	5
3	804	155.104742677426	4
3	813	156.27291911847	5
3	814	156.655767293982	4
3	823	158.116508104431	5
3	824	158.236400091378	4
3	833	159.663705607362	5
3	834	159.754697426464	4
3	843	160.635782241286	5
3	845	160.692094286177	6
3	846	161.014420223618	5
3	854	162.212460780293	4
3	857	162.711583446535	3
3	860	163.324616295063	2
3	864	163.369466158634	3
3	866	163.88239846918	4
3	867	163.929740623768	3
3	871	164.1885251716	4
3	872	164.471066036272	3
3	876	165.097100187076	4
3	877	165.224883791815	3
3	881	165.268005053453	4
3	882	165.958032933633	3
3	885	166.556624992761	2
3	888	167.437185507697	1
3	891	168.103393170061	0
3	907	170.032293111603	1
3	912	170.501291882404	2
3	919	170.809461290448	3
3	921	171.034772014532	4
3	923	171.406703252513	5
3	924	171.682548497451	4
3	930	172.619944398927	5
3	949	175.213624942137	4
3	970	177.389167960914	5
3	974	178.524215143241	4
3	977	179.419091615055	3
3	983	179.968906561162	4
3	988	180.156819181159	5
3	989	180.646181682378	4
3	998	181.540166074013	5
3	999	181.897636784261	4
3	1013	183.873121855684	5
3	1014	184.211380362717	4
3	1022	185.89704635122	3
3	1025	186.494469216579	2
3	1028	187.457370210459	1
3	1032	187.608425272978	2
3	1034	187.804978852293	3
3	1035	187.880564756106	2
3	1038	188.387244022797	1
3	1041	188.970272778832	0
3	1045	188.992518814578	1
3	1047	189.572067956065	2
3	1048	189.961121156691	1
3	1051	190.81949449691	0
3	1080	195.832221758519	1
3	1082	195.900655946225	2
3	1083	196.413096923091	1
3	1087	196.788015253261	2
3	1088	197.279151833047	1
3	1097	198.211324982379	2
3	1098	198.339694348805	1
3	1101	199.019672344847	0
3	1105	199.256941826634	1
3	1106	199.471182136227	0
3	1110	200.053660841272	1
3	1111	200.440989827121	0
3	1115	201.140002564508	1
3	1116	201.284233668389	0
3	1125	202.174665959203	1
3	1126	202.769150871074	0
3	1132	203.099672176335	1
3	1136	203.717699202418	0
3	1142	203.9233959952	1
3	1147	204.189647850057	2
3	1148	204.932998986624	1
3	1151	205.636536249367	0
3	1155	205.6724456659	1
3	1156	206.230895288696	0
3	1195	215.288936516072	1
3	1197	215.515122638237	2
3	1198	215.680389330036	1
3	1201	216.655053307175	0
3	1205	217.019478193364	1
3	1206	217.258529847454	0
3	1215	217.907830629912	1
3	1216	218.744999355908	0
3	1220	219.242888566747	1
3	1221	219.594172293126	0
3	1225	219.874060625228	1
3	1226	220.44346382226	0
3	1270	232.800493553645	1
3	1271	232.847185212246	0
3	1325	245.566338735169	1
3	1332	245.938815553116	2
3	1334	246.028586754649	3
3	1335	246.614286335781	2
3	1344	247.489059886376	3
3	1345	248.068700607345	2
3	1353	249.427737392011	1
3	1357	249.540992714564	2
3	1358	250.208350718479	1
3	1367	251.637620121413	2
3	1368	251.739845357315	1
3	1377	253.055489334669	2
3	1378	253.140943503418	1
3	1386	254.067259721031	0
3	1392	254.171115294143	1
3	1396	255.349762342909	0
3	1400	255.712995499286	1
3	1401	255.882457916245	0
3	1407	256.069782705045	1
3	1412	256.920640800383	2
3	1413	257.165376367692	1
3	1422	257.945319999032	2
3	1424	258.420318365777	3
3	1425	258.622321173122	2
3	1429	258.875414974265	3
3	1435	260.046026494486	2
3	1443	261.33364785704	1
3	1452	262.818036509398	2
3	1453	262.977502866082	1
3	1461	264.478201522344	0
3	1467	265.258413869395	1
3	1471	266.062623032034	0
3	1477	266.142158718265	1
3	1479	266.25982719073	2
3	1483	267.819491704918	1
3	1486	268.627260202301	0
3	1490	268.705586538533	1
3	1497	269.982862990149	2
3	1498	270.025607320751	1
3	1507	271.008381095828	2
3	1508	271.698575062901	1
3	1517	273.006460437755	2
3	1518	273.586503139967	1
3	1527	274.220654223952	2
3	1528	274.922062154058	1
3	1536	276.192587370881	0
3	1555	279.401469528583	1
3	1557	280.158407112913	2
3	1558	280.189354436237	1
3	1567	281.59933491285	2
3	1568	281.713492316378	1
3	1571	282.296773768354	0
3	1575	282.535168263252	1
3	1576	282.893861408856	0
3	1625	293.91763791101	1
3	1627	294.16962793797	2
3	1629	294.247427079384	3
3	1630	294.526931962805	2
3	1633	294.96040230055	1
3	1637	295.522349464653	2
3	1638	295.593491062723	1
3	1644	296.295815833683	2
3	1649	296.825373342325	3
3	1650	297.174615146235	2
3	1653	297.737048548894	1
3	1656	298.382033943074	0
3	1665	300.003644587598	1
3	1666	300.219988437462	0
3	1670	301.034791278916	1
3	1671	301.074433943536	0
3	1685	305.234952521868	1
3	1687	305.51028896956	2
3	1688	305.993699914283	1
3	1691	306.800295127948	0
3	1695	306.827319187978	1
3	1697	307.090237164694	2
3	1698	307.246179349414	1
3	1701	307.92153037509	0
3	1715	311.422515324358	1
3	1717	311.653705306465	2
3	1718	311.80052186975	1
3	1721	312.427896730162	0
3	1730	314.455204329971	1
3	1731	314.832177922837	0
3	1735	314.87723073163	1
3	1736	315.486375429956	0
3	1755	320.25019771787	1
3	1756	320.268003642277	0
3	1765	322.306136274673	1
3	1771	323.387044263963	0
3	1780	324.099283741999	1
3	1781	324.828359385819	0
3	1787	325.46726994549	1
3	1789	325.518509801486	2
3	1794	325.853351556609	3
3	1811	327.79365825825	4
3	1812	327.981990771095	3
3	1815	328.448494584865	2
3	1823	329.999677922257	1
3	1827	330.404075977064	2
3	1828	330.879168995476	1
3	1831	331.508850593918	0
3	1845	334.276381226146	1
3	1846	334.453410738904	0
3	1850	334.476466727522	1
3	1851	334.882361794041	0
3	1870	337.785130829971	1
3	1871	338.146814172274	0
3	1910	351.04248100595	1
3	1911	351.932784806114	0
3	1915	352.048345045129	1
3	1916	352.67502245993	0
3	1930	354.945948025871	1
3	1931	355.191349475301	0
3	1945	357.412953750129	1
3	1947	357.592046426715	2
3	1948	358.173093459162	1
3	1952	358.61223802813	2
3	1953	358.67479897925	1
3	1956	359.497488015856	0
3	1960	359.915910382634	1
3	1961	360.422516978545	0
3	1965	360.555394111645	1
3	1969	360.655447236324	2
3	1974	361.599254434086	3
3	1975	361.88369244818	2
3	1984	362.8813754872	3
3	1985	363.533881243331	2
3	1988	364.178716301372	1
3	1992	364.34287097017	2
3	1993	364.746357225546	1
3	1997	364.764776025694	2
3	1998	365.656928848208	1
3	2001	366.178062599071	0
3	2015	369.848269115731	1
3	2016	370.338493058685	0
3	2024	371.177872007504	1
3	2029	371.377190874853	2
3	2056	375.494638483695	3
3	2070	378.491002520076	2
3	2081	379.767863521177	3
3	2116	384.997825246745	4
3	2123	385.431919018518	5
3	2125	385.527771831339	6
3	2136	387.897005355865	5
3	2139	388.558795240749	4
3	2148	389.694978918288	5
3	2150	390.221984789108	6
3	2151	390.377954765777	5
3	2155	390.432018592498	6
3	2156	391.017663436611	5
3	2159	391.874067667448	4
3	2165	392.463494669795	5
3	2169	393.470867408295	4
3	2173	393.499462235929	5
3	2175	393.890089516918	6
3	2182	394.589136566762	7
3	2184	394.684171735822	8
3	2185	395.170987848281	7
3	2196	396.694027030812	8
3	2210	398.751154726506	7
3	2213	399.402559707588	6
3	2222	400.496807765831	7
3	2223	401.00559299285	6
3	2227	401.390844101308	7
3	2228	401.511213678955	6
3	2232	401.665840105399	7
3	2233	402.082064525313	6
3	2237	402.091432935936	7
3	2239	402.54396989156	8
3	2240	402.652779676901	7
3	2248	403.947773676828	6
3	2257	405.171264666087	7
3	2258	405.520452365788	6
3	2266	407.066286865153	5
3	2275	407.938599564898	6
3	2276	408.066813289837	5
3	2282	408.242562987182	6
3	2287	409.013981775275	7
3	2296	409.664894979681	8
3	2300	410.787079194418	7
3	2308	412.557365376918	6
3	2311	412.971495201482	5
3	2315	413.077136490209	6
3	2316	413.43865058948	5
3	2324	415.070504642275	4
3	2327	415.601173340526	3
3	2333	415.796977061503	4
3	2335	416.512473407878	5
3	2340	417.009900727282	6
3	2341	417.045713810061	5
3	2344	417.857630841431	4
3	2347	418.368389483445	3
3	2350	418.963792422597	2
3	2354	418.972681487891	3
3	2356	419.19098118299	4
3	2357	419.510668460603	3
3	2361	419.781921012906	4
3	2363	419.798114491974	5
3	2364	420.364831823574	4
3	2367	421.037305102309	3
3	2371	421.483219032585	4
3	2373	421.759226422891	5
3	2374	422.010051920542	4
3	2377	422.457547714326	3
3	2380	422.932540864635	2
3	2384	423.237817240482	3
3	2385	423.906343523411	2
3	2388	424.398375524532	1
3	2392	424.555197665881	2
3	2393	424.99162026136	1
3	2397	425.23051123818	2
3	2399	425.825136594089	3
3	2400	425.838883252021	2
3	2404	426.14298507532	3
3	2405	426.398708149137	2
3	2408	427.334484096382	1
3	2412	427.736385237495	2
3	2413	427.917589548927	1
3	2416	428.558140047685	0
3	2440	433.639248273612	1
3	2442	433.848115496179	2
3	2443	434.306297544638	1
3	2446	434.787111297498	0
3	2450	434.917339277972	1
3	2452	434.989451503867	2
3	2454	435.019767744164	3
3	2456	435.276182252792	4
3	2457	435.601127333303	3
3	2460	436.038500350404	2
3	2464	436.101088864963	3
3	2466	436.500014709798	4
3	2467	436.789244723569	3
3	2470	437.573133568435	2
3	2474	437.831963301591	3
3	2475	438.189157180318	2
3	2479	438.205651041455	3
3	2480	438.900266023788	2
3	2483	439.314609945209	1
3	2486	439.865146316185	0
3	2490	440.202268346849	1
3	2491	440.290138419361	0
3	2495	440.424396485503	1
3	2496	440.749132283141	0
3	2500	441.384181089087	1
3	2502	441.505468964539	2
3	2503	441.711633091855	1
3	2506	442.309433752081	0
3	2515	443.9476677769	1
3	2516	444.329878082786	0
3	2525	445.003332076224	1
3	2526	445.288854005149	0
3	2535	446.537197737004	1
3	2536	446.62708699988	0
3	2550	448.630111760012	1
3	2551	448.837469418966	0
3	2555	449.01256224476	1
3	2556	449.755416730712	0
3	2560	449.884450407181	1
3	2562	450.04851517898	2
3	2564	450.06144922383	3
3	2566	450.500212298061	4
3	2567	450.656618785406	3
3	2570	451.084046346242	2
3	2573	451.691713089602	1
3	2576	452.155407183677	0
3	2580	452.442555707052	1
3	2581	452.711303329108	0
3	2585	453.244909046328	1
3	2586	453.387807586197	0
3	2590	453.488129882978	1
3	2592	453.831145270318	2
3	2593	454.240085954279	1
3	2597	454.312594879837	2
3	2598	454.838708365675	1
3	2602	455.507740770201	2
3	2603	455.622885041464	1
3	2606	456.193150748419	0
3	2615	457.292759155841	1
3	2617	457.390596820998	2
3	2618	457.574173964432	1
3	2622	457.949576057838	2
3	2623	458.509901852778	1
3	2627	458.81702777525	2
3	2628	459.316639239865	1
3	2631	459.757114230713	0
3	2635	459.897010223464	1
3	2636	460.747785818169	0
3	2640	461.088728087286	1
3	2641	461.429350112297	0
3	2660	467.513518678668	1
3	2661	467.809277250592	0
3	2670	469.607892082699	1
3	2671	469.969929565416	0
3	2675	470.326490266898	1
3	2676	470.827208270152	0
3	2680	470.919397833008	1
3	2681	471.382453383944	0
3	2685	471.502229438811	1
3	2686	471.868927799511	0
3	2690	471.917459661686	1
3	2691	472.327577036732	0
3	2715	479.265467784303	1
3	2716	479.539116490175	0
3	2725	483.02111521746	1
3	2726	483.278059969924	0
3	2735	484.003582016402	1
3	2736	484.455926728741	0
3	2780	492.348984392204	1
3	2781	492.631680396791	0
3	2795	498.350102033344	1
3	2796	498.982570981344	0
3	2817	501.595619050068	1
3	2819	501.836710604465	2
3	2823	502.493029813853	1
3	2831	504.070254449791	0
3	2850	507.800105135014	1
3	2851	508.44884841136	0
3	2860	509.954539075031	1
3	2861	510.121792461248	0
3	2890	521.84898773978	1
3	2891	522.193041344949	0
3	2910	524.168683969409	1
3	2911	524.415836045411	0
3	2940	532.806730236046	1
3	2941	533.010344945375	0
3	2945	533.179888399389	1
3	2946	533.820057691835	0
3	2950	534.164670023299	1
3	2951	534.728240072975	0
3	2960	535.726277748745	1
3	2961	536.31672018806	0
3	2965	536.908516414577	1
3	2966	537.17277218157	0
3	2975	538.181712288263	1
3	2976	538.388323048368	0
3	3005	545.830955331482	1
3	3006	546.461895089015	0
3	3010	546.854033040984	1
3	3011	546.966982941586	0
3	3020	548.313652267252	1
3	3021	548.692660819163	0
3	3025	549.160049374779	1
3	3026	549.169076754089	0
3	3057	565.551498921243	1
3	3062	566.158929736373	2
3	3063	566.340300468488	1
3	3066	567.296603445422	0
3	3105	576.680942135444	1
3	3106	576.844527464813	0
3	3110	577.232045173655	1
3	3112	577.576347224985	2
3	3113	577.716167242999	1
3	3117	577.73681762279	2
3	3118	578.317036523565	1
3	3122	578.591384010407	2
3	3129	579.313446988537	3
3	3135	580.389224363014	2
3	3139	580.457845299732	3
3	3168	584.398698671726	4
3	3177	586.074660553306	3
3	3180	586.982026905043	2
3	3184	587.636245006208	3
3	3185	587.944845633198	2
3	3189	588.246791018742	3
3	3190	588.639412772598	2
3	3193	589.071691917431	1
3	3196	590.056440983283	0
3	3212	593.5813367319	1
3	3217	594.267602152223	2
3	3219	594.74399465642	3
3	3221	594.908647339331	4
3	3222	594.925471166232	3
3	3230	596.473588782306	2
3	3239	597.599796292729	3
3	3240	597.870187114309	2
3	3246	598.304167892169	3
3	3250	599.092961647165	2
3	3258	600.252184020904	1
3	3267	601.314500798845	2
3	3268	601.454371139584	1
3	3271	602.250916754771	0
3	3275	602.256668610515	1
3	3276	603.032142629605	0
3	3285	604.788566254438	1
3	3286	604.796249045458	0
3	3290	605.001607108833	1
3	3291	605.620659630539	0
3	3295	606.402518984153	1
3	3296	606.56675838705	0
3	3310	609.471515295785	1
3	3311	609.881640552292	0
3	3365	639.653211061787	1
3	3366	640.231693549599	0
3	3380	643.073135475193	1
3	3381	643.534253150476	0
3	3385	643.70644573065	1
3	3386	644.090420951294	0
3	3390	644.509212281392	1
3	3391	644.63509275985	0
3	3400	645.19146513449	1
3	3402	645.622197705021	2
3	3403	645.802401556357	1
3	3406	646.594687527887	0
3	3425	652.853766697032	1
3	3426	653.382834233342	0
3	3437	655.131359647444	1
3	3441	656.418222977096	0
3	3445	656.977726461134	1
3	3446	657.417921348164	0
3	3455	658.579174110603	1
3	3457	658.726152743703	2
3	3458	659.020834475725	1
3	3461	659.921256228739	0
3	3470	661.554540633002	1
3	3472	661.563732503944	2
3	3473	661.805922478383	1
3	3477	662.104299811262	2
3	3479	662.214613138923	3
3	3480	662.633688589224	2
3	3483	663.348646405005	1
3	3486	663.974546480171	0
3	3490	664.055388516956	1
3	3491	664.506187500285	0
3	3495	664.641582391331	1
3	3497	664.657439356015	2
3	3498	665.367541955171	1
3	3502	665.47720876049	2
3	3503	665.974052422533	1
3	3507	666.289135815667	2
3	3508	666.846091645763	1
3	3511	667.688449153716	0
3	3560	684.028235740206	1
3	3561	684.364604733739	0
3	3565	684.546053447527	1
3	3571	685.804971308023	0
3	3575	685.976371688069	1
3	3577	686.418825921303	2
3	3578	686.545294533478	1
3	3581	687.478818720713	0
3	3585	687.832734564049	1
3	3586	688.21788286026	0
3	3590	688.757004411046	1
3	3591	688.912777140452	0
3	3595	689.217383326493	1
3	3596	689.899266550359	0
3	3615	692.633470729549	1
3	3616	693.108428463554	0
3	3620	693.433264519216	1
3	3627	694.46112632114	2
3	3633	695.709382582949	1
3	3647	697.205849084428	2
3	3649	697.250722389597	3
3	3675	700.353089456382	2
3	3684	701.207427372517	3
3	3685	701.731990698195	2
3	3688	702.644492144818	1
3	3724	707.045932396087	2
3	3729	707.471703215146	3
3	3745	709.9202349508	2
3	3748	710.453155444125	1
3	3752	710.572932979816	2
3	3766	712.136480647905	3
3	3768	712.184922943372	4
3	3773	712.413625633851	5
3	3780	713.173996363229	6
3	3791	714.481106516702	7
3	3808	717.339556526888	6
3	3817	718.174372437518	7
3	3818	718.907852983225	6
3	3821	719.539338172769	5
3	3830	720.408372674879	6
3	3831	721.11900077088	5
3	3837	721.366696469423	6
3	3839	721.715418167779	7
3	3844	722.119283339264	8
3	3845	722.921305434854	7
3	3853	724.161528068297	6
3	3859	724.927857246307	7
3	3863	725.945417621015	6
3	3866	726.823989547305	5
3	3869	727.496452076808	4
3	3872	728.264095925661	3
3	3875	728.847822330827	2
3	3879	728.949524926503	3
3	3881	729.15079329694	4
3	3882	729.399068434285	3
3	3886	729.522762373945	4
3	3887	729.925204356741	3
3	3891	730.427308037598	4
3	3892	730.755609798971	3
3	3901	732.400118463089	4
3	3902	732.655066860309	3
3	3911	733.859940548185	4
3	3912	733.913585636467	3
3	3921	734.471823201994	4
3	3922	734.759267784218	3
3	3928	735.468682446192	4
3	3932	736.108917019498	3
3	3941	736.876180884163	4
3	3943	736.950487562508	5
3	3944	737.573359088767	4
3	3952	738.581814082088	3
3	3966	740.82675157992	4
3	3967	741.028483559499	3
3	3973	741.192057964055	4
3	3975	741.266022015443	5
3	3979	742.408360449114	4
3	3983	742.767551920174	5
3	3987	742.829588369081	6
3	4006	746.246642282587	5
3	4009	746.694792633858	4
3	4017	748.241925534029	3
3	4020	748.672016316774	2
3	4023	749.246628702833	1
3	4029	750.037871064215	2
3	4034	750.14294155475	3
3	4036	750.270717248562	4
3	4037	750.78642141603	3
3	4046	751.262043108711	4
3	4048	751.32548403166	5
3	4050	751.485329559701	6
3	4051	751.985501969634	5
3	4060	752.842613121064	6
3	4061	753.578898095507	5
3	4069	755.338952565221	4
3	4075	755.58645341377	5
3	4079	756.392357629612	4
3	4087	758.164485377008	3
3	4091	758.186074349016	4
3	4098	758.808138113957	5
3	4099	759.373856060095	4
3	4102	759.81159348309	3
3	4105	760.248907080739	2
3	4113	761.745212932843	1
3	4122	762.804973412066	2
3	4124	762.970315095295	3
3	4125	763.258757611484	2
3	4134	764.287637185459	3
3	4136	764.290098628144	4
3	4137	764.42230228207	3
3	4141	764.479600928644	4
3	4143	764.687996432388	5
3	4150	765.651209493756	6
3	4151	766.319720353818	5
3	4160	767.285629592578	6
3	4161	767.826101584899	5
3	4164	768.536894901263	4
3	4167	769.279561040204	3
3	4171	769.53939467011	4
3	4172	769.81456491689	3
3	4175	770.318784202289	2
3	4179	770.833582768371	3
3	4180	770.887917847306	2
3	4183	771.502438248395	1
3	4186	772.016853620418	0
3	4195	772.92874386854	1
3	4197	773.111480677602	2
3	4199	773.594752638526	3
3	4200	773.623275864655	2
3	4204	773.684476500622	3
3	4205	774.356273407042	2
3	4208	774.998562507397	1
3	4212	775.557179561633	2
3	4213	775.635823920249	1
3	4217	776.30553207002	2
3	4219	776.305699814889	3
3	4220	776.342324106554	2
3	4223	776.902533112485	1
3	4227	777.370235300088	2
3	4229	777.389890815505	3
3	4231	777.412510720633	4
3	4232	777.653335916735	3
3	4235	778.347818132648	2
3	4238	778.998264334788	1
3	4242	779.364572246791	2
3	4243	779.538704705489	1
3	4247	779.624920930578	2
3	4249	779.83256029179	3
3	4250	780.147641915846	2
3	4254	780.176016292386	3
3	4256	780.620725352224	4
3	4257	780.876464027557	3
3	4260	781.333153920592	2
3	4263	781.921008296143	1
3	4266	782.735532859917	0
3	4270	782.840876166693	1
3	4272	783.049084600362	2
3	4273	783.305715854391	1
3	4276	783.870075446199	0
3	4285	784.749234007688	1
3	4286	785.219730868541	0
3	4295	786.281226665533	1
3	4297	786.284888496739	2
3	4299	786.298597592771	3
3	4300	786.32565874612	2
3	4303	786.921631147303	1
3	4307	786.928117065195	2
3	4309	786.93932605101	3
3	4310	787.692586703701	2
3	4314	788.414748407799	3
3	4315	788.595067077419	2
3	4318	789.183735831836	1
3	4322	789.433313966969	2
3	4324	789.566410282589	3
3	4325	790.149640181064	2
3	4329	790.355084629161	3
3	4331	790.452712107951	4
3	4332	790.655143825067	3
3	4336	790.696906360074	4
3	4337	791.407342011817	3
3	4340	792.165418241322	2
3	4343	792.724600560926	1
3	4346	793.15488633831	0
3	4350	793.816937764019	1
3	4352	794.049936849746	2
3	4353	794.108789900606	1
3	4357	794.367375839505	2
3	4358	795.052604857282	1
3	4362	795.210981245939	2
3	4364	795.495829372694	3
3	4365	795.799744662418	2
3	4369	795.916519294465	3
3	4370	796.357574688093	2
3	4379	797.291751629783	3
3	4380	797.797996695534	2
3	4383	798.308614501598	1
3	4389	798.563494565124	2
3	4394	799.398767803083	3
3	4395	800.182091072443	2
3	4403	802.072019851542	1
3	4406	802.722691313558	0
3	4410	803.019954628778	1
3	4411	803.328145756115	0
3	4415	803.396801070136	1
3	4417	803.569763426182	2
3	4418	804.232593473707	1
3	4422	804.376537545383	2
3	4423	805.184654267746	1
3	4426	805.894124616086	0
3	4430	806.030217871379	1
3	4431	806.303681198284	0
3	4440	807.531637781482	1
3	4441	808.022381235964	0
3	4445	808.37295989259	1
3	4446	808.439507884837	0
3	4455	810.302223574777	1
3	4456	810.552393717745	0
3	4460	810.966065120635	1
3	4461	811.380397179078	0
3	4465	811.387475276912	1
3	4466	811.807613831673	0
3	4480	815.432328676406	1
3	4481	815.806206280085	0
3	4495	819.390890074515	1
3	4496	819.488307009746	0
3	4500	819.577594947817	1
3	4501	820.410752767387	0
3	4505	820.689575845997	1
3	4506	821.226902150518	0
3	4510	822.012362467943	1
3	4511	822.060342813438	0
3	4515	822.070340650373	1
3	4517	822.689847512269	2
3	4518	823.051347445479	1
3	4522	823.329124734609	2
3	4523	823.975573930346	1
3	4526	824.542748846269	0
3	4535	827.348069883051	1
3	4536	827.477826126967	0
3	4625	856.071167697101	1
3	4626	856.181235055569	0
3	4635	857.249199010547	1
3	4636	857.969750079409	0
3	4645	859.371117767234	1
3	4646	859.897979681044	0
3	4677	902.723163228075	1
3	4681	903.48513994323	0
3	4695	905.316368897201	1
3	4696	905.405108781767	0
3	4702	905.575596378378	1
3	4707	906.517841027738	2
3	4711	906.681104358558	3
3	4723	907.771146095158	4
3	4727	908.716684383298	3
3	4763	912.910480131248	4
3	4775	914.418010918676	5
3	4782	915.658555949493	6
3	4832	922.496101800485	7
3	4834	922.73503547906	8
3	4835	923.212202810967	7
3	4843	924.669291266292	6
3	4847	924.730638830308	7
3	4853	926.240426608693	6
3	4861	927.800153631443	5
3	4867	928.376232713953	6
3	4872	928.962625091245	7
3	4873	929.592468281096	6
3	4881	930.711503570207	5
3	4884	931.640244917345	4
3	4887	932.403331674921	3
3	4891	932.525640062277	4
3	4892	932.947702610313	3
3	4895	933.454546122353	2
3	4898	934.371870051285	1
3	4901	934.987517221698	0
3	4910	936.507982859014	1
3	4911	936.810361469487	0
3	4915	936.868436182996	1
3	4917	937.346713791931	2
3	4919	937.666964929293	3
3	4920	937.703104398815	2
3	4923	938.170745334817	1
3	4927	938.237262550823	2
3	4928	939.158853526875	1
3	4932	939.372515357879	2
3	4934	939.776064216935	3
3	4935	939.821049710545	2
3	4938	940.354387273682	1
3	4942	940.857545489209	2
3	4943	941.150166244102	1
3	4947	941.158807115899	2
3	4949	941.404811772109	3
3	4950	941.878192956788	2
3	4954	942.447134807972	3
3	4955	942.657033303422	2
3	4959	943.262014770253	3
3	4966	943.801902118788	4
3	4967	944.136064574165	3
3	4975	945.648325676793	2
3	4981	946.244767601437	3
3	4986	946.82927902655	4
3	4987	947.422268243549	3
3	4990	948.335973220687	2
3	4993	949.256872265316	1
3	4997	949.453932391076	2
3	4999	949.685623620753	3
3	5000	949.929811305455	2
3	5004	950.207749316192	3
3	5005	950.794609002718	2
3	5009	950.91354189273	3
3	5010	951.30431711189	2
3	5014	951.592061292151	3
3	5016	951.749047482597	4
3	5017	952.27478073183	3
3	5020	952.99101516888	2
3	5024	953.428992191438	3
3	5025	953.709371809936	2
3	5028	954.45945477243	1
3	5032	954.588568706126	2
3	5034	955.00415302011	3
3	5035	955.284572828137	2
3	5039	955.49619469679	3
3	5040	955.865013617784	2
3	5044	956.088997682118	3
3	5046	956.301209688711	4
3	5047	956.322913188482	3
3	5050	956.997461954825	2
3	5054	956.999961299648	3
3	5055	957.616239129328	2
3	5058	958.47960907835	1
3	5062	958.728012932746	2
3	5069	959.239169442283	3
3	5070	960.015400034464	2
3	5073	960.996293170047	1
3	5077	961.247519881496	2
3	5079	961.66551272929	3
3	5081	961.750093443843	4
3	5082	961.899917961606	3
3	5086	962.279823002221	4
3	5087	962.715086657317	3
3	5090	963.657802092839	2
3	5093	964.352977136053	1
3	5097	964.854848986338	2
3	5098	965.0931110864	1
3	5102	965.489342453464	2
3	5103	965.96705593797	1
3	5107	966.232049353086	2
3	5109	966.386051284373	3
3	5110	966.423759961078	2
3	5113	966.827125738883	1
3	5117	966.827586605266	2
3	5118	967.709787401786	1
3	5121	968.417586503547	0
3	5125	968.605375694528	1
3	5126	969.335750172051	0
3	5130	969.675652782961	1
3	5131	970.277511742102	0
3	5150	975.786801089982	1
3	5152	975.980099538795	2
3	5153	976.432712346268	1
3	5156	977.060787820769	0
3	5160	977.844273111411	1
3	5161	977.953788098832	0
3	5165	977.954333911478	1
3	5167	978.29421980076	2
3	5168	978.848073569079	1
3	5171	979.314070895313	0
3	5175	979.436270605366	1
3	5176	979.737056565749	0
3	5190	982.089386370429	1
3	5191	982.372912504657	0
3	5195	982.47141915282	1
3	5196	983.209252282644	0
3	5205	984.399626504523	1
3	5206	984.469899029417	0
3	5210	984.678087540848	1
3	5216	986.102651676156	0
3	5235	991.193516140554	1
3	5237	991.248014533988	2
3	5238	991.318844227105	1
3	5241	992.180422040572	0
3	5250	993.820934346422	1
3	5251	994.014772122003	0
3	5255	994.32629405934	1
3	5256	994.661828028293	0
3	5260	994.952292709662	1
3	5261	995.588297497457	0
3	5265	995.821245851735	1
3	5266	996.3326385685	0
3	5275	997.394738432721	1
3	5276	997.902819569074	0
3	5322	1009.450290646106	1
3	5329	1010.375520238449	2
3	5333	1011.469851078357	1
3	5341	1012.842544018554	0
3	5345	1012.906494791912	1
3	5351	1014.528589225451	0
3	5360	1015.589097759972	1
3	5361	1015.969914492408	0
3	5370	1017.080102741441	1
3	5372	1017.23470877238	2
3	5373	1017.250106997371	1
3	5381	1018.216869805988	0
3	5407	1022.54138754918	1
3	5426	1026.206506525501	0
3	5440	1030.644964147941	1
3	5441	1030.678703494738	0
3	5490	1047.214228011115	1
3	5501	1048.952316158259	0
3	5512	1050.586650768908	1
3	5516	1051.431379804624	0
3	5527	1052.509181409249	1
3	5531	1053.601524102598	0
3	5610	1077.122186678174	1
3	5611	1077.280251630809	0
3	5615	1077.614782278663	1
3	5616	1078.160787421645	0
3	5635	1082.570302900411	1
3	5636	1082.715629476038	0
3	5642	1083.048811040691	1
3	5646	1083.953461669208	0
3	5679	1088.687437820068	1
3	5694	1090.569249246946	2
3	5703	1092.538060023829	1
3	5727	1095.401880296187	2
3	5728	1095.947222386913	1
3	5731	1096.778252705054	0
3	5735	1096.899632863468	1
3	5736	1097.256379538549	0
3	5740	1097.452631115645	1
3	5741	1097.889754807165	0
3	5760	1101.560647580835	1
3	5762	1101.650804361518	2
3	5763	1102.143302195238	1
3	5772	1102.900253138957	2
3	5773	1103.340436630601	1
3	5782	1103.763066850312	2
3	5783	1104.353374896895	1
3	5791	1105.742916761802	0
3	5797	1106.228741413218	1
3	5801	1107.491825167506	0
3	5810	1108.745217538823	1
3	5811	1108.859691238726	0
3	5815	1109.030314610575	1
3	5816	1109.3276299227	0
3	5825	1110.06904765241	1
3	5827	1110.250884114674	2
3	5828	1110.636302737516	1
3	5832	1110.788543137274	2
3	5839	1111.49978018684	3
3	5840	1112.321088598386	2
3	5849	1113.366975369814	3
3	5850	1114.109332932017	2
3	5859	1114.932245991506	3
3	5865	1116.213102315364	2
3	5873	1117.711316884958	1
3	5876	1118.565444011145	0
3	5882	1119.329538977687	1
3	5886	1120.225497759969	0
3	5890	1120.29837993642	1
3	5897	1121.115280361812	2
3	5898	1121.349347426647	1
3	5902	1121.373476771844	2
3	5903	1122.297130816754	1
3	5909	1122.884363107496	2
3	5914	1123.199616121325	3
3	5916	1123.210542817174	4
3	5917	1123.867025035804	3
3	5920	1124.694117456207	2
3	5924	1124.78067191266	3
3	5933	1126.112469101976	4
3	5940	1127.028204942857	5
3	5945	1127.402296311611	6
3	5947	1127.570181262001	7
3	5948	1127.688755989119	6
3	5956	1129.187321923904	5
3	5962	1129.292321200982	6
3	5964	1129.450795826724	7
3	5969	1130.405421379373	8
3	5970	1130.793490830108	7
3	5973	1131.694641156725	6
3	5982	1133.026607712571	7
3	5983	1133.067278318849	6
3	5986	1133.47097367183	5
3	5992	1134.00756699414	6
3	5994	1134.112546597316	7
3	5996	1134.377837480512	8
3	6001	1134.573035559424	9
3	6002	1135.130325394213	8
3	6011	1136.598193581183	9
3	6012	1136.815540464265	8
3	6020	1137.906371873241	7
3	6026	1138.751596954201	8
3	6030	1139.44379524048	7
3	6033	1140.053828346679	6
3	6037	1140.228917811174	7
3	6039	1140.249723976309	8
3	6040	1141.048401409989	7
3	6046	1141.603567608372	8
3	6050	1142.535721041165	7
3	6053	1143.094356728807	6
3	6056	1143.916718278309	5
3	6060	1144.060811432426	6
3	6061	1144.538044916648	5
3	6065	1144.927058724725	6
3	6066	1145.085027076672	5
3	6069	1145.647542813369	4
3	6072	1146.143642996061	3
3	6076	1146.228391635585	4
3	6078	1146.453070230351	5
3	6080	1146.7771390824	6
3	6081	1146.983296761192	5
3	6085	1147.379636462906	6
3	6086	1147.598647836266	5
3	6089	1148.367448017556	4
3	6093	1148.894131974171	5
3	6094	1149.295743287351	4
3	6098	1149.545111078026	5
3	6100	1149.595652092508	6
3	6101	1150.119807476034	5
3	6105	1150.389305930294	6
3	6106	1150.903508675793	5
3	6110	1151.211370647519	6
3	6111	1151.872984554382	5
3	6115	1151.887486094625	6
3	6119	1152.456628227744	7
3	6123	1153.306563394746	6
3	6131	1154.730878478611	5
3	6135	1154.914294962239	6
3	6136	1155.156155606309	5
3	6140	1155.208102182292	6
3	6147	1156.688710252673	7
3	6148	1156.699952838147	6
3	6152	1156.735597727136	7
3	6154	1156.942850066282	8
3	6160	1157.731936413838	7
3	6166	1157.966345795249	8
3	6171	1158.624197398299	9
3	6172	1159.473186691195	8
3	6176	1159.483626621554	9
3	6182	1161.040371176178	8
3	6190	1162.555054161135	7
3	6194	1162.746039159831	8
3	6195	1162.996301946273	7
3	6199	1163.193924019428	8
3	6205	1164.712871467085	7
3	6213	1165.227343710277	8
3	6215	1165.275175386414	9
3	6220	1166.079030867321	10
3	6235	1167.957733707013	11
3	6284	1173.611526078752	12
3	6288	1174.057783049791	13
3	6300	1175.210029166492	14
3	6337	1179.677277033008	15
3	6414	1190.979978717174	16
3	6454	1197.419923632994	17
3	6463	1198.058289373855	18
3	6471	1199.47616380548	19
3	6472	1199.728977622367	18
3	6480	1200.776170478059	17
3	6489	1201.735635723597	18
3	6490	1202.364335627477	17
3	6493	1202.945104271495	16
3	6497	1203.539972471652	17
3	6498	1203.602783946409	16
3	6507	1204.503262871026	17
3	6516	1205.293525604149	18
3	6533	1206.897493379656	19
3	6572	1213.623714718777	18
3	6575	1214.141058865092	17
3	6578	1215.135831978587	16
3	6582	1215.513743410965	17
3	6583	1216.022768808292	16
3	6586	1216.531541846735	15
3	6590	1216.820681720799	16
3	6591	1217.040549026798	15
3	6595	1217.128423003991	16
3	6596	1217.748469266617	15
3	6600	1217.871749245788	16
3	6606	1218.991878506584	15
3	6614	1220.112538331185	14
3	6617	1220.698800624857	13
3	6620	1221.258964385694	12
3	6626	1221.52441698133	13
3	6628	1221.933986240578	14
3	6632	1222.534192132248	13
3	6640	1222.995701427129	14
3	6642	1223.229262845308	15
3	6652	1224.808155043287	16
3	6657	1225.313588644313	17
3	6658	1225.352211266892	16
3	6662	1225.5293243645	17
3	6668	1226.63923826981	16
3	6674	1226.720723912853	17
3	6676	1227.397588639159	18
3	6681	1228.310729648673	19
3	6682	1228.460949517877	18
3	6691	1229.087523797549	19
3	6693	1229.198044326789	20
3	6761	1238.699944358586	21
3	6794	1243.334541734461	22
3	6811	1245.796139676798	23
3	6818	1246.511294775712	24
3	6877	1255.624617377296	23
3	6880	1256.095349607803	22
3	6888	1256.602742292698	23
3	6898	1258.060968396492	24
3	6927	1263.0774487135	23
3	6930	1263.49289477081	22
3	6934	1263.82430537387	23
3	6935	1263.913684857869	22
3	6941	1264.78177611163	23
3	6945	1265.403160795662	22
3	6954	1266.159962529452	23
3	6955	1266.956155296089	22
3	6958	1267.423523854324	21
3	6962	1267.707325531939	22
3	6963	1268.097707584733	21
3	6974	1269.219815702373	22
3	6979	1269.546751895796	23
3	6985	1270.941534695215	22
3	6994	1271.810964284805	23
3	6995	1272.389256438706	22
3	7003	1274.142529081646	21
3	7006	1274.881502764951	20
3	7010	1275.305036941674	21
3	7011	1275.486770392069	20
3	7014	1276.187207347247	19
3	7018	1276.26947311566	20
3	7019	1277.031090569449	19
3	7023	1277.051663088202	20
3	7024	1277.782662075804	19
3	7028	1278.076566051226	20
3	7029	1278.197067315038	19
3	7033	1278.33791219035	20
3	7034	1279.177887193765	19
3	7037	1279.84544553738	18
3	7045	1280.880164775438	17
3	7048	1281.28535550828	16
3	7052	1281.39659977475	17
3	7053	1282.045832812878	16
3	7057	1282.710818608509	17
3	7058	1282.799047467996	16
3	7067	1284.128243047947	17
3	7068	1284.210746211371	16
3	7074	1284.395868276376	17
3	7076	1284.844964143953	18
3	7080	1285.672591467294	17
3	7084	1285.813518025343	18
3	7086	1286.22005358626	19
3	7087	1286.375281644006	18
3	7091	1286.74899932431	19
3	7092	1286.936015972028	18
3	7096	1287.146368544097	19
3	7097	1287.38268185905	18
3	7101	1287.743815855382	19
3	7102	1287.826761841912	18
3	7106	1288.314233853386	19
3	7107	1288.319466363497	18
3	7110	1288.80909882034	17
3	7114	1288.903461547582	18
3	7116	1289.023169252407	19
3	7117	1289.772274993917	18
3	7121	1289.913508930076	19
3	7122	1290.28355113142	18
3	7126	1290.746473820726	19
3	7133	1290.949724151872	20
3	7134	1291.295526082487	19
3	7137	1291.975997539609	18
3	7140	1292.416735457489	17
3	7144	1293.246965470944	18
3	7145	1293.28478178191	17
3	7149	1293.539632046386	18
3	7150	1293.847277700296	17
3	7153	1294.317584770639	16
3	7157	1294.344653643316	17
3	7159	1294.34584726101	18
3	7160	1295.243535819231	17
3	7164	1295.440126534045	18
3	7171	1296.713974808062	19
3	7172	1296.79973821803	18
3	7181	1297.466791495445	19
3	7182	1298.154822218139	18
3	7191	1299.482671143296	19
3	7193	1299.950030399357	20
3	7194	1300.072605280346	19
3	7210	1301.782771819287	20
3	7239	1305.069761105342	21
3	7264	1309.126070732573	22
3	7296	1313.100788229625	23
3	7311	1314.310241030393	24
3	7312	1314.888944335841	23
3	7315	1315.831893323455	22
3	7319	1316.046474769835	23
3	7320	1316.670777002489	22
3	7323	1317.094520649686	21
3	7327	1317.188344337205	22
3	7328	1317.784247854817	21
3	7332	1317.986670375286	22
3	7334	1318.040219985833	23
3	7335	1318.244337371783	22
3	7338	1319.121642319346	21
3	7341	1319.670538367937	20
3	7345	1320.263423838532	21
3	7346	1320.59339812412	20
3	7349	1321.162786463183	19
3	7353	1321.486559399771	20
3	7354	1321.867465707847	19
3	7358	1321.904438552032	20
3	7359	1322.755360749039	19
3	7363	1323.564346545942	20
3	7364	1323.620646082238	19
3	7368	1323.66574886108	20
3	7369	1324.02264207434	19
3	7372	1324.502236425272	18
3	7376	1324.976660797932	19
3	7377	1325.112910028734	18
3	7381	1325.603579620205	19
3	7383	1325.741422288615	20
3	7384	1325.865424973472	19
3	7388	1325.946239159585	20
3	7389	1326.53566935286	19
3	7393	1326.876617198651	20
3	7394	1327.127108821786	19
3	7398	1327.285989180677	20
3	7399	1327.703661702528	19
3	7403	1328.147566551181	20
3	7404	1328.591096877029	19
3	7407	1329.226176706517	18
3	7411	1329.493719886793	19
3	7413	1329.566517798956	20
3	7414	1330.214798188025	19
3	7418	1330.368761945251	20
3	7420	1330.72477428695	21
3	7421	1330.791693837756	20
3	7425	1331.060865940581	21
3	7426	1331.765515947297	20
3	7430	1331.909148738995	21
3	7431	1332.446207388306	20
3	7434	1333.36337444042	19
3	7438	1333.978402800749	20
3	7439	1334.344128378715	19
3	7442	1335.32983258255	18
3	7445	1336.160010586727	17
3	7449	1336.457743890816	18
3	7451	1336.551327059621	19
3	7453	1336.570847081817	20
3	7454	1336.84734939146	19
3	7457	1337.418839052973	18
3	7461	1337.436788678405	19
3	7462	1338.360906267307	18
3	7465	1339.083676395986	17
3	7468	1339.968038563479	16
3	7471	1340.447198123301	15
3	7475	1340.493121600389	16
3	7476	1340.972856612692	15
3	7480	1341.671759898006	16
3	7481	1341.73209504015	15
3	7484	1342.521325428553	14
3	7488	1342.532253939189	15
3	7490	1342.720329700685	16
3	7491	1342.93670515679	15
3	7495	1342.961865695805	16
3	7497	1343.504148904787	17
3	7498	1343.56542777219	16
3	7502	1343.620004525888	17
3	7504	1343.822643199789	18
3	7505	1344.392306427519	17
3	7509	1345.121668340588	18
3	7510	1345.205130089122	17
3	7514	1345.289767561545	18
3	7515	1345.916885460076	17
3	7518	1346.407503160183	16
3	7521	1347.23670750768	15
3	7525	1347.612642916111	16
3	7527	1347.909627081203	17
3	7528	1348.112919543079	16
3	7531	1348.964495453332	15
3	7534	1349.868835340394	14
3	7543	1351.009971833612	15
3	7544	1351.441933785985	14
3	7548	1351.509097026166	15
3	7549	1351.925829372556	14
3	7553	1352.556214368224	15
3	7554	1352.606448747358	14
3	7563	1353.240622255005	15
3	7565	1353.620569775909	16
3	7566	1353.647796000215	15
3	7570	1353.668963274597	16
3	7577	1354.776220899571	17
3	7579	1354.783656022658	18
3	7580	1355.208177550417	17
3	7584	1355.208238983601	18
3	7590	1356.709399890388	17
3	7594	1357.029638640806	18
3	7603	1358.030874561334	19
3	7607	1358.937771119177	18
3	7613	1358.988397019679	19
3	7632	1361.601608577325	18
3	7641	1362.428473258817	19
3	7647	1363.68120177025	18
3	7656	1364.603780389392	19
3	7657	1365.422086068849	18
3	7670	1367.21076753419	17
3	7679	1368.571658740131	18
3	7680	1369.032516179794	17
3	7683	1369.936571040518	16
3	7687	1370.29762946614	17
3	7688	1370.436946875743	16
3	7692	1370.648940593867	17
3	7699	1371.408727399321	18
3	7700	1371.577229184519	17
3	7709	1372.274383069423	18
3	7730	1375.363407557739	17
3	7741	1376.542359694186	18
3	7745	1377.440074663752	17
3	7748	1377.899955378848	16
3	7752	1378.231809119846	17
3	7754	1378.752680811603	18
3	7755	1378.764552456376	17
3	7758	1379.333218792689	16
3	7762	1379.542693094271	17
3	7763	1380.048731630717	16
3	7766	1380.560082872168	15
3	7769	1381.414765016691	14
3	7773	1382.040631423527	15
3	7774	1382.046486275553	14
3	7778	1382.207598780142	15
3	7779	1382.667806855592	14
3	7782	1383.239202104046	13
3	7785	1383.812236574761	12
3	7788	1384.311723231015	11
3	7791	1384.996401504849	10
3	7795	1385.177481477867	11
3	7796	1385.808956995842	10
3	7800	1385.918394108339	11
3	7801	1386.653823004573	10
3	7809	1387.748131322957	9
3	7818	1388.556086665267	10
3	7819	1388.966869355182	9
3	7825	1389.185343168436	10
3	7830	1389.704682525063	11
3	7832	1389.744125779948	12
3	7833	1389.884151980424	11
3	7839	1390.665200600836	12
3	7843	1391.451747371586	11
3	7849	1391.551700077243	12
3	7853	1392.738691543978	11
3	7859	1392.928314792581	12
3	7861	1393.090119288325	13
3	7866	1393.880725752753	14
3	7868	1394.078257282881	15
3	7869	1394.132314685364	14
3	7872	1394.894573704577	13
3	7876	1395.401267945821	14
3	7877	1395.766308896481	13
3	7881	1395.772311202372	14
3	7882	1396.174380428116	13
3	7885	1396.576945999316	12
3	7889	1397.357005473977	13
3	7890	1397.472198446984	12
3	7894	1397.884313199099	13
3	7895	1398.200787504906	12
3	7899	1398.794442647909	13
3	7900	1398.973530906582	12
3	7904	1399.771714990004	13
3	7905	1399.968223094338	12
3	7909	1400.333213456793	13
3	7910	1400.894873692937	12
3	7913	1401.392994008869	11
3	7916	1401.955189659683	10
3	7920	1402.678822880627	11
3	7921	1402.707466396041	10
3	7925	1403.00592272009	11
3	7926	1403.423635724703	10
3	7930	1403.523249539747	11
3	7937	1405.275819412402	12
3	7938	1405.318036289936	11
3	7944	1405.872804354537	12
3	7948	1406.534066522498	11
3	7954	1407.198613678059	12
3	7958	1407.960774335735	11
3	7961	1408.789960770686	10
3	7965	1408.819193223533	11
3	7967	1409.225140875214	12
3	7968	1409.407323871883	11
3	7971	1410.165285329804	10
3	7975	1410.228181423303	11
3	7976	1410.829497638907	10
3	7980	1411.117473697888	11
3	7986	1412.490413162349	10
3	7992	1412.904025126616	11
3	7997	1413.98667218998	12
3	7998	1414.067879984998	11
3	8002	1414.365507332655	12
3	8008	1415.405103433276	11
3	8016	1416.322512529562	10
3	8020	1416.57815968418	11
3	8029	1417.168785698619	12
3	8056	1421.29883774288	13
3	8106	1428.20645374568	14
3	8107	1429.062731714179	13
3	8126	1431.756282832375	14
3	8127	1432.062496969295	13
3	8140	1434.297810002561	12
3	8148	1435.029405081576	13
3	8157	1435.906552385162	14
3	8182	1439.450334489578	15
3	8189	1441.470175580546	14
3	8202	1442.368678005987	15
3	8204	1442.496686852267	16
3	8216	1444.738793562033	15
3	8220	1445.616684135633	16
3	8221	1445.679411879887	15
3	8225	1445.830444435351	16
3	8226	1446.387645391381	15
3	8229	1446.825661318616	14
3	8232	1447.490639400349	13
3	8235	1448.469561491308	12
3	8238	1449.449128029642	11
3	8242	1449.819878900392	12
3	8243	1450.115186008818	11
3	8246	1451.10228435924	10
3	8250	1451.128600922354	11
3	8252	1451.573995046118	12
3	8253	1451.928451584333	11
3	8257	1452.551926514207	12
3	8258	1452.730489944348	11
3	8262	1452.871665884613	12
3	8263	1453.653889001261	11
3	8266	1454.225445494901	10
3	8270	1454.289381994943	11
3	8271	1455.174087270403	10
3	8275	1455.475723869486	11
3	8276	1455.86302443017	10
3	8280	1456.294753792595	11
3	8282	1456.34206703393	12
3	8283	1456.74414966312	11
3	8286	1457.220020408889	10
3	8290	1457.895171181686	11
3	8291	1458.001676682716	10
3	8294	1458.520306878125	9
3	8298	1459.005809792961	10
3	8299	1459.476199231211	9
3	8302	1460.031987560641	8
3	8306	1460.129366152169	9
3	8307	1460.701115534089	8
3	8311	1460.727366883033	9
3	8312	1461.257739771723	8
3	8316	1461.867437403217	9
3	8317	1462.181917812123	8
3	8320	1462.632159870264	7
3	8324	1462.896544478866	8
3	8328	1463.220662245939	9
3	8330	1463.223193233122	10
3	8335	1463.680139294407	11
3	8337	1463.738835145205	12
3	8338	1464.018689170346	11
3	8347	1465.676084359615	12
3	8348	1465.692912941665	11
3	8351	1466.586299496243	10
3	8354	1467.406080255104	9
3	8357	1467.999596416117	8
3	8361	1468.38753029248	9
3	8362	1468.997318536281	8
3	8365	1469.910828093258	7
3	8369	1470.237082889188	8
3	8370	1470.482687514467	7
3	8373	1471.009081898216	6
3	8377	1471.207023703926	7
3	8378	1471.532509669527	6
3	8382	1471.53544801012	7
3	8383	1472.25920253336	6
3	8387	1472.991237828317	7
3	8388	1473.169876965792	6
3	8391	1473.640599419228	5
3	8395	1473.887597347435	6
3	8396	1474.434889444295	5
3	8400	1474.891057498994	6
3	8401	1475.321186016878	5
3	8404	1476.203691575915	4
3	8407	1476.690441968298	3
3	8411	1476.825670195548	4
3	8413	1477.131102676481	5
3	8414	1477.167346186104	4
3	8418	1477.497651989867	5
3	8420	1477.592843545856	6
3	8421	1477.875168490789	5
3	8424	1478.38124782751	4
3	8428	1478.735833901617	5
3	8430	1479.070268157864	6
3	8432	1479.204463705988	7
3	8433	1479.234661616438	6
3	8437	1479.639363143144	7
3	8438	1479.684808288661	6
3	8441	1480.650666710648	5
3	8444	1481.057907840151	4
3	8448	1481.876431030875	5
3	8449	1481.93471357106	4
3	8453	1482.39741267668	5
3	8455	1482.619298601017	6
3	8462	1483.16713895411	7
3	8463	1483.378453666211	6
3	8474	1484.136127085433	7
3	8481	1485.175316598593	8
3	8493	1486.635958027746	9
3	8512	1490.056735692878	8
3	8515	1490.836821645505	7
3	8519	1491.361091045818	8
3	8520	1491.797990598443	7
3	8523	1492.290607877268	6
3	8526	1492.999446018326	5
3	8530	1493.662824035766	6
3	8531	1493.709553020407	5
3	8535	1493.74772848261	6
3	8537	1493.899181749116	7
3	8539	1493.968938259492	8
3	8540	1494.178861803987	7
3	8544	1494.331685030607	8
3	8545	1494.607798547863	7
3	8549	1495.116371522202	8
3	8550	1495.469063710335	7
3	8554	1495.920625605707	8
3	8561	1496.636688763305	9
3	8562	1496.677375538747	8
3	8570	1498.585280007969	7
3	8574	1498.74517066963	8
3	8576	1498.911441664717	9
3	8578	1499.005970562347	10
3	8579	1499.44723746577	9
3	8583	1499.712621451788	10
3	8584	1500.022843984521	9
3	8587	1500.921090577922	8
3	8590	1501.449407633354	7
3	8594	1501.734265496659	8
3	8596	1502.279260270341	9
3	8597	1502.431137569674	8
3	8601	1503.039087364816	9
3	8602	1503.365752691502	8
3	8606	1503.908763203415	9
3	8607	1504.038503878104	8
3	8611	1504.629050086052	9
3	8612	1504.738329573773	8
3	8615	1505.241056505736	7
3	8619	1505.253308238108	8
3	8620	1505.720243211189	7
3	8623	1506.125680663535	6
3	8627	1506.849425494462	7
3	8629	1506.902464878932	8
3	8630	1507.038788049254	7
3	8634	1507.205910726184	8
3	8635	1507.887864121148	7
3	8638	1508.494575441401	6
3	8642	1508.709178945094	7
3	8644	1508.754282090852	8
3	8645	1509.02157795332	7
3	8649	1509.32002708658	8
3	8651	1509.563629020102	9
3	8652	1509.825825784408	8
3	8656	1510.261039230556	9
3	8657	1510.761409821554	8
3	8660	1511.449933649559	7
3	8664	1511.472057792461	8
3	8670	1512.684997558554	7
3	8673	1513.287402743248	6
3	8676	1513.7772882904	5
3	8682	1514.247826044274	6
3	8687	1514.67827305815	7
3	8688	1515.001144896222	6
3	8696	1515.950138076681	5
3	8705	1516.976823311524	6
3	8706	1517.483434584557	5
3	8714	1519.204452431395	4
3	8718	1519.774600398593	5
3	8725	1520.840630953874	6
3	8727	1520.959778341917	7
3	8728	1520.974944412529	6
3	8731	1521.843502897636	5
3	8739	1523.129933317058	4
3	8743	1523.297833837497	5
3	8750	1524.170470857986	6
3	8751	1524.654879040975	5
3	8755	1524.903702420284	6
3	8756	1525.497969223518	5
3	8762	1525.721569989467	6
3	8767	1526.581348866526	7
3	8768	1526.614015208144	6
3	8772	1527.141318047915	7
3	8773	1527.158699235	6
3	8776	1527.632361756224	5
3	8779	1528.143437724938	4
3	8783	1528.576994168399	5
3	8785	1528.684785278768	6
3	8786	1529.122767672739	5
3	8790	1529.877650531924	6
3	8791	1530.0060685386	5
3	8794	1530.869598382763	4
3	8798	1531.118845532787	5
3	8799	1531.507833909947	4
3	8802	1531.908762414293	3
3	8805	1532.464011587161	2
3	8808	1533.263689812231	1
3	8812	1533.411176623601	2
3	8813	1533.824120000661	1
3	8817	1533.940434730621	2
3	8818	1534.391228522132	1
3	8822	1534.494374859454	2
3	8823	1535.329655205742	1
3	8827	1535.481000553752	2
3	8829	1535.945758341146	3
3	8830	1535.983136545592	2
3	8834	1536.094856112305	3
3	8836	1536.121420267761	4
3	8838	1536.407270754134	5
3	8839	1536.784729338861	4
3	8842	1537.535954227955	3
3	8845	1537.959867208735	2
3	8849	1538.387577816092	3
3	8850	1538.596346083893	2
3	8854	1538.699687090979	3
3	8855	1539.087830975842	2
3	8861	1539.623548038164	3
3	8863	1539.696435809601	4
3	8868	1540.386815710506	5
3	8869	1540.658256103801	4
3	8882	1542.087486818297	3
3	8886	1542.793747170809	4
3	8887	1543.045801996956	3
3	8891	1543.100685375868	4
3	8892	1543.639871196499	3
3	8895	1544.391711309463	2
3	8899	1544.524118375481	3
3	8901	1544.789069390883	4
3	8902	1545.0986267963	3
3	8906	1545.753283968953	4
3	8907	1545.903701424882	3
3	8911	1545.94067089287	4
3	8913	1546.522261464992	5
3	8914	1546.574903385857	4
3	8918	1546.682798971208	5
3	8919	1547.56395939696	4
3	8923	1547.76351548813	5
3	8924	1548.224112302441	4
3	8928	1548.524830561548	5
3	8929	1548.950971384583	4
3	8933	1549.807205403042	5
3	8934	1549.892814889973	4
3	8938	1550.235203837786	5
3	8939	1550.633060119025	4
3	8942	1551.077643633265	3
3	8945	1552.055968042001	2
3	8948	1552.500565737443	1
3	8951	1552.944956515687	0
3	8960	1556.501911038776	1
3	8961	1556.514442807266	0
3	8970	1558.009894734743	1
3	8972	1558.197046899983	2
3	8973	1558.248929459689	1
3	8977	1558.982717254476	2
3	8978	1559.17655586786	1
3	8982	1559.551133526265	2
3	8984	1559.930222631197	3
3	8985	1559.990123123856	2
3	8989	1560.737357642574	3
3	8990	1560.987116112182	2
3	8993	1561.82874776171	1
3	8996	1562.304316061031	0
3	9000	1562.472916667191	1
3	9002	1562.858547602541	2
3	9004	1562.930806359297	3
3	9005	1563.011518652918	2
3	9008	1563.894885008544	1
3	9012	1564.659658162702	2
3	9013	1564.867720056227	1
3	9016	1565.366765875085	0
3	9020	1565.646015242083	1
3	9021	1565.917397860805	0
3	9035	1569.341069422676	1
3	9037	1569.507632902677	2
3	9038	1569.803133981285	1
3	9041	1570.71213119629	0
3	9050	1572.090296631956	1
3	9052	1572.706922474477	2
3	9053	1572.880329867055	1
3	9056	1573.328251476747	0
3	9075	1576.132960313457	1
3	9076	1576.362060628712	0
3	9080	1577.198824766274	1
3	9082	1577.28624206554	2
3	9083	1577.320595346039	1
3	9086	1577.969359271295	0
3	9095	1579.106101345348	1
3	9096	1579.126291934279	0
3	9100	1579.243925673949	1
3	9101	1580.023427884997	0
3	9105	1580.30252705474	1
3	9107	1580.383658022307	2
3	9108	1580.456789490878	1
3	9112	1580.570359045152	2
3	9113	1581.42841225231	1
3	9116	1582.008120206016	0
3	9125	1583.691294521809	1
3	9126	1583.790737183764	0
3	9135	1585.776653139171	1
3	9136	1585.786114128703	0
3	9140	1586.238146373553	1
3	9141	1586.339820578346	0
3	9145	1586.575926051574	1
3	9146	1586.953709078651	0
3	9150	1587.732713504682	1
3	9151	1587.859337428935	0
3	9160	1590.403017740688	1
3	9162	1590.967722231568	2
3	9163	1591.135446566546	1
3	9172	1591.728835525952	2
3	9173	1592.109694717002	1
3	9182	1593.242593667958	2
3	9183	1593.309450985973	1
3	9187	1593.551133622998	2
3	9194	1594.27803815939	3
3	9196	1594.370165914871	4
3	9197	1595.000184015713	3
3	9200	1595.941011987317	2
3	9203	1596.908741475844	1
3	9212	1598.35930874292	2
3	9213	1598.660849700186	1
3	9216	1599.620381590182	0
3	9220	1599.93350229351	1
3	9221	1600.023652167868	0
3	9225	1600.490514220239	1
3	9226	1600.530675505538	0
3	9250	1605.79535429191	1
3	9251	1606.675456467708	0
3	9255	1606.691524932238	1
3	9257	1606.79595045043	2
3	9259	1606.843824729067	3
3	9261	1607.095630003548	4
3	9262	1607.313762626256	3
3	9265	1608.203208577977	2
3	9269	1608.335365399959	3
3	9270	1609.167977759353	2
3	9274	1609.539274352356	3
3	9283	1610.714416639661	4
3	9300	1612.670553143326	5
3	9305	1613.429961232512	6
3	9319	1614.893722607122	7
3	9328	1617.194856183621	6
3	9331	1617.655450337118	5
3	9334	1618.123586136492	4
3	9338	1618.316526772813	5
3	9339	1618.633848098356	4
3	9342	1619.034808327926	3
3	9346	1619.235020121825	4
3	9347	1619.750993141036	3
3	9350	1620.367392695385	2
3	9354	1621.100043949648	3
3	9355	1621.239838399149	2
3	9359	1621.344927958849	3
3	9361	1621.407675008342	4
3	9362	1621.846574505388	3
3	9366	1622.072127975611	4
3	9367	1622.705407136741	3
3	9370	1623.247549639658	2
3	9374	1623.599907357929	3
3	9375	1623.667800076601	2
3	9379	1623.98740773529	3
3	9381	1624.121803691531	4
3	9383	1624.262222373976	5
3	9384	1624.276181239883	4
3	9387	1625.259940719806	3
3	9391	1625.468326757862	4
3	9398	1625.936482613681	5
3	9400	1626.406325807154	6
3	9401	1626.915247672393	5
3	9404	1627.799540993587	4
3	9410	1628.120477850222	5
3	9414	1628.846544520526	4
3	9417	1629.807684544583	3
3	9421	1630.135468973958	4
3	9422	1630.543189379216	3
3	9425	1631.330686773934	2
3	9428	1631.881282406223	1
3	9431	1632.408355590018	0
3	9435	1632.464517951306	1
3	9436	1633.043683674155	0
3	9445	1634.046424181893	1
3	9447	1634.14165588569	2
3	9448	1634.613146040767	1
3	9452	1634.711060630619	2
3	9454	1634.905686576822	3
3	9455	1635.601031744426	2
3	9458	1636.092249573154	1
3	9462	1636.566479593918	2
3	9464	1636.919656096032	3
3	9465	1637.011028277214	2
3	9469	1637.589658775179	3
3	9471	1637.639574137197	4
3	9472	1637.752662417797	3
3	9476	1638.621362288135	4
3	9477	1638.724869423585	3
3	9481	1638.940819483618	4
3	9482	1639.641975791978	3
3	9486	1640.134446833206	4
3	9487	1640.151922093464	3
3	9491	1640.345339349783	4
3	9492	1640.867997145133	3
3	9496	1640.998794010988	4
3	9498	1641.106390039302	5
3	9500	1641.715203808914	6
3	9501	1641.747328081394	5
3	9504	1642.164419128692	4
3	9508	1642.42147908587	5
3	9514	1643.694009430001	4
3	9520	1644.075064806671	5
3	9524	1645.121552933233	4
3	9530	1645.484052138852	5
3	9532	1645.810559413744	6
3	9537	1646.282549268445	7
3	9538	1646.519213382427	6
3	9542	1646.627276524989	7
3	9543	1647.020020888878	6
3	9552	1648.327658920732	7
3	9553	1648.554938222274	6
3	9559	1648.830444224335	7
3	9564	1649.561817909429	8
3	9565	1649.94335713735	7
3	9574	1651.046541054915	8
3	9580	1651.702376908289	7
3	9589	1652.574757750313	8
3	9590	1653.076046383513	7
3	9599	1654.17230264287	8
3	9600	1654.538941064888	7
3	9604	1654.738743035089	8
3	9610	1655.544241333931	7
3	9619	1656.431290060754	8
3	9621	1656.475326762797	9
3	9622	1656.694856701364	8
3	9626	1656.768437142252	9
3	9633	1658.194737985245	10
3	9634	1658.366728532027	9
3	9642	1659.830307375073	8
3	9650	1661.13770401803	7
3	9653	1662.108621427083	6
3	9659	1662.340575974273	7
3	9663	1663.043661719785	6
3	9672	1664.362457528576	7
3	9673	1664.520179648502	6
3	9682	1665.998855511041	7
3	9683	1666.098213681942	6
3	9689	1666.204071029904	7
3	9691	1666.538524829151	8
3	9696	1667.036487852063	9
3	9697	1667.412555048931	8
3	9700	1667.842551733637	7
3	9706	1668.407378331705	8
3	9718	1669.576768819557	9
3	9722	1670.645329230921	8
3	9726	1670.926988512957	9
3	9727	1671.114426465463	8
3	9730	1671.863701943625	7
3	9733	1672.745353609547	6
3	9737	1672.765374186288	7
3	9739	1673.340719461022	8
3	9741	1673.496218974908	9
3	9742	1673.506610887535	8
3	9746	1673.523561255314	9
3	9747	1674.217777123572	8
3	9751	1674.271053442887	9
3	9758	1675.213540625284	10
3	9759	1676.012404352044	9
3	9768	1676.79658392704	10
3	9769	1677.612631647838	9
3	9775	1677.956417142723	10
3	9780	1678.134655646582	11
3	9781	1678.982490134881	10
3	9790	1680.083981638459	11
3	9791	1680.764662981908	10
3	9797	1681.180087459185	11
3	9802	1681.63332911196	12
3	9803	1682.195057907039	11
3	9812	1683.637955036088	12
3	9813	1683.739381502838	11
3	9822	1684.287688183604	12
3	9823	1684.765232299258	11
3	9826	1685.176856646537	10
3	9835	1686.196795413042	11
3	9837	1686.229403505963	12
3	9838	1686.908201265045	11
3	9841	1687.511782607891	10
3	9849	1688.776029722381	9
3	9855	1689.025767773162	10
3	9859	1690.183361284517	9
3	9865	1690.402090114883	10
3	9867	1690.836876220462	11
3	9872	1691.014222697968	12
3	9874	1691.629902507556	13
3	9876	1691.681619503904	14
3	9877	1691.800611307135	13
3	9886	1692.649443330093	14
3	9887	1692.874816184247	13
3	9898	1694.264074963114	14
3	9937	1700.137711291376	13
3	9946	1701.291685695737	14
3	9979	1705.371481376821	15
3	9994	1707.619753401691	16
3	10038	1713.387305745694	17
3	10077	1718.332210972972	18
3	10087	1719.354747795347	19
3	10112	1724.357695148549	18
3	10121	1725.02269987474	19
3	10122	1725.567378134503	18
3	10126	1725.759134248167	19
3	10133	1726.576991678281	20
3	10134	1727.28768711415	19
3	10142	1728.286573851796	18
3	10148	1728.508572586581	19
3	10150	1729.139405833179	20
3	10155	1730.066982116465	21
3	10156	1730.214021806175	20
3	10165	1731.286266279399	21
3	10166	1731.922076968651	20
3	10169	1732.322814025579	19
3	10177	1733.687193627132	18
3	10186	1734.865677889738	19
3	10187	1735.16484011513	18
3	10193	1735.434178175599	19
3	10197	1736.334670109198	18
3	10206	1737.356970203856	19
3	10207	1737.790216587007	18
3	10215	1739.36008299141	17
3	10224	1740.39086301133	18
3	10225	1741.01929908538	17
3	10234	1741.52830336622	18
3	10235	1742.244508930889	17
3	10239	1742.361893383302	18
3	10245	1743.665590365918	17
3	10251	1743.842634705862	18
3	10256	1744.772613723415	19
3	10283	1748.331566145895	20
3	10295	1749.240636185185	21
3	10306	1751.295501772955	20
3	10329	1754.886458091753	19
3	10337	1756.47271158764	18
3	10340	1756.88596642142	17
3	10344	1756.919574205163	18
3	10356	1758.926897974963	19
3	10357	1759.104002521083	18
3	10363	1759.50832178364	19
3	10367	1760.482773706771	18
3	10375	1762.074149954912	17
3	10381	1762.428274385691	18
3	10383	1762.470909804433	19
3	10388	1763.086079033659	20
3	10389	1763.46565869794	19
3	10408	1766.070538344432	20
3	10414	1767.357733347164	19
3	10417	1767.822890713661	18
3	10438	1769.778080366276	19
3	10445	1771.191275690034	20
3	10452	1771.951394732535	21
3	10464	1773.008856588593	22
3	10488	1776.526656348815	23
3	10505	1778.620786322549	22
3	10514	1779.690254739754	23
3	10515	1780.086226186425	22
3	10524	1781.022992479309	23
3	10525	1781.274836057367	22
3	10540	1782.522707892004	23
3	10550	1783.535560255768	24
3	10557	1784.736154189595	25
3	10577	1787.792085394404	26
3	10631	1796.334590849921	25
3	10635	1796.498481485297	26
3	10641	1797.755999708071	25
3	10644	1798.32010867818	24
3	10653	1799.004891446659	25
3	10654	1799.258825490425	24
3	10658	1799.340086389816	25
3	10662	1799.624583452625	26
3	10667	1800.035451827132	27
3	10669	1800.605179520012	28
3	10670	1800.728476723923	27
3	10678	1802.362297373625	26
3	10681	1803.177281948818	25
3	10685	1803.240722765425	26
3	10686	1804.084923339017	25
3	10689	1804.951513927743	24
3	10692	1805.820830003346	23
3	10696	1805.919695069669	24
3	10697	1806.760910475009	23
3	10700	1807.476200213737	22
3	10703	1808.08189274104	21
3	10707	1808.345782617677	22
3	10709	1808.819485201957	23
3	10710	1809.065848510747	22
3	10714	1809.551998048942	23
3	10715	1809.626521049754	22
3	10719	1810.06167921896	23
3	10721	1810.598166485166	24
3	10722	1810.618367886066	23
3	10726	1810.724854129106	24
3	10727	1811.061886323325	23
3	10731	1811.580143436338	24
3	10732	1811.651303520508	23
3	10735	1812.414163799759	22
3	10739	1812.653038527234	23
3	10740	1812.902416396549	22
3	10743	1813.437563699892	21
3	10747	1813.525744766061	22
3	10749	1814.02531675705	23
3	10751	1814.050358041671	24
3	10753	1814.257161827237	25
3	10754	1814.311099130556	24
3	10758	1814.731472408524	25
3	10759	1814.877413264418	24
3	10763	1815.126502010967	25
3	10765	1815.37655393814	26
3	10766	1815.851651395474	25
3	10769	1816.361411966419	24
3	10773	1816.760873556311	25
3	10774	1816.926808761608	24
3	10778	1817.179561308062	25
3	10779	1817.72265244996	24
3	10782	1818.247640777974	23
3	10785	1818.997155551928	22
3	10788	1819.94406728208	21
3	10792	1820.611211425294	22
3	10793	1820.843253864152	21
3	10796	1821.469212752618	20
3	10800	1821.675921663543	21
3	10802	1822.128806485374	22
3	10804	1822.42460941679	23
3	10805	1822.46200241711	22
3	10809	1822.693704194156	23
3	10811	1823.143384781461	24
3	10812	1823.450354407858	23
3	10815	1823.890317430384	22
3	10818	1824.654251722004	21
3	10822	1824.724165549087	22
3	10824	1824.769385620235	23
3	10825	1825.496419406952	22
3	10828	1825.950864278609	21
3	10832	1826.270559691338	22
3	10833	1826.558901327048	21
3	10837	1827.041927073838	22
3	10838	1827.296519929162	21
3	10842	1827.315005709531	22
3	10843	1828.146298503308	21
3	10846	1828.582725418676	20
3	10849	1829.038916179156	19
3	10853	1829.194395795844	20
3	10854	1829.930482477872	19
3	10858	1830.495813678283	20
3	10859	1830.787107407572	19
3	10863	1831.110749380664	20
3	10864	1831.523888928574	19
3	10867	1831.995626573395	18
3	10870	1832.409131653225	17
3	10874	1832.990997157813	18
3	10875	1833.00562366535	17
3	10878	1833.823777108165	16
3	10881	1834.325019235993	15
3	10885	1834.608104181135	16
3	10887	1834.971858223538	17
3	10888	1835.278181486149	16
3	10892	1835.542783028505	17
3	10893	1835.789545485974	16
3	10896	1836.458331321311	15
3	10899	1836.998713793876	14
3	10902	1837.473440333726	13
3	10906	1837.727663827378	14
3	10907	1838.111816406706	13
3	10910	1838.683626150889	12
3	10914	1839.32368759387	13
3	10915	1839.390982050998	12
3	10918	1840.027532374756	11
3	10921	1840.76119617409	10
3	10925	1840.97322911606	11
3	10926	1841.439532555537	10
3	10929	1841.976648332914	9
3	10933	1842.568496000241	10
3	10934	1842.652527897656	9
3	10937	1843.568368744655	8
3	10941	1843.782733271212	9
3	10943	1844.192659773715	10
3	10944	1844.403567640987	9
3	10947	1845.218929599776	8
3	10951	1845.614457688359	9
3	10952	1845.922947161357	8
3	10955	1846.351402967834	7
3	10958	1846.973278019848	6
3	10962	1846.980112964492	7
3	10964	1847.683486870042	8
3	10965	1847.870019040853	7
3	10969	1848.079486131314	8
3	10971	1848.282254572116	9
3	10972	1848.704530250086	8
3	10976	1848.967445689811	9
3	10978	1849.304931197452	10
3	10980	1849.457669842547	11
3	10982	1849.574160343488	12
3	10983	1849.614288553633	11
3	10987	1849.765524294131	12
3	10988	1850.292297823904	11
3	10991	1851.066816510018	10
3	10995	1851.530097046514	11
3	10997	1851.705350651934	12
3	10998	1851.769978048084	11
3	11002	1852.17898693249	12
3	11004	1852.541924384202	13
3	11005	1852.754995790114	12
3	11008	1853.29078480917	11
3	11012	1853.737832841271	12
3	11014	1854.097446367891	13
3	11015	1854.15052551412	12
3	11019	1854.565950737311	13
3	11020	1855.116447101012	12
3	11024	1855.526794297905	13
3	11025	1855.794610031126	12
3	11028	1856.39213958051	11
3	11032	1856.568543062138	12
3	11034	1856.921882701354	13
3	11035	1857.290946970451	12
3	11039	1858.01119428242	13
3	11041	1858.03623579488	14
3	11043	1858.10041689408	15
3	11044	1858.106730145579	14
3	11048	1858.326091765369	15
3	11050	1858.435198113901	16
3	11052	1858.585184472253	17
3	11054	1858.922298186467	18
3	11055	1859.00575814344	17
3	11064	1859.787335697086	18
3	11066	1860.018112648124	19
3	11067	1860.397505224626	18
3	11075	1860.767805765227	19
3	11080	1861.109608491202	20
3	11087	1862.331462962517	21
3	11096	1863.984938014429	20
3	11100	1864.127190427651	21
3	11107	1864.769210762503	22
3	11108	1865.462030257182	21
3	11122	1866.70886041641	22
3	11146	1869.47648878961	23
3	11150	1870.675684727486	22
3	11158	1872.077512844037	21
3	11164	1872.168449645982	22
3	11171	1872.977577500683	23
3	11176	1873.716484588684	24
3	11187	1875.836357130194	23
3	11196	1876.989083778389	24
3	11197	1877.330801939675	23
3	11206	1878.373151922814	24
3	11207	1879.005354668702	23
3	11215	1880.318182907848	22
3	11223	1881.445771714009	21
3	11227	1881.675672786942	22
3	11229	1881.814437120024	23
3	11230	1882.442443856353	22
3	11238	1883.569989616273	21
3	11242	1884.161824819118	22
3	11243	1884.355933215691	21
3	11247	1884.476401739209	22
3	11248	1885.027342682274	21
3	11251	1885.70112943569	20
3	11254	1886.596527104441	19
3	11257	1887.194876085024	18
3	11261	1887.442322761732	19
3	11262	1887.840169681504	18
3	11265	1888.26098674949	17
3	11269	1888.435579625397	18
3	11271	1888.838701533011	19
3	11272	1889.114656198618	18
3	11276	1889.512901694854	19
3	11278	1889.943843833221	20
3	11279	1890.097683796321	19
3	11282	1890.571641974512	18
3	11286	1890.581171905359	19
3	11288	1890.889317166146	20
3	11290	1890.973861903023	21
3	11292	1891.032022546125	22
3	11293	1891.230413226632	21
3	11297	1891.749450352175	22
3	11298	1891.887292162969	21
3	11302	1891.91500570082	22
3	11303	1892.298982417711	21
3	11307	1892.374161089749	22
3	11308	1892.859037936886	21
3	11311	1893.509076899651	20
3	11315	1893.733026713451	21
3	11317	1894.067456456078	22
3	11318	1894.308097484789	21
3	11322	1894.912866251776	22
3	11324	1894.990937359635	23
3	11326	1895.079664538014	24
3	11327	1895.257796625083	23
3	11330	1895.862066492241	22
3	11334	1896.58496222835	23
3	11335	1896.641966304032	22
3	11343	1898.12107891402	21
3	11347	1898.357255133513	22
3	11353	1899.406879706809	21
3	11359	1899.617812737572	22
3	11368	1900.177056257819	23
3	11376	1901.496547083492	24
3	11380	1901.641755364635	25
3	11382	1901.729668519029	26
3	11396	1904.502339123224	25
3	11404	1906.199942998483	24
3	11410	1906.697259685211	25
3	11415	1907.118291412936	26
3	11417	1907.374999335225	27
3	11418	1907.518573810009	26
3	11427	1908.660118921083	27
3	11428	1909.326763644431	26
3	11431	1909.729077476904	25
3	11439	1911.244461010991	24
3	11445	1911.476775506353	25
3	11450	1912.80308750662	26
3	11451	1912.976318621252	25
3	11455	1913.044850979058	26
3	11456	1913.638292511402	25
3	11460	1913.706557215879	26
3	11461	1914.504034631642	25
3	11464	1915.132325426618	24
3	11468	1916.044671451548	25
3	11469	1916.065749936121	24
3	11473	1916.420204736446	25
3	11475	1916.62739467196	26
3	11476	1916.667187559175	25
3	11479	1917.067300995382	24
3	11482	1917.571838673519	23
3	11486	1917.634556198449	24
3	11488	1917.769290806763	25
3	11490	1917.775891576172	26
3	11491	1918.465860283829	25
3	11494	1919.107678660972	24
3	11498	1919.149849049886	25
3	11499	1920.037667797308	24
3	11502	1920.706357363972	23
3	11505	1921.272561143373	22
3	11509	1921.73999585823	23
3	11510	1921.995676964789	22
3	11514	1922.534133713601	23
3	11515	1922.591059398313	22
3	11519	1923.096288802425	23
3	11521	1923.106034541993	24
3	11522	1923.236585505155	23
3	11526	1923.759603302705	24
3	11528	1923.773861307991	25
3	11529	1924.178952392505	24
3	11532	1924.993530758319	23
3	11536	1925.592430961014	24
3	11537	1925.917577343097	23
3	11541	1926.106032439859	24
3	11542	1926.528192051955	23
3	11545	1927.059122932645	22
3	11548	1927.610687414453	21
3	11552	1928.0681058831	22
3	11554	1928.129345113882	23
3	11556	1928.269919420909	24
3	11557	1928.514119763522	23
3	11561	1928.928566848818	24
3	11562	1929.350943012339	23
3	11566	1929.390284498723	24
3	11568	1929.400825238043	25
3	11569	1930.146813945369	24
3	11573	1930.283629886036	25
3	11575	1930.439078953519	26
3	11576	1930.762653456711	25
3	11582	1931.623175692515	26
3	11587	1931.816181485561	27
3	11588	1932.259097190703	26
3	11599	1933.057089728617	27
3	11608	1934.188729992126	26
3	11617	1935.293526436112	27
3	11618	1936.158330204513	26
3	11621	1936.860257837864	25
3	11624	1937.505478646176	24
3	11628	1937.767773932861	25
3	11629	1937.974468137639	24
3	11633	1938.680646948343	25
3	11634	1938.807386897726	24
3	11637	1939.755783582887	23
3	11640	1940.501201957453	22
3	11644	1940.842909456903	23
3	11645	1941.272863928776	22
3	11649	1941.625656219327	23
3	11650	1941.985056463757	22
3	11653	1942.570163311099	21
3	11657	1942.618133560878	22
3	11658	1943.185719025729	21
3	11661	1943.729666662996	20
3	11664	1944.66815098644	19
3	11668	1944.801552079697	20
3	11670	1945.020956992265	21
3	11671	1945.108761821676	20
3	11674	1945.770586997027	19
3	11677	1946.490304250353	18
3	11680	1946.919185859187	17
3	11683	1947.551287501388	16
3	11686	1948.391490493518	15
3	11690	1948.583212942665	16
3	11692	1948.752472751452	17
3	11693	1949.08197302156	16
3	11696	1949.49292050585	15
3	11700	1949.876063114272	16
3	11701	1949.942732382369	15
3	11704	1950.665677107068	14
3	11707	1951.587566826156	13
3	11711	1952.295894747297	14
3	11712	1952.434301089718	13
3	11716	1952.889952296986	14
3	11718	1952.952969726955	15
3	11719	1952.964560233093	14
3	11723	1953.03709254706	15
3	11724	1953.739139394359	14
3	11727	1954.474308183686	13
3	11731	1955.359538651599	14
3	11732	1955.3887767536	13
3	11736	1955.771743074441	14
3	11737	1955.863888886421	13
3	11740	1956.57714446647	12
3	11749	1957.643487249929	13
3	11751	1957.660724887286	14
3	11753	1958.020792525549	15
3	11754	1958.073733721058	14
3	11760	1958.34331367897	15
3	11762	1958.437986485094	16
3	11764	1958.672229766096	17
3	11769	1959.065486776377	18
3	11775	1960.312443505497	17
3	11779	1960.739870813748	18
3	11780	1961.042819580007	17
3	11783	1961.629905291171	16
3	11787	1961.642098579653	17
3	11788	1962.062523670904	16
3	11791	1962.524745906274	15
3	11794	1963.429478229013	14
3	11798	1963.754254481441	15
3	11799	1964.317812185491	14
3	11803	1964.485239495991	15
3	11805	1964.697454666307	16
3	11807	1964.791915461264	17
3	11808	1964.851403412678	16
3	11811	1965.265316124716	15
3	11815	1965.477847736534	16
3	11817	1965.73882869707	17
3	11818	1966.187021081791	16
3	11822	1966.523918154657	17
3	11823	1966.772238008807	16
3	11826	1967.184138906783	15
3	11830	1967.375048432617	16
3	11831	1968.110938000715	15
3	11835	1968.680165959253	16
3	11836	1968.724939756597	15
3	11839	1969.546909862839	14
3	11842	1970.195011000138	13
3	11848	1970.961505716147	14
3	11853	1971.522699064557	15
3	11854	1971.689745409403	14
3	11858	1972.22526870915	15
3	11865	1972.578866872673	16
3	11867	1972.846318789854	17
3	11868	1973.054688318854	16
3	11871	1973.600253908464	15
3	11875	1973.956145998784	16
3	11876	1974.447285618528	15
3	11882	1974.59877235568	16
3	11886	1975.55242234132	15
3	11892	1976.081863750387	16
3	11896	1977.029503297561	15
3	11900	1977.166142792756	16
3	11901	1978.028526270238	15
3	11907	1978.715301260597	16
3	11912	1978.852741281521	17
3	11913	1979.531635797944	16
3	11917	1979.683637790464	17
3	11919	1979.876075076752	18
3	11921	1980.302506288269	19
3	11922	1980.469643327722	18
3	11928	1980.57032794313	19
3	11932	1981.842333999078	18
3	11940	1983.314526340213	17
3	11944	1983.825331025966	18
3	11945	1984.023184714314	17
3	11948	1984.650668754463	16
3	11952	1984.743220188919	17
3	11954	1985.085761916829	18
3	11955	1985.591977523628	17
3	11958	1986.09977257027	16
3	11962	1986.643086911046	17
3	11963	1986.958468231686	16
3	11967	1987.077354977811	17
3	11969	1987.577114529689	18
3	11970	1987.617246806237	17
3	11974	1987.996337774434	18
3	11975	1988.409747119795	17
3	11979	1988.770509935939	18
3	11980	1988.965034233767	17
3	11984	1989.439666871081	18
3	11985	1989.674373604252	17
3	11988	1990.274903952644	16
3	11992	1990.838844382082	17
3	11993	1991.192901963868	16
3	11996	1992.078601564874	15
3	11999	1992.61192533964	14
3	12002	1993.243899326154	13
3	12006	1993.443011956754	14
3	12007	1993.805275074567	13
3	12010	1994.770341704122	12
3	12014	1994.888342189389	13
3	12016	1994.991050208928	14
3	12017	1995.450674082001	13
3	12021	1995.579949557352	14
3	12023	1996.088188421029	15
3	12024	1996.10554721019	14
3	12027	1996.687667334813	13
3	12030	1997.104347111319	12
3	12034	1997.229060280577	13
3	12036	1997.510129142821	14
3	12038	1997.706834495803	15
3	12040	1997.875318252606	16
3	12042	1997.92156205399	17
3	12043	1998.012751251773	16
3	12047	1998.471696714768	17
3	12049	1998.593723429426	18
3	12051	1998.639878381892	19
3	12052	1998.935191331512	18
3	12056	1999.336766178018	19
3	12057	1999.872962913789	18
3	12060	2000.743446026497	17
3	12063	2001.412113973439	16
3	12066	2001.851105117366	15
3	12069	2002.709264372183	14
3	12078	2003.841270637678	15
3	12079	2004.292582681482	14
3	12088	2005.467206954241	15
3	12089	2005.710951156249	14
3	12098	2006.485641591643	15
3	12099	2006.850175600532	14
3	12105	2007.077059785255	15
3	12107	2007.169283367236	16
3	12112	2007.930318417734	17
3	12113	2008.037186256736	16
3	12116	2008.6639509593	15
3	12119	2009.097867028495	14
3	12122	2009.516392446715	13
3	12125	2010.249490297572	12
3	12129	2010.408373353934	13
3	12130	2011.031312667891	12
3	12133	2011.704732109686	11
3	12137	2012.19186629861	12
3	12139	2012.295750913029	13
3	12140	2012.458504454592	12
3	12144	2012.811733022033	13
3	12146	2012.925405008414	14
3	12148	2013.004118166125	15
3	12149	2013.283100027717	14
3	12153	2013.44110280796	15
3	12154	2014.274091682756	14
3	12158	2014.687812170853	15
3	12159	2015.108480720022	14
3	12168	2016.54726497914	15
3	12169	2016.767063179272	14
3	12178	2017.453686884848	15
3	12179	2017.99613348491	14
3	12187	2019.417995667396	13
3	12191	2019.438982546782	14
3	12198	2019.954461485854	15
3	12199	2020.559050105358	14
3	12207	2022.40256524173	13
3	12216	2023.197986391087	14
3	12217	2023.829002329692	13
3	12226	2024.492603258874	14
3	12227	2025.156580715425	13
3	12241	2026.917138724999	14
3	12242	2027.614847487382	13
3	12257	2028.926951124588	14
3	12273	2031.094546590945	15
3	12454	2054.680968045942	16
3	12466	2056.569311893297	15
3	12469	2057.334737854669	14
3	12472	2057.921339350691	13
3	12476	2058.012616101998	14
3	12483	2059.040247671281	15
3	12494	2059.590734814588	16
3	12511	2062.532968896007	15
3	12514	2063.187856627147	14
3	12518	2063.37784808901	15
3	12519	2063.768344618504	14
3	12523	2064.067287646114	15
3	12524	2064.512753271855	14
3	12527	2065.460610348669	13
3	12531	2065.763362971597	14
3	12533	2065.911567037167	15
3	12534	2066.312224181027	14
3	12538	2066.821080748332	15
3	12539	2067.120260588203	14
3	12543	2067.59544185455	15
3	12544	2067.611909948459	14
3	12548	2068.416224314304	15
3	12549	2068.429275907839	14
3	12552	2069.393591843389	13
3	12556	2069.569497166338	14
3	12558	2069.573097919538	15
3	12559	2069.799354690855	14
3	12563	2070.109566808424	15
3	12564	2070.785375816684	14
3	12568	2071.131258982792	15
3	12569	2071.754659954907	14
3	12573	2072.146388169884	15
3	12574	2072.661064963398	14
3	12577	2073.206381820451	13
3	12580	2073.863251560583	12
3	12583	2074.5118726902	11
3	12586	2074.925022461574	10
3	12589	2075.563518964342	9
3	12593	2075.844336706259	10
3	12600	2076.346390437175	11
3	12601	2076.551768311375	10
3	12607	2076.717183847225	11
3	12609	2076.856183958936	12
3	12614	2077.583798660594	13
3	12616	2077.804897337947	14
3	12617	2078.085185548134	13
3	12625	2079.237506180519	12
3	12634	2080.534261575939	13
3	12635	2081.035284300364	12
3	12639	2081.66004262274	13
3	12640	2081.735746640276	12
3	12649	2083.26128875728	13
3	12650	2083.403631736321	12
3	12653	2084.257334776066	11
3	12656	2085.141573428392	10
3	12659	2085.956419783348	9
3	12662	2086.903358078545	8
3	12665	2087.760689596256	7
3	12669	2088.328811102432	8
3	12670	2088.703209048073	7
3	12673	2089.326955643139	6
3	12677	2090.089389400149	7
3	12678	2090.092467109562	6
3	12682	2090.399524404855	7
3	12683	2090.801860954176	6
3	12689	2091.43973719158	7
3	12691	2091.738185409486	8
3	12696	2091.814561180183	9
3	12698	2092.305833820342	10
3	12699	2092.320252651052	9
3	12702	2093.0432952673	8
3	12708	2093.421018000877	9
3	12710	2093.761345040081	10
3	12715	2094.310618991941	11
3	12716	2094.47807717438	10
3	12725	2095.399758129594	11
3	12727	2095.697163759478	12
3	12728	2095.879674372712	11
3	12732	2096.264719532771	12
3	12738	2097.08125425827	11
3	12742	2097.440368394987	12
3	12749	2098.061779485684	13
3	12750	2098.55801397458	12
3	12756	2098.95516740481	13
3	12761	2099.358671164632	14
3	12763	2099.672531269628	15
3	12764	2100.01451701823	14
3	12768	2100.177559235829	15
3	12769	2100.648074818573	14
3	12772	2101.490153549316	13
3	12776	2101.578546906423	14
3	12778	2101.946605493572	15
3	12779	2102.376990119305	14
3	12783	2102.482412736589	15
3	12785	2102.66088513835	16
3	12792	2103.110026260082	17
3	12793	2103.379440096191	16
3	12797	2103.396312979603	17
3	12803	2105.207602543368	16
3	12807	2105.362914508535	17
3	12813	2106.544430686005	16
3	12816	2107.110460304266	15
3	12825	2108.007253141256	16
3	12834	2108.808821818778	17
3	12839	2109.441300057398	18
3	12840	2109.813523315949	17
3	12849	2110.77684768006	18
3	12850	2111.159699919246	17
3	12859	2112.03023166079	18
3	12860	2112.764468873557	17
3	12869	2113.72917558071	18
3	12871	2113.967227692616	19
3	12872	2114.242184537681	18
3	12881	2115.340853529456	19
3	12882	2115.547980095897	18
3	12890	2116.908782112584	17
3	12904	2118.9408238032	18
3	12906	2119.199546709525	19
3	12907	2119.217056158357	18
3	12915	2120.411245487989	17
3	12918	2121.092046734025	16
3	12924	2121.716635422443	17
3	12928	2122.405203652601	16
3	12934	2122.678046814614	17
3	12939	2123.353101187883	18
3	12940	2124.115752516067	17
3	12944	2124.206765848377	18
3	12945	2124.918895308892	17
3	12948	2125.483938457896	16
3	12952	2126.277192525091	17
3	12953	2126.47252354979	16
3	12957	2127.263795367427	17
3	12958	2127.434398172781	16
3	12962	2127.936120810618	17
3	12963	2128.243477970859	16
3	12966	2128.706498648863	15
3	12969	2129.351125683993	14
3	12972	2129.804418426318	13
3	12976	2129.864272608622	14
3	12978	2130.228223302615	15
3	12979	2130.496297743343	14
3	12983	2130.674247328056	15
3	12984	2131.117600486553	14
3	12987	2131.831526370891	13
3	12990	2132.383462562025	12
3	12994	2132.621107918185	13
3	12995	2133.163267472092	12
3	12999	2133.569666986404	13
3	13000	2133.638808979498	12
3	13011	2135.047696636242	13
3	13018	2136.094914773891	14
3	13033	2138.428816089276	15
3	13034	2138.473387986547	14
3	13043	2139.564805432396	15
3	13044	2140.275736920103	14
3	13053	2141.05947881471	15
3	13055	2141.121933199223	16
3	13056	2141.543022378241	15
3	13062	2141.907585370738	16
3	13067	2142.021740134729	17
3	13069	2142.155585912388	18
3	13071	2142.701047185883	19
3	13072	2143.00078312297	18
3	13075	2143.509850915648	17
3	13083	2145.370789048668	16
3	13087	2145.592173943978	17
3	13093	2146.597523796918	16
3	13097	2147.066449624176	17
3	13098	2147.232034838559	16
3	13101	2148.155562388791	15
3	13105	2148.90800556478	16
3	13106	2148.933894502918	15
3	13109	2149.615135089482	14
3	13112	2150.017680222948	13
3	13115	2150.918965988687	12
3	13124	2152.124323729011	13
3	13126	2152.197205380324	14
3	13127	2152.327959854749	13
3	13135	2153.346471386903	12
3	13143	2154.447498593747	11
3	13147	2154.476233093501	12
3	13148	2155.372639565903	11
3	13152	2155.440860486988	12
3	13154	2155.828599084267	13
3	13155	2155.917697123752	12
3	13159	2156.526901022635	13
3	13160	2156.842593649996	12
3	13164	2157.116049401726	13
3	13165	2157.403242047725	12
3	13168	2158.170503702748	11
3	13171	2158.684235041065	10
3	13174	2159.417456833448	9
3	13178	2159.650223644684	10
3	13180	2159.836579355692	11
3	13181	2159.876335846714	10
3	13185	2159.886701235915	11
3	13187	2160.079728557229	12
3	13189	2160.097006229528	13
3	13191	2160.632337467338	14
3	13192	2160.663529135228	13
3	13195	2161.645874342217	12
3	13199	2162.087608999094	13
3	13200	2162.173836600489	12
3	13204	2162.427725596459	13
3	13205	2162.845760574273	12
3	13208	2163.500910448457	11
3	13212	2163.698377570778	12
3	13213	2164.156276631203	11
3	13217	2164.444029148245	12
3	13218	2164.606182324687	11
3	13221	2165.015961227227	10
3	13225	2165.056566641795	11
3	13226	2165.429438079601	10
3	13230	2165.709552822178	11
3	13232	2165.832376242406	12
3	13233	2166.067837074851	11
3	13236	2166.949375144192	10
3	13239	2167.450590593261	9
3	13243	2167.45620443756	10
3	13245	2167.48690617053	11
3	13247	2167.762644891362	12
3	13248	2168.357014004221	11
3	13251	2169.170746608065	10
3	13255	2169.798816431346	11
3	13256	2170.108620099617	10
3	13259	2170.748660940943	9
3	13262	2171.306140653217	8
3	13266	2171.323594220153	9
3	13268	2171.511854387948	10
3	13269	2171.941122549666	9
3	13272	2172.914619054818	8
3	13276	2172.990666795831	9
3	13278	2173.574617301587	10
3	13280	2173.640855753624	11
3	13282	2173.680460635718	12
3	13283	2173.717253860585	11
3	13286	2174.588802697496	10
3	13289	2175.554368150174	9
3	13292	2176.148305847296	8
3	13296	2176.500258214399	9
3	13298	2176.913689691162	10
3	13300	2176.956104381795	11
3	13302	2176.995630583521	12
3	13303	2177.069551786487	11
3	13306	2177.489929806194	10
3	13310	2177.979251356463	11
3	13312	2178.031531622893	12
3	13313	2178.156083965613	11
3	13316	2179.102716820766	10
3	13319	2179.634032613537	9
3	13323	2179.773198158957	10
3	13324	2180.339420470162	9
3	13328	2180.490683640335	10
3	13329	2181.237266715369	9
3	13332	2181.842223108313	8
3	13335	2182.420997759453	7
3	13339	2182.702864918942	8
3	13341	2182.708879930886	9
3	13342	2182.962301014396	8
3	13345	2183.655861397399	7
3	13349	2184.077463438982	8
3	13350	2184.243465580125	7
3	13354	2184.562565414459	8
3	13355	2184.859698179955	7
3	13359	2185.024742035202	8
3	13360	2185.500751061071	7
3	13364	2186.377293015984	8
3	13365	2186.412708310815	7
3	13369	2186.95909773659	8
3	13370	2187.074281003964	7
3	13374	2187.254891228731	8
3	13375	2187.824599999874	7
3	13379	2188.412020262519	8
3	13380	2188.725922159697	7
3	13386	2189.507125834898	8
3	13390	2190.072154492592	7
3	13394	2190.474708752401	8
3	13395	2190.698963321406	7
3	13406	2191.749894604434	8
3	13413	2192.984463762876	9
3	13422	2194.646044430914	8
3	13431	2195.535145793873	9
3	13432	2195.830274161217	8
3	13441	2196.837088031871	9
3	13442	2197.003432227378	8
3	13453	2198.459456803679	9
3	13462	2200.058739302481	8
3	13466	2200.148003898401	9
3	13470	2200.322472437195	10
3	13475	2200.778352530368	11
3	13476	2201.594629535672	10
3	13485	2202.828993189346	11
3	13486	2203.036364291503	10
3	13494	2203.971983304328	9
3	13502	2205.179160538908	8
3	13505	2205.670861608662	7
3	13509	2205.765921189778	8
3	13511	2205.994915158738	9
3	13513	2206.357061638638	10
3	13514	2206.55029056206	9
3	13518	2206.68641823777	10
3	13519	2207.136841604334	9
3	13523	2207.325606590749	10
[...]
6	172787	26807.130251825428	25.383754423007
6	172894	26822.710167941512	15.456412777301
6	172927	26827.475601615678	43.112404453843
6	172930	26828.036784447604	60.664441079294
6	172942	26829.88020554014	23.220515209826
6	172982	26837.493952665372	35.217950967629
6	173007	26843.18451485493	27.163984100692
6	173120	26858.468899232977	22.733607798204
6	173156	26863.474157530107	110.88761423378
6	173191	26868.081476469234	49.552898651999
6	173254	26878.024154459441	71.722096324465
6	173401	26899.391505399084	128.67530522428
6	173439	26905.49667375625	29.395517683361
6	173467	26910.11482835727	13.603441652038
6	173477	26911.112092486008	3.614876630868
6	173495	26914.403991443018	0.611186128063
6	173651	26937.842307283791	16.569749437994
6	173669	26940.283129006267	25.171642631539
6	173710	26950.601307008216	19.037554677146
6	173737	26960.68857481496	7.148436351426
6	173811	26974.502239676907	14.260208510209
6	173857	26982.682123076748	0.816722598585
6	173887	26988.351257569884	28.693971442902
6	173900	26992.378008180872	18.274496066878
6	173984	27005.470671263384	1.759686213697
6	174003	27007.531062571426	2.023163457188
6	174034	27012.177995154682	15.921641246247
6	174047	27014.461819444132	18.759248730142
6	174052	27014.92060686946	7.583080750981
6	174089	27020.692709160942	4.087696541974
6	174099	27021.532108122596	28.466375637808
6	174232	27042.528544526698	0.861548051983
6	174240	27043.940918623459	22.500399536828
6	174272	27058.780387281216	0.95405544783
6	174275	27059.25628373526	7.500458371966
6	174349	27072.252292020583	11.731403476695
6	174402	27080.836884514427	3.849771845441
6	174415	27083.297306590629	22.577728445724
6	174455	27091.931742293039	6.833913301764
6	174585	27116.994318450624	15.820271398062
6	174595	27120.436207323338	21.311166026637
6	174602	27121.924975774725	34.133848655665
6	174635	27129.369814534884	6.035454098062
6	174660	27134.326030435741	4.601216057097
6	174695	27141.394208722195	3.721466183129
6	174710	27149.037909244964	1.770910746278
6	174896	27178.879515357414	3.957581667552
6	174915	27180.79464469059	18.731159217563
6	174935	27182.894861419877	32.442740943938
6	174941	27184.533101535594	24.696427981632
6	174961	27187.721487925999	1.867305186023
6	174973	27189.369535787502	18.309795718677
6	175014	27196.649549446912	27.201337409823
6	175059	27201.121170441952	10.483972493609
6	175067	27202.543847183656	54.816102014094
6	175076	27204.631824720983	4.903666389636
6	175089	27206.753423672734	19.240109817607
6	175094	27207.61940773591	20.290691163532
6	175100	27209.045775087975	19.596872468319
6	175125	27214.449817513096	14.04392881968
6	175185	27239.54521005664	4.170951674919
6	175229	27248.865173498851	1.562400156294
6	175249	27251.173520656426	3.445360534653
6	175316	27261.049407033515	30.888081936598
6	175342	27266.679440826897	5.678504358597
6	175430	27284.632806184725	23.602354377909
6	175447	27287.380384288145	10.759966675237
6	175450	27287.880923350736	11.159228422583
6	175462	27291.346524231114	1.865356301697
6	175480	27296.298876519836	3.386836785048
6	175535	27307.115699768769	7.780882546495
6	175660	27327.155611931274	5.296679829439
6	175769	27344.542766788533	13.351841288596
6	175782	27346.578653929127	14.239632309578
6	175867	27361.47429398895	1.620432674523
6	175877	27363.234446564231	53.766153669744
6	175887	27366.239395999218	17.13687785805
6	175894	27366.948366494159	68.830061742822
6	175912	27369.849679581922	3.151725312672
6	175952	27377.180265365796	5.149411065053
6	175977	27381.624656918229	5.09949455944
6	176035	27394.165168095256	0.486787369009
6	176045	27395.950558108458	5.600426711665
6	176057	27398.528861675902	1.00261585833
6	176119	27409.186363354783	11.958674098379
6	176195	27419.757908191709	13.046196150965
6	176281	27432.995909168422	32.271168908279
6	176332	27442.257858271379	50.795367892848
6	176342	27443.215224463906	3.540203974588
6	176556	27473.161968754185	55.588670091449
6	176633	27484.24278182555	33.23427033404
6	176651	27486.866734971619	3.687544930397
6	176749	27500.540792721046	54.856881531774
6	176957	27528.19893562198	12.991771429616
6	176967	27529.758713424255	9.791388178779
6	177130	27551.001365607097	25.898315215812
6	177188	27558.624118957767	21.360277876921
6	177198	27559.975920381216	30.294163739049
6	177278	27570.93895447753	94.187142044868
6	177364	27583.131046697924	31.84764845355
6	177391	27586.485347667577	56.371452878334
6	177416	27590.621173167562	21.938305877458
6	177432	27593.00156059033	34.334234716321
6	177445	27594.598903495778	70.039209795161
6	177458	27596.927632319654	24.528932748641
6	177465	27597.718607913476	71.380336965879
6	177507	27603.749011805054	60.922776285161
6	177592	27615.270274422697	82.214899549507
6	177598	27616.588847500512	32.637005690217
6	177648	27623.823241800403	22.671382091087
6	177661	27626.210829731642	40.25094974262
6	177695	27631.185229989798	44.292288273684
6	177702	27631.969843221421	4.743128398747
6	177774	27642.999401272878	25.582884618808
6	177817	27648.495304405827	4.379028970182
6	177827	27649.729738476404	47.302858794781
6	177845	27653.283965224109	18.633112748904
6	177900	27669.300249816489	14.356814794401
6	178079	27700.360144932568	7.377436081858
6	178100	27704.421407634858	21.990810275694
6	178105	27705.34709145429	0.467991766008
6	178127	27709.304027736467	0.74371042992
6	178206	27723.683903232992	41.075202658267
6	178216	27725.392007854844	4.444799135073
6	178252	27731.668202880241	8.181356152271
6	178265	27735.247047423544	10.435335601443
6	178290	27746.376495134462	3.537730318421
6	178410	27763.914065471643	22.642285015432
6	178473	27771.922729467952	27.609186373134
6	178496	27776.008581461784	2.008330277747
6	178544	27783.021503500642	7.914685579565
6	178576	27787.313946270199	22.996067192815
6	178610	27795.056835113253	14.118912134753
6	178627	27796.795221598806	3.401431526982
6	178632	27797.495943528913	34.588579433522
6	178657	27801.140968924084	2.653749617564
6	178704	27808.30099904915	44.902061146611
6	178791	27826.085996109179	4.082228136668
6	178809	27828.69827156861	9.506329777226
6	178834	27832.857543448385	8.822308137804
6	179022	27856.079963713954	23.80671924336
6	179176	27876.209725507979	42.647794774506
6	179207	27880.815853487353	43.74499383499
6	179267	27888.948396784931	42.817710674916
6	179346	27898.421745557596	18.427982094518
6	179371	27902.39995222164	68.422586984711
6	179435	27911.323353675499	14.778362186984
6	179531	27924.361074812549	37.95666241698
6	179548	27926.52977213741	19.112381751121
6	179626	27938.098865216763	10.595454674917
6	179663	27943.104836833036	9.574700697247
6	179681	27945.609502871731	44.984525359426
6	179700	27949.320661679121	41.561410100283
6	179714	27951.506805018406	28.397172085753
6	179732	27954.075821171307	42.495760585342
6	179755	27958.42022548968	57.925606254533
6	179782	27961.680852788431	95.250620565259
6	179839	27972.000163023893	120.7120157883
6	179879	27977.876124149938	8.794090861603
6	179882	27978.295144668319	7.308909580295
6	179889	27979.219470718461	3.79106912726
6	179897	27980.802070294371	142.63002520291
6	179902	27981.684720679982	1.301924458924
6	179912	27984.499605788679	0.686656503426
6	180098	28012.607533782264	24.283448362928
6	180161	28022.379148544732	30.775865037175
6	180174	28023.85436974311	45.527284196224
6	180237	28032.356792553344	25.936795969547
6	180262	28037.964994384282	1.365287542473
6	180267	28038.686413528285	1.054318103895
6	180272	28039.633295964663	1.058713537536
6	180290	28045.027632811731	5.755653348517
6	180342	28062.147987707693	8.017919839174
6	180509	28086.866365551132	18.494744985118
6	180618	28106.928490595192	0.725519793574
6	180633	28109.081153921269	2.393600406329
6	180654	28112.538048852093	2.78657883366
6	180702	28118.623132039837	11.518171601615
6	180834	28138.961959541679	23.393005913381
6	180837	28139.641307338603	49.091357325451
6	180867	28145.728995477027	42.332351945591
6	180898	28149.320849155672	1.446416675303
6	180901	28150.214130120343	66.220727450452
6	180908	28150.843305903897	24.71860377705
6	180911	28151.419015534306	3.402640064315
6	180914	28152.040007541366	9.186421275339
6	181007	28165.476696817055	46.955470338844
6	181017	28167.226754730651	5.267038315084
6	181025	28170.005050946563	19.550899377952
6	181030	28180.688244699606	0.565319620911
6	181190	28214.745711526235	17.415309513657
6	181199	28215.603945245971	17.426369188232
6	181210	28217.715077796816	11.198828126228
6	181316	28236.508386780104	11.183330282475
6	181336	28239.239044806005	3.033413822081
6	181359	28242.417718702244	6.989815628719
6	181385	28248.823811367574	30.020235795655
6	181432	28255.048808308903	2.987926324789
6	181435	28255.70637069417	48.078982837831
6	181482	28265.600833478286	4.046339426093
6	181504	28268.412657796602	10.539604356749
6	181826	28311.49005117329	35.6648210036
6	181875	28319.335731441168	5.316494958904
6	181882	28320.185442364834	37.650522346287
6	181896	28323.485908504635	23.215523775939
6	182057	28344.248428550377	24.607333280707
6	182090	28350.115590770185	58.811090861052
6	182182	28364.269008978704	75.501830375403
6	182187	28365.098150314964	93.777533887864
6	182259	28375.801982581026	42.442670779737
6	182277	28378.478226948778	34.791500022416
6	182287	28379.74717687058	44.883579491196
6	182469	28404.28278995032	13.422929728437
6	182512	28411.23904679638	82.827063506306
6	182559	28417.882618128896	26.109692752858
6	182580	28420.587793464462	21.212270707019
6	182588	28421.695881218572	6.152144667803
6	182610	28425.26463552049	16.008591670609
6	182627	28426.911215652308	39.540994414525
6	182678	28433.675326754494	66.572974004841
6	182691	28436.054116835786	55.951008522226
6	182719	28440.669870538047	25.309825671714
6	182768	28446.923203800681	82.301032970515
6	182786	28449.358140328961	70.153193887977
6	182841	28457.463044276011	68.542696620057
6	182888	28464.081216122784	7.221938508188
6	182891	28464.873308950119	82.254139878555
6	182985	28481.794046405037	14.303497031273
6	183081	28491.707415360125	50.981075571775
6	183094	28493.758150403487	32.808772570626
6	183119	28497.44528491074	10.746852267487
6	183184	28506.27920311676	33.457228467427
6	183187	28507.044749623729	103.31917195679
6	183194	28507.478412591718	33.297948304297
6	183199	28508.254543703846	203.09274808167
6	183202	28508.680145910387	32.647556115945
6	183219	28510.644407110387	53.006668680297
6	183287	28521.375570696549	68.860914696885
6	183303	28524.378951385434	28.873157500721
6	183325	28528.705284177003	150.67497330912
6	183344	28531.190895347145	42.463948854302
6	183379	28538.712149158829	13.731729622434
6	183382	28539.563481228204	19.291742209998
6	183431	28548.04483191999	18.539110549494
6	183460	28552.992552035224	5.004497781698
6	183477	28556.723572496105	6.357444025039
6	183500	28560.859729377451	4.314732082378
6	183510	28562.588184717195	8.73417483389
6	183576	28571.077974803075	5.186435059638
6	183735	28593.500731314004	9.512983091346
6	183857	28610.647968516436	41.12859588247
6	183885	28615.174441803742	48.851406952799
6	183895	28616.647243060528	25.22327775868
6	183938	28623.597605830647	42.703646465636
6	183982	28628.668030864541	183.56338430031
6	184018	28634.650229733186	8.110602794799
6	184035	28636.989210520247	14.067265349188
6	184041	28638.228567272639	60.18557074222
6	184056	28639.9979195352	108.36665726563
6	184070	28642.041606018907	26.306698686613
6	184115	28649.709488819629	38.866835394955
6	184142	28654.827583416493	7.409603165647
6	184155	28657.924797257579	15.156679639597
6	184205	28667.331179728809	6.561903033059
6	184237	28678.898412138374	0.494664883753
6	184309	28691.430840973476	3.1279376682
6	184325	28693.932363780714	6.540045807171
6	184406	28707.949859683466	6.37288565752
6	184435	28714.128775413816	42.196741562877
6	184445	28716.958198568351	14.724332806736
6	184480	28727.975425850854	21.009145935797
6	184500	28734.565246401042	2.255835075639
6	184550	28762.395515271421	3.147751445119
6	184555	28763.07535961331	0.418559031887
6	184580	28792.792287408525	11.259116658675
6	184639	28817.062206335636	1.746429594749
6	184667	28821.385266835991	4.393947839829
6	184695	28827.120069437169	14.754463351542
6	184731	28832.391745236878	19.520773693091
6	184744	28834.153081022798	3.894967052015
6	184805	28842.041353662162	31.628621507882
6	184843	28847.026251846261	5.500418784233
6	184983	28866.939956027724	26.704532746489
6	185016	28872.607284213452	32.315986291934
6	185023	28873.246528281261	1.982148047699
6	185029	28874.948035389082	30.1043097633
6	185074	28881.766343825526	1.882482987374
6	185230	28902.577036430391	13.656143490594
6	185239	28904.545815959416	75.240797407637
6	185251	28905.950968435715	19.522261481559
6	185398	28926.311696513167	26.816781629118
6	185420	28929.072767518957	11.306443792605
6	185472	28935.966599188219	21.626590455948
6	185563	28947.633692656163	74.721178289801
6	185616	28955.42336685251	56.684020593018
6	185624	28956.676610808154	14.187730274002
6	185693	28966.536149361156	42.366631147401
6	185773	28977.505388023689	68.670249424604
6	185805	28981.271530626932	12.193509048195
6	185851	28988.669969481308	137.41306582127
6	185860	28990.73066968176	112.24716787213
6	185871	28993.013116524448	57.495582801414
6	185909	28998.020854506489	53.584939103466
6	185912	28998.981050459329	35.585960501588
6	185915	28999.615855357923	21.0990012574
6	185979	29006.03342867674	67.831675971649
6	186021	29011.769807230436	14.616707509412
6	186035	29012.977590605138	40.500799910167
6	186074	29018.788194476381	16.288548757598
6	186084	29020.141894757548	73.639462738798
6	186087	29020.827016756484	54.794285494692
6	186196	29036.258196318603	23.90426413781
6	186266	29044.166360442515	27.890219635697
6	186287	29048.059540458291	13.253912150836
6	186298	29050.486846253124	31.551002527258
6	186308	29052.225549853907	84.418742483109
6	186316	29053.348093447403	11.83315550542
6	186348	29058.191473414784	14.834659694383
6	186356	29059.59294608807	184.2616744555
6	186395	29065.452501375402	29.19538880889
6	186462	29074.896118635021	187.75960960872
6	186474	29076.098080818623	114.28844851559
6	186482	29077.284698693396	27.17777081513
6	186487	29078.142501569528	11.479151140788
6	186671	29103.136217743521	41.568274421037
6	186676	29103.872719663791	198.17544163186
6	186684	29105.174669391373	9.199153388624
6	186692	29106.406071988112	27.041055757324
6	186733	29113.685014088816	71.211158213049
6	186738	29114.489039444077	106.28544957206
6	186802	29124.223241841971	3.832723520773
6	186887	29134.498023068429	35.365195552825
6	187038	29153.731368502175	11.407858488008
6	187052	29156.160831679816	172.29117726836
6	187059	29156.860763335873	54.307668515629
6	187079	29159.966241204499	124.54004344061
6	187111	29164.615325352495	41.690061425125
6	187116	29165.149814126446	41.970947076112
6	187137	29168.686542986046	51.64495311795
6	187155	29171.175030515103	34.584638037472
6	187203	29177.017939525928	12.338817339977
6	187248	29184.14022911167	60.418287293455
6	187257	29186.702756378374	29.703927705502
6	187307	29194.264032376458	11.782889544634
6	187315	29195.592721579776	26.746296050729
6	187351	29201.453653310744	160.16234018255
6	187354	29202.299930227354	36.681901472562
6	187379	29205.376257730732	60.388330905591
6	187387	29206.69223600043	58.523973392617
6	187438	29213.097264341674	216.68851625401
6	187485	29218.999153783534	119.52471524804
6	187499	29220.676311596752	54.284030822901
6	187516	29223.830669131726	66.216415711795
6	187541	29226.926946678469	15.247835506159
6	187584	29233.202418695939	9.176625406996
6	187686	29244.914266330973	14.622937897192
6	187723	29251.842725711493	20.307670048881
6	187740	29254.129721221644	17.610072847813
6	187765	29257.424091548836	3.373015670644
6	187808	29263.285659210142	3.180235667655
6	187815	29264.059229557533	198.41662169187
6	187905	29275.94251685854	77.715199244882
6	187908	29276.642227657455	22.837490342571
6	187921	29278.293338340231	38.38062769953
6	187926	29279.028166561796	46.010807139469
6	188091	29303.397956250781	8.92307315723
6	188122	29308.024721018211	266.42414720242
6	188139	29310.156089628101	58.263438046567
6	188179	29316.296091114995	22.10627742159
6	188328	29337.050836415899	31.131011081979
6	188346	29339.841517385079	4.308578797446
6	188562	29369.762076105864	7.3189577411
6	188570	29371.102007031103	7.387054998914
6	188652	29381.698384742195	50.171324542194
6	188728	29392.721160370312	26.595352282937
6	188804	29404.025918296364	32.314331621926
6	188842	29408.290546321648	6.856083302763
6	188873	29413.059259846399	77.414687100432
6	188935	29421.978660575265	44.800806734289
6	188983	29428.647354644827	28.663021043793
6	188996	29431.12823685255	47.916264892325
6	189014	29434.301083416875	27.714325004069
6	189019	29434.915949002198	12.082763352538
6	189047	29439.16198168725	12.910802910704
6	189074	29443.192799482841	102.68382686035
6	189092	29446.051336208658	9.227845761745
6	189099	29447.046538936879	9.234794974979
6	189205	29469.620819314561	3.417784348894
6	189340	29492.89468511715	5.749038230116
6	189459	29507.604909821736	16.761973822117
6	189529	29517.352037586921	36.683777809655
6	189532	29518.131088321001	16.588628270665
6	189558	29522.877961679777	30.421732639484
6	189572	29525.159913067982	21.76223738501
6	189577	29525.987601902426	28.797957275349
6	189605	29529.607054941401	39.466235169324
6	189621	29531.583132297956	17.8147846161
6	189637	29534.029180525561	3.4600101965
6	189655	29538.680504316546	39.066437924661
6	189667	29542.807575492023	11.401343992085
6	189685	29548.335169163276	13.125297415412
6	189705	29552.799040035261	5.933866198758
6	189710	29554.205780939915	0.549906306947
6	189752	29573.630882074005	1.666274781964
6	189769	29575.256577732666	0.835129371318
6	189781	29576.681967587602	2.068575485079
6	189836	29584.571464891711	22.354738919783
6	189928	29596.657248072896	7.11059131483
6	189931	29597.46605084181	4.209735339516
6	189934	29598.03574702806	24.296132824933
6	189955	29601.89980270455	24.056332468209
6	189972	29603.576172333672	1.061251143934
6	189992	29608.05751431284	40.201117834701
6	190044	29617.763174415355	11.364017986272
6	190047	29618.187437316145	0.931587599888
6	190052	29619.010463521372	5.935670713261
6	190055	29619.624424595128	0.630037887762
6	190074	29625.270707136846	1.35243705376
6	190098	29627.824130029731	5.514043946525
6	190158	29635.935257152456	7.73875491861
6	190196	29641.692815928009	6.349546348482
6	190243	29648.556363633077	19.246174820789
6	190251	29649.860579487111	25.001809725246
6	190257	29651.411939509015	26.317562358244
6	190537	29691.054787734346	16.176165318292
6	190578	29696.999508639946	19.363877880631
6	190598	29699.755268000448	5.312885344338
6	190621	29703.869620331712	61.243603184516
6	190629	29705.108838539067	6.172674961834
6	190674	29712.534788353223	2.554731224114
6	190732	29720.509857752612	35.165958835583
6	190747	29722.85384084342	48.743075310474
6	190799	29729.348685796018	1.29837109297
6	190839	29735.271024662441	9.644163307655
6	190847	29736.742616429737	3.041466748734
6	190899	29744.175251419679	1.854982272579
6	190949	29751.665562958019	11.74536467013
6	190980	29758.87907865231	3.43963752879
6	191019	29764.408364190187	18.409822460107
6	191044	29768.423927041309	4.72665051135
6	191081	29774.039027120785	24.024426768938
6	191089	29775.141563228059	9.966342147611
6	191208	29791.742071318866	20.868068734031
6	191244	29796.396234482115	21.330283186439
6	191249	29797.12918726011	20.723161544618
6	191257	29798.479362800818	8.948569378105
6	191260	29799.136156666985	6.680524539106
6	191285	29822.550142592043	0.872723647952
6	191392	29868.09715873787	5.607809536844
6	191424	29880.372099797786	0.801908839215
6	191429	29881.34270169077	3.994721648834
6	191557	29900.533703249633	20.485928400645
6	191572	29903.380185445058	22.478955652282
6	191592	29908.105238100972	0.704022531533
6	191657	29918.262489833898	10.275595924995
6	191682	29921.782667660091	4.400386999235
6	191747	29934.452931880358	5.412228129633
6	191822	29953.666432656306	25.287773064514
6	191827	29954.639904561131	1.427804395998
6	191870	29963.167557168221	2.526455027316

