version 2
run First_exit_8-12-20191114-11:42:31-8894
attr configname First_exit_8
attr datetime 20191114-11:42:31
attr experiment First_exit_8
attr inifile omnetpp.ini
attr iterationvars ""
attr iterationvarsf ""
attr measurement ""
attr network ResponseTimeNetwork
attr processid 8894
attr repetition 12
attr replication #12
attr resultdir results
attr runnumber 12
attr seedset 12
param **.Source.interArrivalTime exponential(4s)
param **.jobPriority bernoulli(0.4)
param **.PS.serviceTimeU1 "uniform(0.4s, 1.0s)"
param **.PS.serviceTimeU2 "uniform(1s, 1.2s)"
param **.SS1.serviceTime exponential(0.4s)
param **.SS2.serviceTime exponential(0.8s)
param **.PS.exitProbability bernoulli(0.8)

vector 0 ResponseTimeNetwork.QueueU1 queueLength:vector ETV
attr interpolationmode sample-hold
attr title "queue length, vector"
vector 1 ResponseTimeNetwork.sink lifeTimeU1:vector ETV
attr interpolationmode none
attr title "lifetime of arrived jobs U1, vector"
attr unit s
vector 2 ResponseTimeNetwork.sink totalServiceTimeU1:vector ETV
attr interpolationmode none
attr title "the total time spent  by arrived jobs U1, vector"
attr unit s
vector 3 ResponseTimeNetwork.sink lifeTime:vector ETV
attr interpolationmode none
attr title "lifetime of arrived jobs, vector"
attr unit s
vector 4 ResponseTimeNetwork.sink totalServiceTime:vector ETV
attr interpolationmode none
attr title "the total time spent  by arrived jobs, vector"
attr unit s
vector 5 ResponseTimeNetwork.QueueU2 queueLength:vector ETV
attr interpolationmode sample-hold
attr title "queue length, vector"
vector 6 ResponseTimeNetwork.SS2 queueLength:vector ETV
attr interpolationmode sample-hold
attr title "queue length, vector"
vector 7 ResponseTimeNetwork.sink lifeTimeU2:vector ETV
attr interpolationmode none
attr title "lifetime of arrived jobs U2, vector"
attr unit s
vector 8 ResponseTimeNetwork.sink totalServiceTimeU2:vector ETV
attr interpolationmode none
attr title "the total time spent  by arrived jobs U2, vector"
attr unit s
vector 9 ResponseTimeNetwork.SS1 queueLength:vector ETV
attr interpolationmode sample-hold
attr title "queue length, vector"
0	60855	10008.260330812675	1
0	60856	10008.561717811503	0
0	60935	10030.075277350501	1
0	60936	10030.360775114334	0
0	60945	10031.36658848881	1
0	60946	10031.384481542203	0
0	60990	10039.984281498808	1
0	60991	10040.777437933348	0
0	61000	10041.782285287019	1
0	61001	10042.55805790904	0
0	61010	10043.780358078743	1
0	61011	10043.806997738686	0
0	61025	10045.729611658395	1
0	61026	10046.280066695274	0
0	61040	10048.100194821592	1
0	61042	10048.170297756392	2
0	61043	10048.544482386843	1
0	61050	10049.338112931731	0
0	61057	10049.948381776313	1
0	61058	10050.528281737478	0
0	61090	10054.705385541668	1
0	61094	10055.117171899776	2
0	61095	10055.130228731553	1
0	61100	10055.864238782278	0
0	61107	10056.67330084836	1
0	61109	10056.741211728985	2
0	61110	10056.851601886521	1
0	61113	10057.520754641066	0
0	61122	10058.528370690158	1
0	61124	10058.572581169077	2
0	61125	10059.103550288132	1
0	61132	10059.91076670364	0
0	61139	10060.692148653303	1
0	61140	10061.419857520708	0
0	61195	10071.642625380116	1
0	61198	10072.345910513156	0
0	61315	10098.231801102292	1
0	61316	10098.415341946232	0
0	61325	10099.20430844616	1
0	61326	10099.77913128634	0
0	61392	10110.303888179124	1
0	61393	10110.377031408344	0
0	61402	10111.465290388689	1
0	61405	10112.243337431597	0
0	61414	10113.58737225268	1
0	61415	10114.00162683134	0
0	61424	10115.007126668615	1
0	61425	10115.288932032697	0
0	61437	10117.514482028125	1
0	61438	10117.786515109007	0
0	61447	10119.049443927319	1
0	61448	10119.297305188327	0
0	61457	10120.415872896098	1
0	61458	10121.064677900913	0
0	61469	10122.141439669904	1
0	61470	10122.321463696518	0
0	61474	10122.333733725113	1
0	61476	10122.660211311531	2
0	61477	10122.842327815945	1
0	61480	10123.33946442739	0
0	61484	10123.641205163578	1
0	61486	10123.888903594498	2
0	61487	10123.974734039091	1
0	61491	10124.110793658677	2
0	61494	10124.766244345529	1
0	61497	10125.426723535869	0
0	61501	10125.925451410167	1
0	61503	10125.975162552616	2
0	61505	10126.05907499654	3
0	61506	10126.204412820887	2
0	61510	10126.276184085457	3
0	61511	10127.001530209415	2
0	61515	10127.237255550756	3
0	61516	10127.63613074282	2
0	61520	10127.639614315154	3
0	61521	10128.244288456019	2
0	61525	10128.405473001369	3
0	61527	10128.537457725258	4
0	61528	10129.094645970732	3
0	61532	10129.28361286084	4
0	61535	10130.042207275189	3
0	61538	10130.784651718659	2
0	61542	10130.788038428267	3
0	61543	10131.631325957037	2
0	61547	10132.192571086973	3
0	61548	10132.216685455197	2
0	61552	10132.402071019146	3
0	61553	10132.711367121756	2
0	61557	10133.136287591648	3
0	61558	10133.66477463492	2
0	61562	10133.793657037701	3
0	61563	10134.635897048561	2
0	61567	10134.646415900649	3
0	61568	10135.623841030475	2
0	61572	10135.997896887589	3
0	61573	10136.588791377608	2
0	61577	10137.202355529265	3
0	61578	10137.443436850047	2
0	61581	10138.105423629189	1
0	61585	10138.211594266295	2
0	61587	10138.456318016103	3
0	61588	10138.684685051952	2
0	61591	10139.545782300596	1
0	61595	10139.99620730245	2
0	61597	10140.145706807634	3
0	61598	10140.42884881515	2
0	61602	10140.731197846128	3
0	61607	10141.36869219169	2
0	61613	10141.954545669054	3
0	61614	10142.184095863998	2
0	61618	10142.300732622239	3
0	61619	10142.735855403449	2
0	61623	10143.297564573771	3
0	61624	10143.574546015123	2
0	61628	10144.124467223569	3
0	61629	10144.171310570836	2
0	61633	10144.819099505509	3
0	61634	10145.094743506703	2
0	61639	10145.746089888084	1
0	61643	10146.192636956482	2
0	61644	10146.622578426822	1
0	61648	10146.675930221552	2
0	61649	10147.327966432785	1
0	61652	10148.050927718449	0
0	61656	10148.42078859235	1
0	61657	10148.533790006069	0
0	61661	10148.645639348115	1
0	61662	10149.278624336188	0
0	61672	10151.01289159619	1
0	61674	10151.278858631722	2
0	61675	10151.425202666968	1
0	61680	10152.07038653777	0
0	61684	10152.440251382685	1
0	61685	10152.627981406776	0
0	61689	10152.643056651829	1
0	61690	10153.580908660916	0
0	61700	10155.672034234649	1
0	61703	10156.217480022133	0
0	61715	10157.504935622124	1
0	61718	10157.801017067347	0
0	61729	10158.767489781622	1
0	61730	10158.985127600839	0
0	61734	10159.226994755021	1
0	61735	10159.908434081168	0
0	61739	10160.34758715008	1
0	61740	10160.411010004764	0
0	61757	10162.497315735149	1
0	61758	10162.987681620426	0
0	61768	10164.069428542666	1
0	61771	10164.74667321001	0
0	61778	10166.296178822944	1
0	61779	10166.5507942053	0
0	61895	10185.171603842153	1
0	61899	10185.36533789058	2
0	61902	10185.551137600246	1
0	61905	10185.994151304721	0
0	61955	10205.564939650981	1
0	61956	10206.002091382631	0
0	61965	10206.9272913075	1
0	61966	10207.891392787314	0
0	61982	10209.880578172974	1
0	61983	10210.169533539425	0
0	61990	10210.995221143036	1
0	61992	10211.179383553397	2
0	61995	10211.539831072373	1
0	61998	10212.353897688772	0
0	62002	10212.382814070561	1
0	62003	10213.215386521212	0
0	62010	10214.055717988608	1
0	62013	10214.624042036246	0
0	62027	10216.626351415381	1
0	62028	10217.106077217777	0
0	62035	10217.697647333304	1
0	62036	10217.998382990296	0
0	62137	10233.056358149402	1
0	62138	10233.595455392615	0
0	62147	10234.621442464042	1
0	62148	10234.787809561544	0
0	62180	10241.62375527693	1
0	62183	10242.418815580353	0
0	62192	10243.511470744357	1
0	62193	10244.070509919401	0
0	62202	10244.774905323995	1
0	62203	10245.51056333265	0
0	62212	10246.367821226956	1
0	62213	10246.889840636092	0
0	62222	10247.510781473022	1
0	62223	10247.944560347653	0
0	62230	10248.447360871547	1
0	62231	10249.313285765394	0
0	62250	10252.250926683758	1
0	62251	10253.029660384439	0
0	62260	10254.066765549511	1
0	62263	10254.807897181255	0
0	62315	10265.195291975285	1
0	62318	10265.688544770994	0
0	62327	10266.994426635016	1
0	62328	10267.28491375997	0
0	62337	10268.27727637101	1
0	62339	10268.350259727152	2
0	62342	10269.056359555305	1
0	62345	10269.651986919635	0
0	62349	10270.242437067757	1
0	62350	10270.6078419692	0
0	62354	10270.722412422496	1
0	62355	10271.25826183554	0
0	62359	10271.442588539227	1
0	62362	10271.772701585211	0
0	62369	10272.853428151537	1
0	62370	10273.106033361528	0
0	62374	10273.322327240415	1
0	62377	10273.698073353304	0
0	62381	10273.811685491348	1
0	62382	10274.134062085126	0
0	62386	10274.316910055258	1
0	62387	10274.763647771964	0
0	62394	10275.273633926898	1
0	62395	10275.884861523297	0
0	62402	10276.461277405133	1
0	62404	10276.539869789283	2
0	62405	10277.00411682186	1
0	62408	10277.482986698079	0
0	62414	10277.92304852921	1
0	62415	10278.436304975127	0
0	62419	10278.632514584504	1
0	62420	10279.215434441681	0
0	62424	10279.595221059263	1
0	62425	10280.020385174978	0
0	62429	10280.246099529139	1
0	62430	10280.571613966034	0
0	62434	10280.715703144182	1
0	62435	10281.428408108617	0
0	62450	10283.569267406221	1
0	62451	10284.430827414583	0
0	62462	10285.429951108831	1
0	62463	10285.690578792629	0
0	62470	10286.290202900447	1
0	62472	10286.550511070611	2
0	62475	10286.67908776576	1
0	62478	10287.454962589464	0
0	62482	10287.516357798992	1
0	62484	10287.592359257898	2
0	62486	10287.649440646042	3
0	62489	10288.051485886902	2
0	62492	10288.600973235734	1
0	62496	10288.610882842176	2
0	62497	10289.136132916773	1
0	62500	10289.654797621874	0
0	62504	10289.846156606048	1
0	62508	10290.244966345947	2
0	62509	10290.43370784145	1
0	62513	10290.732629658388	2
0	62514	10291.056432405078	1
0	62518	10291.122069295369	2
0	62519	10291.725208433728	1
0	62523	10291.749701687518	2
0	62524	10292.605578492825	1
0	62527	10293.333892091095	0
0	62531	10293.398235148804	1
0	62532	10294.199801601853	0
0	62536	10294.331493901067	1
0	62537	10294.925617839454	0
0	62541	10295.003808421184	1
0	62542	10295.832009288959	0
0	62565	10299.042195483345	1
0	62566	10299.543675082468	0
0	62640	10324.586718696817	1
0	62641	10324.748208452775	0
0	62652	10325.929857309795	1
0	62653	10326.162348003281	0
0	62662	10327.420511721309	1
0	62663	10327.867030430274	0
0	62677	10329.060446830326	1
0	62678	10329.358013992026	0
0	62815	10379.415351932746	1
0	62816	10380.058491729532	0
0	62874	10387.864836158627	1
0	62875	10388.338003783959	0
0	63190	10478.36354839714	1
0	63193	10478.706226040425	0
0	63260	10495.294545124178	1
0	63261	10495.500414810124	0
0	63270	10496.309114401142	1
0	63271	10496.670591557046	0
0	63280	10498.540231152748	1
0	63282	10498.610511697675	2
0	63283	10498.91605450183	1
0	63286	10499.776824997206	0
0	63295	10500.819276970492	1
0	63296	10501.162096990719	0
0	63345	10511.447535832414	1
0	63350	10512.320257586318	0
0	63357	10513.320928233967	1
0	63360	10513.590609472369	0
0	63369	10514.948065746762	1
0	63370	10514.98125218361	0
0	63412	10522.532389906315	1
0	63415	10522.815841892327	0
0	63422	10523.84563522462	1
0	63424	10523.966656146446	2
0	63425	10524.120245866164	1
0	63430	10524.625754083892	0
0	63434	10524.982285470456	1
0	63437	10525.402437250515	0
0	63441	10525.563048823533	1
0	63442	10525.913658344619	0
0	63449	10527.352755590664	1
0	63451	10527.41616729831	2
0	63453	10527.572431504342	3
0	63454	10527.717530340109	2
0	63457	10528.535140972551	1
0	63461	10528.731535481644	2
0	63462	10529.29184792248	1
0	63466	10529.613359977159	2
0	63467	10530.125846915566	1
0	63473	10530.552809605073	2
0	63474	10530.932748267906	1
0	63478	10531.390660495923	2
0	63479	10531.748324230792	1
0	63482	10532.461533734821	0
0	63492	10533.840853136466	1
0	63495	10534.294804390207	0
0	63502	10535.151681488732	1
0	63503	10535.348079132907	0
0	63509	10535.541109742749	1
0	63511	10536.020757255838	2
0	63512	10536.257538341651	1
0	63515	10537.178785065109	0
0	63519	10537.314142307363	1
0	63520	10538.08547099085	0
0	63524	10538.282065360982	1
0	63525	10538.745887008462	0
0	63529	10538.747304814017	1
0	63531	10538.885945972805	2
0	63532	10539.584328748299	1
0	63536	10540.31390561517	2
0	63539	10540.51387520797	1
0	63542	10541.023391497567	0
0	63546	10541.139819957078	1
0	63548	10541.239259720202	2
0	63549	10541.9864656367	1
0	63553	10542.218629998476	2
0	63554	10542.938990089543	1
0	63558	10543.783415790873	2
0	63559	10543.919445335226	1
0	63563	10544.016206489517	2
0	63566	10544.917878131255	1
0	63570	10545.279273664942	2
0	63571	10545.605188667042	1
0	63574	10546.022890152143	0
0	63588	10547.908952892445	1
0	63590	10548.020680868832	2
0	63591	10548.118893805019	1
0	63597	10548.558892047192	2
0	63598	10548.859283424926	1
0	63602	10549.126142958319	2
0	63603	10549.313036041626	1
0	63607	10549.604885086985	2
0	63608	10550.293545812288	1
0	63612	10550.762078521658	2
0	63613	10551.125207362616	1
0	63617	10551.36171181836	2
0	63618	10551.859397028306	1
0	63621	10552.40611669185	0
0	63625	10552.795679016921	1
0	63626	10553.180263096293	0
0	63633	10554.643114899201	1
0	63635	10554.928808306743	2
0	63636	10554.996341230454	1
0	63639	10555.829718816759	0
0	63643	10555.88928871256	1
0	63644	10556.398532043829	0
0	63648	10556.710906578223	1
0	63649	10557.161375528959	0
0	63675	10561.479064819156	1
0	63676	10561.650319846087	0
0	63785	10579.165783074967	1
0	63786	10579.768469865906	0
0	63795	10581.028318891272	1
0	63796	10581.061316586386	0
0	63847	10590.146849211963	1
0	63850	10590.451076468961	0
0	63859	10591.268512877187	1
0	63860	10591.781935378766	0
0	63869	10592.719113231594	1
0	63870	10593.229622050138	0
0	63877	10594.44130396697	1
0	63878	10594.483132622247	0
0	63887	10595.948963839731	1
0	63888	10595.960900716573	0
0	63900	10597.256736123028	1
0	63901	10597.622148649065	0
0	63915	10599.224688133961	1
0	63916	10599.56321677486	0
0	63927	10600.640605043066	1
0	63930	10600.811245931261	0
0	63942	10602.784948300501	1
0	63943	10603.0308208405	0
0	63955	10604.454489290599	1
0	63956	10605.050412331564	0
0	63965	10605.944045202478	1
0	63966	10606.380325888978	0
0	63975	10606.970014397932	1
0	63976	10607.616231029662	0
0	64000	10615.870008198482	1
0	64001	10616.43270686123	0
0	64010	10617.353490624936	1
0	64011	10617.680333199849	0
0	64020	10618.87461158842	1
0	64021	10619.103557374406	0
0	64045	10623.807794825773	1
0	64046	10624.46972755847	0
0	64055	10625.477773814424	1
0	64056	10625.533493000655	0
0	64065	10626.496787417174	1
0	64066	10626.881519385119	0
0	64085	10630.102084238216	1
0	64086	10630.679152511526	0
0	64142	10641.394673212895	1
0	64143	10641.631651296975	0
0	64207	10650.52517231653	1
0	64209	10650.699112986275	2
0	64210	10651.10795299187	1
0	64213	10651.692700939669	0
0	64219	10651.974964574955	1
0	64221	10652.139392542018	2
0	64222	10652.415182945595	1
0	64226	10653.091199733228	2
0	64229	10653.174425823425	1
0	64233	10653.204035377811	2
0	64234	10653.577743951787	1
0	64237	10654.356844344732	0
0	64241	10654.415099756215	1
0	64243	10654.837568205915	2
0	64244	10654.999254643076	1
0	64247	10655.984977075874	0
0	64251	10656.293197624786	1
0	64252	10656.974271884744	0
0	64256	10657.095964204773	1
0	64257	10657.815119968119	0
0	64261	10658.303397615251	1
0	64264	10658.606230657685	0
0	64271	10659.242725209323	1
0	64273	10659.457355406143	2
0	64274	10659.773811791183	1
0	64279	10660.521284089654	0
0	64283	10660.643579520661	1
0	64285	10660.653927146785	2
0	64286	10660.971163365475	1
0	64290	10661.334856226105	2
0	64291	10661.805857107832	1
0	64294	10662.336088138024	0
0	64298	10662.645254217757	1
0	64299	10662.925620088071	0
0	64303	10662.943685933604	1
0	64305	10662.954586516974	2
0	64306	10663.766452211185	1
0	64310	10663.770609043107	2
0	64311	10664.231443414135	1
0	64314	10664.952710812582	0
0	64318	10665.060885002726	1
0	64320	10665.09904805507	2
0	64321	10665.802915746901	1
0	64325	10666.137929576114	2
0	64326	10666.496025247775	1
0	64330	10667.089598895782	2
0	64331	10667.283589416925	1
0	64335	10667.288848634913	2
0	64336	10668.20172307598	1
0	64340	10668.506097367983	2
0	64341	10668.779734517537	1
0	64345	10668.801691339337	2
0	64347	10668.86085181839	3
0	64348	10669.750408179728	2
0	64352	10669.751592060132	3
0	64353	10670.665012220895	2
0	64357	10670.730406775252	3
0	64358	10671.107871461982	2
0	64362	10671.488441045834	3
0	64363	10671.664111755505	2
0	64367	10671.907545242589	3
0	64368	10672.472637501122	2
0	64371	10673.337981376746	1
0	64374	10673.864303480271	0
0	64378	10674.138425313988	1
0	64380	10674.160445093226	2
0	64381	10674.380695904089	1
0	64384	10675.003996394152	0
0	64394	10676.287256261088	1
0	64395	10676.951475958243	0
0	64402	10677.839230157948	1
0	64403	10678.132151546605	0
0	64455	10686.420658230373	1
0	64456	10686.806145631018	0
0	64495	10692.669651968531	1
0	64496	10692.738043925201	0
0	64505	10693.717800391569	1
0	64508	10694.146622736042	0
0	64517	10694.863454123413	1
0	64518	10695.324989458208	0
0	64527	10695.872244805276	1
0	64528	10696.176688836642	0
0	64532	10696.880753791877	1
0	64533	10697.161537364113	0
0	64537	10697.236489795107	1
0	64538	10697.94081457568	0
0	64542	10697.97267436319	1
0	64543	10698.872329092106	0
0	64552	10700.16769886928	1
0	64553	10700.53319172965	0
0	64562	10701.506121351745	1
0	64565	10702.299066362005	0
0	64578	10703.51695092438	1
0	64580	10703.664143084563	2
0	64581	10703.840922416734	1
0	64586	10704.491597004641	0
0	64590	10704.915193337267	1
0	64591	10705.124299194558	0
0	64595	10705.358212503246	1
0	64596	10705.591593295789	0
0	64600	10706.218106121948	1
0	64601	10706.245773621543	0
0	64608	10707.942764112836	1
0	64609	10708.114873784209	0
0	64613	10708.260489376948	1
0	64616	10708.780495760111	0
0	64620	10708.977647945598	1
0	64621	10709.626768764747	0
0	64633	10710.546639980135	1
0	64634	10711.051069773395	0
0	64648	10712.52466998265	1
0	64649	10713.070160295429	0
0	64656	10714.393926621737	1
0	64657	10714.611834709008	0
0	64686	10719.160229536765	1
0	64687	10719.464381929242	0
0	64701	10720.894035016792	1
0	64704	10721.316539932729	0
0	64713	10722.331042514789	1
0	64714	10722.673940152337	0
0	64721	10723.132644390603	1
0	64724	10723.827611264109	0
0	64733	10724.954359574923	1
0	64734	10725.570830401487	0
0	64741	10726.57370745798	1
0	64742	10726.675088408856	0
0	64749	10727.719213690325	1
0	64750	10728.345979587441	0
0	64761	10729.01398425561	1
0	64762	10729.692364943573	0
0	64817	10737.483945244733	1
0	64820	10737.726558977585	0
0	64994	10762.546076163254	1
0	64995	10762.774153509	0
0	65004	10763.63623995161	1
0	65005	10764.20614917214	0
0	65044	10768.614358744989	1
0	65045	10768.714872300542	0
0	65054	10769.761621773587	1
0	65056	10770.173491424816	2
0	65057	10770.295653289986	1
0	65061	10770.321688236956	2
0	65062	10771.272443609555	1
0	65065	10772.124107066133	0
0	65072	10772.894126301435	1
0	65079	10773.428929545601	0
0	65088	10774.251508471602	1
0	65089	10774.74919404775	0
0	65152	10782.068437041534	1
0	65153	10782.34434552501	0
0	65160	10783.56769189328	1
0	65161	10783.808022829993	0
0	65168	10784.474227890268	1
0	65169	10784.956048328626	0
0	65176	10786.056285753642	1
0	65178	10786.206070632091	2
0	65179	10786.477946682284	1
0	65188	10787.433721289607	0
0	65195	10788.695162347746	1
0	65196	10788.706739845602	0
0	65200	10788.770696169323	1
0	65203	10789.69278401915	0
0	65207	10789.871282430763	1
0	65210	10790.578609444257	0
0	65214	10790.702003122002	1
0	65215	10791.151005660286	0
0	65219	10791.356316003768	1
0	65221	10791.633792749264	2
0	65222	10791.822833613502	1
0	65229	10792.563610911239	0
0	65233	10793.204966679325	1
0	65234	10793.435935010212	0
0	65281	10800.400993735396	1
0	65284	10800.72966624746	0
0	65296	10802.457786350678	1
0	65297	10802.738365653305	0
0	65306	10803.85590968113	1
0	65307	10804.618962359762	0
0	65325	10806.846687010618	1
0	65326	10807.242611931785	0
0	65336	10808.527462793984	1
0	65338	10808.801503482604	2
0	65340	10808.927509922367	3
0	65341	10808.965979349529	2
0	65346	10809.461878607804	1
0	65350	10809.552560396954	2
0	65351	10810.433396713771	1
0	65355	10810.973971238066	2
0	65356	10811.360751396148	1
0	65360	10811.514661864886	2
0	65363	10812.34643812106	1
0	65368	10813.188329990544	0
0	65372	10813.365161701095	1
0	65373	10814.045215604697	0
0	65377	10814.141683676059	1
0	65378	10814.490983794639	0
0	65382	10814.778721506362	1
0	65383	10815.325783822322	0
0	65390	10816.417998522268	1
0	65392	10816.490883764209	2
0	65393	10816.614696273869	1
0	65398	10817.244475118732	0
0	65402	10817.544435224554	1
0	65403	10818.068291446576	0
0	65407	10818.451972629072	1
0	65408	10818.802874177564	0
0	65582	10843.9418478638	1
0	65585	10844.372830611825	0
0	65592	10845.41194795286	1
0	65594	10845.464345125594	2
0	65595	10846.166069852732	1
0	65598	10847.001771815106	0
0	65611	10847.774507778959	1
0	65612	10848.371630608368	0
0	65624	10849.514350678875	1
0	65627	10850.155993695821	0
0	65636	10851.118633722374	1
0	65637	10852.000942241711	0
0	65641	10852.216766956041	1
0	65642	10852.603364411912	0
0	65651	10853.334574476114	1
0	65653	10853.909401255419	2
0	65654	10854.083697705141	1
0	65657	10855.019128429175	0
0	65661	10855.403696990066	1
0	65662	10855.549424866431	0
0	65666	10856.187339682115	1
0	65667	10856.46000755125	0
0	65671	10856.588592955198	1
0	65672	10857.065671957687	0
0	65676	10857.458762424023	1
0	65677	10857.817400791526	0
0	65681	10858.379773607349	1
0	65682	10858.811807855714	0
0	65686	10858.906796779258	1
0	65688	10859.036636664609	2
0	65689	10859.429998803262	1
0	65693	10859.436872971019	2
0	65694	10860.012308651286	1
0	65698	10860.29730990622	2
0	65699	10860.983201961809	1
0	65703	10861.033326594882	2
0	65704	10861.721156069993	1
0	65708	10861.891851154113	2
0	65711	10862.656688053145	1
0	65714	10863.368237642649	0
0	65718	10863.461415959101	1
0	65719	10863.897550839077	0
0	65723	10863.975838628589	1
0	65724	10864.377282980395	0
0	65728	10864.470402160532	1
0	65730	10864.966187737822	2
0	65732	10865.173085258552	3
0	65733	10865.224369736932	2
0	65736	10865.874600277034	1
0	65740	10866.090911961704	2
0	65741	10866.636407529966	1
0	65744	10867.096436581559	0
0	65751	10867.940604311863	1
0	65752	10868.713239941777	0
0	65756	10869.124411133929	1
0	65758	10869.197621091695	2
0	65759	10869.254157614646	1
0	65765	10869.853745437837	2
0	65766	10869.900493773477	1
0	65771	10870.342861637784	0
0	65778	10871.668637341878	1
0	65779	10871.887548801987	0
0	65793	10873.476566842236	1
0	65794	10874.145015515326	0
0	65803	10875.07682386883	1
0	65805	10875.840720704271	2
0	65806	10875.957064375174	1
0	65809	10876.48828230699	0
0	65821	10878.020087368939	1
0	65822	10878.732593224742	0
0	65833	10879.607402549322	1
0	65834	10880.368660191385	0
0	65947	10897.812324986641	1
0	65948	10897.814616030628	0
0	65957	10898.638244442347	1
0	65958	10898.994674516736	0
0	65969	10899.993952720354	1
0	65970	10900.26078476695	0
0	65979	10900.881085240571	1
0	65980	10901.152355044509	0
0	65992	10903.095448053613	1
0	65993	10903.297204394579	0
0	66002	10904.195526840772	1
0	66005	10904.85532201341	0
0	66014	10905.983302681288	1
0	66015	10906.191582695754	0
0	66029	10907.41214620043	1
0	66030	10908.194972496745	0
0	66074	10913.686343575087	1
0	66076	10913.709086241299	2
0	66077	10913.874310546772	1
0	66080	10914.379451049849	0
0	66084	10914.490823826118	1
0	66087	10914.811893546519	0
0	66104	10916.941384004402	1
0	66105	10917.7644133841	0
0	66114	10918.974019038377	1
0	66115	10919.223890017004	0
0	66124	10920.049677117214	1
0	66125	10920.213133734216	0
0	66141	10921.729434399738	1
0	66142	10922.217729451212	0
0	66149	10922.875795474155	1
0	66153	10923.25723780306	2
0	66154	10923.374743466296	1
0	66160	10924.019039310462	2
0	66161	10924.238257392806	1
0	66164	10924.654513470673	0
0	66168	10925.261275929729	1
0	66169	10925.301500987339	0
0	66173	10925.324322183334	1
0	66175	10925.458178046928	2
0	66178	10926.071609897337	1
0	66182	10926.192552701269	2
0	66183	10926.828357014603	1
0	66186	10927.635616080447	0
0	66190	10928.005676947922	1
0	66192	10928.169721599476	2
0	66193	10928.237699103759	1
0	66197	10928.380083460911	2
0	66200	10929.104083607889	1
0	66204	10929.655338138485	2
0	66205	10929.895248428484	1
0	66209	10930.273567958437	2
0	66210	10930.678350921332	1
0	66214	10930.826528169694	2
0	66215	10931.238709060459	1
0	66219	10931.40639808185	2
0	66220	10932.207596977877	1
0	66226	10932.368999538904	2
0	66228	10932.832804669623	3
0	66229	10933.172440431297	2
0	66232	10933.726281281963	1
0	66236	10934.03992222183	2
0	66238	10934.060431064071	3
0	66239	10934.537408652838	2
0	66243	10934.56655139781	3
0	66245	10934.57262627517	4
0	66246	10935.339536720451	3
0	66250	10935.889348772304	4
0	66252	10936.015305811772	5
0	66253	10936.145287381236	4
0	66256	10937.018773078856	3
0	66259	10938.014353682271	2
0	66265	10938.399389987398	3
0	66266	10938.520439451544	2
0	66270	10938.595995526645	3
0	66271	10939.183287306253	2
0	66275	10939.515175938385	3
0	66276	10939.87299237394	2
0	66279	10940.477862961062	1
0	66283	10941.040455308829	2
0	66284	10941.368109125814	1
0	66288	10941.548674455797	2
0	66289	10941.898504844757	1
0	66293	10942.392336356974	2
0	66294	10942.604698815832	1
0	66298	10942.812670681087	2
0	66300	10942.885600380527	3
0	66301	10943.292480376719	2
0	66305	10943.348800521376	3
0	66307	10943.421061561917	4
0	66308	10943.726178871684	3
0	66312	10943.753468722464	4
0	66313	10944.3999592427	3
0	66319	10944.668646049362	4
0	66320	10944.909895111511	3
0	66324	10945.139658408677	4
0	66325	10945.584507366579	3
0	66329	10945.748928388873	4
0	66330	10946.409361016966	3
0	66334	10946.471933888364	4
0	66335	10946.876582801511	3
0	66339	10946.886406723226	4
0	66340	10947.34930293698	3
0	66344	10947.598724742022	4
0	66345	10948.153280897608	3
0	66349	10948.435623265002	4
0	66350	10948.814415178105	3
0	66357	10949.544713669719	2
0	66360	10950.071124118084	1
0	66364	10950.580447847596	2
0	66366	10950.7384315294	3
0	66368	10950.94661051602	4
0	66369	10951.050326362561	3
0	66373	10951.075521252064	4
0	66375	10951.695746727754	5
0	66376	10951.94480253759	4
0	66380	10952.013500567102	5
0	66381	10952.34796257809	4
0	66385	10952.922397982128	5
0	66386	10952.941494906956	4
0	66390	10953.149045468528	5
0	66391	10953.45616246516	4
0	66395	10953.867000298761	5
0	66396	10954.051515474851	4
0	66400	10954.30978265506	5
0	66401	10954.939518279657	4
0	66405	10954.989199577085	5
0	66406	10955.479961564187	4
0	66410	10955.839945582206	5
0	66411	10956.058362958562	4
0	66415	10956.141459821641	5
0	66416	10956.557309893454	4
0	66419	10957.432621436967	3
0	66423	10957.667152260488	4
0	66424	10958.354240530944	3
0	66428	10959.156408845916	4
0	66429	10959.330106426757	3
0	66433	10959.585264491269	4
0	66434	10960.121930160634	3
0	66438	10960.784888781339	4
0	66439	10961.026829870818	3
0	66443	10961.27340930815	4
0	66444	10961.79445017253	3
0	66448	10961.993236323694	4
0	66449	10962.506225808551	3
0	66454	10963.272708504395	2
0	66459	10963.761226820368	1
0	66463	10963.887134300319	2
0	66464	10964.758392269425	1
0	66468	10964.986079858739	2
0	66470	10965.099273515178	3
0	66471	10965.676868944317	2
0	66475	10966.105035428117	3
0	66476	10966.639341457961	2
0	66480	10966.726651065113	3
0	66481	10967.170864499854	2
0	66485	10967.627143706129	3
0	66486	10967.900762886768	2
0	66490	10968.534198572925	3
0	66491	10968.651967307953	2
0	66495	10968.806483747814	3
0	66496	10969.070965959765	2
0	66500	10969.206361711159	3
0	66501	10969.661105445102	2
0	66507	10969.925997764057	3
0	66508	10970.383741224725	2
0	66512	10970.70442389219	3
0	66513	10971.100000253301	2
0	66517	10971.105642062092	3
0	66518	10971.835660284599	2
0	66522	10971.929886721342	3
0	66523	10972.581211694637	2
0	66527	10972.699906067323	3
0	66528	10973.317596178157	2
0	66532	10973.429449117189	3
0	66533	10973.729015225246	2
0	66537	10973.828665520199	3
0	66542	10974.312791445739	2
0	66545	10975.217618530644	1
0	66549	10975.252821490036	2
0	66550	10976.062118390463	1
0	66554	10976.497907484797	2
0	66555	10976.529198356978	1
0	66558	10976.984146884763	0
0	66562	10977.098620898712	1
0	66564	10977.498963404265	2
0	66565	10977.979899157378	1
0	66569	10978.327079478038	2
0	66572	10978.951789222871	1
0	66575	10979.879045135974	0
0	66582	10980.538878736828	1
0	66584	10980.9132517025	2
0	66585	10980.925139986798	1
0	66589	10981.354009980347	2
0	66590	10981.484591605915	1
0	66596	10981.812230753491	2
0	66599	10982.241823155694	1
0	66603	10982.319725579262	2
0	66604	10982.712178803496	1
0	66608	10982.924336997839	2
0	66609	10983.36091173443	1
0	66613	10983.451150353791	2
0	66614	10984.0074811552	1
0	66618	10984.157479965358	2
0	66619	10984.616999515314	1
0	66623	10984.661696846629	2
0	66625	10984.849506525398	3
0	66626	10985.22831412049	2
0	66630	10985.419415268818	3
0	66631	10986.069999622488	2
0	66635	10986.347118974143	3
0	66636	10986.958214032491	2
0	66640	10987.45609714512	3
0	66641	10987.764908071029	2
0	66645	10988.096124350488	3
0	66646	10988.225204656766	2
0	66650	10988.479180384512	3
0	66651	10988.644170964909	2
0	66654	10989.276694366037	1
0	66658	10989.332676964849	2
0	66660	10989.383026410165	3
0	66661	10990.144432310601	2
0	66665	10990.158351274107	3
0	66666	10990.651244448339	2
0	66672	10991.0301172181	3
0	66673	10991.229515132801	2
0	66676	10991.700277745472	1
0	66682	10992.13879996824	2
0	66683	10992.365217092754	1
0	66687	10992.809270514978	2
0	66688	10993.308787269499	1
0	66692	10993.436776396209	2
0	66693	10994.152704372471	1
0	66697	10994.682075113856	2
0	66698	10994.803070007479	1
0	66702	10995.379171251482	2
0	66703	10995.396052742358	1
0	66707	10995.467426096228	2
0	66709	10995.927028771306	3
0	66710	10996.012699234141	2
0	66714	10996.892947375793	3
0	66715	10996.972685687318	2
0	66719	10997.565439981656	3
0	66720	10997.871534912874	2
0	66724	10998.254452841832	3
0	66725	10998.670180329335	2
0	66729	10999.411658249517	3
0	66730	10999.463850669962	2
0	66734	10999.579989030034	3
0	66735	11000.013840545741	2
0	66739	11000.091201172017	3
0	66740	11000.876092148134	2
0	66745	11001.361184811852	1
0	66749	11001.396429851065	2
0	66750	11002.241395575115	1
0	66753	11003.168367593856	0
0	66757	11003.798653037638	1
0	66758	11003.847606288436	0
0	66762	11003.929902716725	1
0	66763	11004.341581718604	0
0	66767	11005.070075133975	1
0	66768	11005.192134790243	0
0	66772	11005.224903203735	1
0	66773	11005.975451132124	0
0	66777	11006.117787856393	1
0	66778	11006.831159345088	0
0	66785	11007.426239770165	1
0	66787	11007.523812069573	2
0	66788	11008.103601513784	1
0	66793	11008.705899631958	0
0	66797	11008.896892067629	1
0	66798	11009.332454650178	0
0	66802	11009.395966276329	1
0	66803	11010.147130918158	0
0	66813	11011.620172469583	1
0	66814	11012.063905796343	0
0	66823	11013.318946299018	1
0	66826	11013.396113998378	0
0	66835	11014.675392847005	1
0	66836	11014.861165423626	0
0	66840	11015.112062479957	1
0	66843	11015.607376150396	0
0	66850	11016.432530025589	1
0	66852	11016.477637076836	2
0	66853	11016.568052328267	1
0	66858	11017.128132960741	0
0	66865	11017.706105228555	1
0	66869	11017.988724832839	2
0	66870	11018.435734223836	1
0	66874	11019.084102147464	2
0	66875	11019.100747555663	1
0	66878	11019.574479680072	0
0	66884	11019.817398068545	1
0	66885	11020.402161333879	0
0	66889	11020.630451544712	1
0	66891	11020.770714958344	2
0	66892	11021.083637070825	1
0	66896	11021.469937179325	2
0	66897	11021.631225655956	1
0	66900	11022.043945078768	0
0	66904	11022.276744909991	1
0	66906	11022.522951312967	2
0	66907	11022.572961254774	1
0	66910	11023.190903987347	0
0	66914	11023.789894186951	1
0	66915	11023.993847250783	0
0	66922	11024.637282203149	1
0	66924	11024.719112658223	2
0	66925	11025.527332365032	1
0	66928	11025.957504066251	0
0	66932	11026.03372389229	1
0	66933	11026.403515569152	0
0	66937	11026.501418547377	1
0	66940	11027.21657428712	0
0	66944	11027.428939005939	1
0	66945	11028.13161592035	0
0	66949	11028.232483006697	1
0	66950	11029.086406749845	0
0	66954	11029.353394662094	1
0	66955	11029.676671728058	0
0	66959	11030.434847092768	1
0	66960	11030.476852008173	0
0	66971	11031.43314669203	1
0	66973	11031.970542791776	2
0	66975	11032.119537769774	3
0	66976	11032.20811955634	2
0	66979	11032.880343210264	1
0	66983	11033.487700664261	2
0	66984	11033.613973999848	1
0	66989	11034.309575853483	0
0	66993	11034.546975829293	1
0	66995	11034.908435859983	2
0	66996	11035.097524937648	1
0	67000	11035.406275454211	2
0	67001	11035.697241732092	1
0	67005	11036.038476515489	2
0	67007	11036.086970544218	3
0	67008	11036.285899976441	2
0	67011	11036.858854259025	1
0	67014	11037.816112723607	0
0	67018	11038.023827555925	1
0	67019	11038.298241698356	0
0	67023	11039.095536245912	1
0	67024	11039.107491346761	0
0	67028	11039.498525873506	1
0	67030	11039.584177422397	2
0	67032	11039.855057908528	3
0	67034	11039.909732161881	4
0	67035	11040.058656901433	3
0	67039	11040.161396956331	4
0	67041	11040.584010591588	5
0	67042	11040.998485115808	4
0	67046	11041.377194177534	5
0	67049	11041.904141481765	4
0	67053	11041.911406179729	5
0	67054	11042.331043648845	4
0	67060	11043.160618199024	5
0	67061	11043.307625308618	4
0	67065	11043.398174897629	5
0	67066	11043.862939268848	4
0	67070	11043.869224613304	5
0	67071	11044.287531622298	4
0	67074	11045.239468832718	3
0	67077	11045.858277215142	2
0	67080	11046.368770383563	1
0	67084	11046.599673275541	2
0	67086	11046.81230656872	3
0	67087	11047.045415787151	2
0	67090	11047.485552928349	1
0	67094	11047.749996744381	2
0	67096	11047.844393429457	3
0	67097	11047.976017577279	2
0	67101	11048.601828507512	3
0	67103	11048.867987589934	4
0	67104	11048.956417430317	3
0	67108	11049.205293706248	4
0	67109	11049.497293884758	3
0	67115	11049.695917316522	4
0	67116	11050.428053561909	3
0	67120	11050.46302474222	4
0	67121	11050.877486063292	3
0	67125	11051.233583249697	4
0	67126	11051.529944588136	3
0	67130	11051.658167468591	4
0	67132	11051.811976066749	5
0	67133	11052.119581225779	4
0	67137	11052.227590561765	5
0	67140	11052.631920045972	4
0	67144	11052.936778151988	5
0	67145	11053.55415831868	4
0	67149	11053.655502740722	5
0	67150	11053.986104558487	4
0	67154	11054.745400548596	5
0	67155	11054.985248297764	4
0	67159	11055.289601066809	5
0	67160	11055.968303667227	4
0	67163	11056.442577553852	3
0	67167	11056.595941965814	4
0	67168	11056.91318002202	3
0	67172	11057.512756096703	4
0	67173	11057.639909734376	3
0	67176	11058.078378815655	2
0	67180	11058.257974107152	3
0	67181	11058.55087616824	2
0	67185	11058.883162904306	3
0	67187	11059.129270375218	4
0	67188	11059.200404962696	3
0	67192	11059.636191147447	4
0	67193	11059.985724539202	3
0	67197	11060.137311174581	4
0	67198	11060.722607617159	3
0	67201	11061.671900062202	2
0	67205	11061.819798357614	3
0	67208	11062.158837866256	2
0	67212	11062.847399724785	3
0	67213	11062.958734018434	2
0	67217	11063.450372909198	3
0	67221	11063.727287474593	4
0	67222	11063.914435151531	3
0	67225	11064.383527532671	2
0	67229	11064.506703004039	3
0	67231	11064.512923907047	4
0	67232	11065.114632960022	3
0	67236	11065.362047938291	4
0	67237	11065.790644152495	3
0	67241	11065.913221430053	4
0	67242	11066.558051694264	3
0	67246	11066.766993116501	4
0	67247	11067.48060375148	3
0	67251	11067.832614777439	4
0	67252	11068.383387455657	3
0	67256	11068.678325099452	4
0	67257	11069.214119929574	3
0	67261	11069.832961710594	4
0	67262	11069.854286520961	3
0	67266	11070.277409578062	4
0	67267	11070.548922778373	3
0	67271	11070.865933366588	4
0	67272	11071.406559668514	3
0	67276	11071.92374922148	4
0	67277	11072.289403673015	3
0	67281	11072.68722337899	4
0	67282	11073.133856272311	3
0	67286	11073.516709347018	4
0	67287	11073.78879587919	3
0	67290	11074.447281186315	2
0	67294	11074.556060831794	3
0	67295	11075.312002212354	2
0	67299	11075.48182123606	3
0	67300	11075.979652023488	2
0	67304	11076.022252107379	3
0	67305	11076.672721688389	2
0	67309	11076.749683465346	3
0	67310	11077.645875103665	2
0	67313	11078.326427894724	1
0	67316	11078.816168685989	0
0	67320	11079.066714557282	1
0	67322	11079.334317873801	2
0	67323	11079.773322873409	1
0	67326	11080.211374643338	0
0	67330	11080.246846454235	1
0	67331	11080.736957768523	0
0	67335	11081.042923010254	1
0	67337	11081.176470630963	2
0	67338	11081.213636550852	1
0	67343	11081.739991589109	0
0	67347	11081.878160095958	1
0	67350	11082.562188890609	0
0	67354	11082.604174162929	1
0	67356	11082.611685752748	2
0	67358	11082.636926450638	3
0	67359	11083.199410115727	2
0	67363	11083.46642962272	3
0	67364	11083.644200454545	2
0	67367	11084.494595248191	1
0	67371	11084.496057198547	2
0	67372	11085.325442935558	1
0	67375	11085.848762441738	0
0	67382	11087.328865965732	1
0	67383	11087.505808405517	0
0	67392	11088.557917403666	1
0	67393	11088.773085673698	0
0	67400	11089.844985101208	1
0	67401	11089.960863136579	0
0	67408	11090.538524508228	1
0	67409	11090.856581685911	0
0	67420	11091.618808563191	1
0	67421	11092.128120844797	0
0	67428	11092.815555344986	1
0	67429	11093.376808295338	0
0	67442	11093.997509667271	1
0	67443	11094.639973908089	0
0	67473	11099.626085263102	1
0	67474	11099.652547890259	0
0	67490	11102.02110008807	1
0	67491	11102.025538951004	0
0	67500	11103.186227456123	1
0	67501	11103.236048040431	0
0	67508	11103.915528710505	1
0	67511	11104.397097211968	0
0	67523	11106.29358202083	1
0	67524	11106.618854035515	0
0	67533	11107.766686519329	1
0	67534	11108.53711250055	0
0	67556	11111.556089721655	1
0	67557	11112.250696479328	0
0	67566	11112.896872288085	1
0	67567	11113.808205385072	0
0	67579	11115.669602976159	1
0	67580	11115.686645354594	0
0	67591	11116.754196745073	1
0	67592	11117.407876853489	0
0	67603	11118.073449108467	1
0	67604	11118.747489775748	0
0	67735	11136.636093172871	1
0	67737	11136.642412710977	2
0	67738	11136.716564092396	1
0	67745	11137.239223111311	0
0	67749	11137.513132717423	1
0	67750	11137.889490064915	0
0	67754	11138.112712066473	1
0	67755	11138.561658871017	0
0	67759	11138.852525027577	1
0	67760	11139.526477880153	0
0	67764	11140.027709427189	1
0	67765	11140.49101475373	0
0	67769	11140.850423922434	1
0	67772	11141.259854382911	0
0	67782	11142.611838869848	1
0	67785	11143.117045089771	0
0	67791	11143.559954701449	1
0	67792	11143.829747917113	0
0	67796	11143.879942764537	1
0	67797	11144.266367756092	0
0	67801	11144.402566597143	1
0	67803	11144.607488102158	2
0	67804	11144.835805209196	1
0	67807	11145.640744514606	0
0	67811	11146.083627959446	1
0	67813	11146.133800128666	2
0	67814	11146.464887918281	1
0	67817	11147.210753002046	0
0	67821	11147.236487226093	1
0	67822	11147.686077630502	0
0	67829	11148.313216624938	1
0	67831	11148.596856237143	2
0	67832	11149.038539657305	1
0	67838	11149.067571067384	2
0	67842	11149.733418940469	3
0	67843	11149.931707571057	2
0	67847	11150.711642130097	3
0	67848	11150.906479547761	2
0	67852	11150.920422735727	3
0	67853	11151.533601701056	2
0	67857	11151.560868507903	3
0	67858	11151.962638407649	2
0	67861	11152.877684480493	1
0	67865	11153.009464467439	2
0	67866	11153.658358437038	1
0	67870	11153.667660063915	2
0	67871	11154.415839878033	1
0	67875	11154.704985914745	2
0	67876	11155.177860213333	1
0	67880	11155.351470069847	2
0	67881	11156.010056550737	1
0	67884	11156.623741617642	0
0	67888	11156.762001999749	1
0	67891	11157.502329653112	0
0	67898	11158.640027008963	1
0	67899	11159.234643818515	0
0	67908	11160.597955102596	1
0	67909	11160.607294702514	0
0	67921	11162.324129041922	1
0	67924	11162.749980333291	0
0	67933	11163.698549765195	1
0	67936	11164.23924458123	0
0	67940	11164.810270197903	1
0	67941	11164.943157974474	0
0	67945	11165.308290824211	1
0	67946	11165.702666346293	0
0	67953	11166.350427449089	1
0	67954	11166.888498748031	0
0	67963	11167.585581731136	1
0	67964	11168.325742547198	0
0	68069	11183.61751011537	1
0	68070	11183.820397014063	0
0	68076	11184.47584592603	1
0	68077	11184.567480616024	0
0	68081	11184.751579418979	1
0	68082	11185.047409339514	0
0	68086	11185.132925862075	1
0	68089	11185.692389831398	0
0	68093	11185.734744442582	1
0	68094	11186.47721305828	0
0	68098	11186.74654321158	1
0	68099	11187.473945709862	0
0	68103	11187.561929518168	1
0	68104	11188.25157701027	0
0	68108	11188.875581421248	1
0	68109	11189.176019654222	0
0	68113	11189.328030928468	1
0	68114	11189.716115531357	0
0	68121	11190.539464654267	1
0	68122	11191.237163908625	0
0	68280	11214.009944443253	1
0	68281	11214.02855535516	0
0	68290	11215.009535635222	1
0	68291	11215.638057328932	0
0	68300	11216.36563774898	1
0	68302	11216.415923762437	2
0	68303	11216.843912573376	1
0	68308	11217.453994801299	0
0	68312	11217.995464622574	1
0	68313	11218.246187002662	0
0	68320	11219.001028163582	1
0	68321	11219.197233560806	0
0	68333	11220.947408046519	1
0	68334	11221.339043639074	0
0	68432	11236.160247044469	1
0	68433	11236.470435207091	0
0	68447	11237.905179393918	1
0	68450	11238.100776183965	0
0	68461	11239.248557899197	1
0	68466	11239.629181908198	0
0	68487	11241.916721840314	1
0	68488	11242.211324260883	0
0	68586	11254.961961005982	1
0	68587	11255.148664890589	0
0	68596	11256.549820343632	1
0	68597	11256.974419527115	0
0	68606	11258.220157065577	1
0	68607	11258.718548681573	0
0	68616	11259.468313561396	1
0	68617	11260.05656660533	0
0	68624	11260.698969200557	1
0	68625	11261.168313484159	0
0	68824	11287.429959614637	1
0	68825	11287.864363699439	0
0	68834	11288.677271846224	1
0	68836	11288.854560051396	2
0	68839	11289.142569992025	1
0	68846	11290.033355509196	0
0	68850	11290.123202653089	1
0	68851	11290.779147179224	0
0	68855	11290.947424138839	1
0	68856	11291.713047535796	0
0	68869	11293.269137009798	1
0	68870	11293.356135448706	0
0	68877	11294.268374112058	1
0	68878	11294.658334711133	0
0	68887	11295.575624132602	1
0	68888	11295.739965576013	0
0	68898	11296.804413835673	1
0	68899	11297.254349555527	0
0	68915	11298.901664351977	1
0	68916	11299.47882387157	0
0	68923	11300.239674974463	1
0	68924	11300.590910709216	0
0	68934	11301.831634309874	1
0	68937	11302.314666149426	0
0	68944	11302.937436524243	1
0	68945	11303.661119134106	0
0	68949	11304.339310813434	1
0	68952	11304.600653947085	0
0	68961	11305.37540749593	1
0	68964	11306.022678813371	0
0	68975	11306.587881186826	1
0	68976	11307.118276996571	0
0	68987	11308.011851128415	1
0	68988	11308.759710024237	0
0	68995	11309.733494320975	1
0	68996	11309.804396142006	0
0	69005	11311.032552096702	1
0	69008	11311.572918824327	0
0	69032	11314.504321602326	1
0	69033	11315.25616674408	0
0	69142	11330.986751833336	1
0	69145	11331.425276453362	0
0	69157	11332.718084292791	1
0	69158	11333.236482764536	0
0	69171	11334.424962562029	1
0	69172	11334.781570873864	0
0	69179	11335.458467269766	1
0	69180	11335.88890516347	0
0	69187	11336.704638055927	1
0	69189	11336.770576140309	2
0	69190	11337.408943403919	1
0	69195	11338.272117723093	0
0	69203	11338.790992618821	1
0	69204	11338.835768510994	0
0	69213	11339.423500045141	1
0	69215	11339.949658679563	2
0	69216	11340.267733500419	1
0	69219	11341.126359265983	0
0	69223	11341.323176480057	1
0	69224	11341.754256779687	0
0	69233	11342.704472979808	1
0	69234	11343.41979719129	0
0	69243	11344.313470080018	1
0	69244	11345.001290598498	0
0	69258	11346.428902410229	1
0	69259	11346.838763398384	0
0	69315	11356.425909221282	1
0	69316	11356.428829044742	0
0	69327	11357.412031849596	1
0	69328	11357.852149004895	0
0	69337	11358.925432564466	1
0	69340	11359.212234038474	0
0	69351	11359.93326696766	1
0	69352	11360.504634521935	0
0	69359	11361.213706761797	1
0	69360	11361.719364507996	0
0	69367	11362.4857093872	1
0	69370	11362.884986219077	0
0	69377	11363.399105490391	1
0	69380	11364.053797687438	0
0	69386	11364.5426409169	1
0	69387	11364.867969781288	0
0	69391	11364.869985847729	1
0	69392	11365.617628854175	0
0	69405	11367.16962521609	1
0	69410	11367.922616453317	0
0	69419	11369.276024099192	1
0	69420	11369.315622447466	0
0	69429	11370.273852191441	1
0	69430	11370.730249005265	0
0	69439	11371.896121873727	1
0	69442	11372.497304222814	0
0	69449	11373.496854650878	1
0	69450	11373.719978218654	0
0	69457	11374.707435385267	1
0	69458	11375.2516688384	0
0	69465	11375.909955261116	1
0	69466	11376.415333846013	0
0	69475	11377.466940327747	1
0	69476	11377.695414537505	0
0	69485	11378.51188000229	1
0	69486	11378.726232267857	0
0	69493	11379.700405985846	1
0	69494	11380.256663772777	0
0	69503	11381.215619723794	1
0	69504	11381.28095378325	0
0	69511	11381.714043652566	1
0	69514	11382.30121146267	0
0	69523	11383.325999156136	1
0	69524	11383.388964757963	0
0	69531	11384.036500081025	1
0	69532	11384.288700493366	0
0	69541	11385.21338996877	1
0	69542	11385.530594158114	0
0	69553	11386.33681043024	1
0	69556	11387.074380778183	0
0	69565	11388.042130398603	1
0	69566	11388.597050017153	0
0	69575	11390.162511748716	1
0	69578	11390.551687074068	0
0	69585	11391.427224923876	1
0	69586	11392.137345553597	0
0	69595	11393.133012110258	1
0	69596	11393.70122309922	0
0	69677	11405.742541116346	1
0	69678	11405.778244809095	0
0	69689	11406.787506593393	1
0	69690	11406.883287311472	0
0	69699	11407.467070725768	1
0	69700	11407.859985211851	0
0	69709	11408.839611233097	1
0	69710	11409.179773215378	0
0	69719	11410.355294114489	1
0	69720	11410.523903711733	0
0	69731	11411.995288136108	1
0	69732	11412.172643750242	0
0	69763	11416.934079893731	1
0	69764	11417.692723647819	0
0	69773	11418.85665456035	1
0	69774	11418.911392987415	0
0	69781	11419.738955097216	1
0	69784	11420.037160633028	0
0	69797	11420.894113949968	1
0	69800	11421.849533645239	0
0	69809	11422.386317223828	1
0	69812	11423.168278836355	0
0	69907	11436.35136051766	1
0	69908	11436.450529956853	0
0	69917	11437.39465297624	1
0	69918	11437.923376308138	0
0	69985	11447.819579638287	1
0	69986	11448.322283646732	0
0	69995	11449.542958857097	1
0	69996	11449.674204643478	0
0	70003	11450.778474275429	1
0	70004	11451.025883372209	0
0	70010	11451.411244734534	1
0	70011	11451.972661164996	0
0	70018	11452.721166014828	1
0	70019	11453.036567241826	0
0	70023	11453.036672607001	1
0	70026	11453.457831103668	0
0	70038	11455.536973057387	1
0	70039	11455.831095457344	0
0	70048	11456.651163809319	1
0	70050	11456.931715989374	2
0	70051	11457.308180724817	1
0	70056	11457.929726704011	0
0	70063	11459.087491031515	1
0	70064	11459.417122562729	0
0	70071	11460.282325365635	1
0	70072	11460.920638955279	0
0	70083	11462.172208396184	1
0	70084	11462.234180804516	0
0	70091	11463.193568497466	1
0	70092	11463.741191298736	0
0	70099	11464.889776022748	1
0	70100	11465.532129403099	0
0	70109	11466.503592690784	1
0	70112	11467.019494225166	0
0	70121	11467.990286249009	1
0	70122	11468.545247286453	0
0	70131	11469.003669553183	1
0	70132	11469.44693520636	0
0	70139	11470.086704662359	1
0	70140	11470.491231206746	0
0	70151	11471.64521315997	1
0	70152	11472.061979701404	0
0	70435	11513.327678031832	1
0	70436	11513.622789620913	0
0	70443	11514.482133615965	1
0	70444	11515.058976283276	0
0	70455	11516.187963503481	1
0	70456	11516.901493613727	0
0	70472	11519.148227636414	1
0	70473	11519.185481364819	0
0	70530	11528.052689602355	1
0	70531	11528.176564338038	0
0	70540	11529.052942012466	1
0	70541	11529.778820609141	0
0	70552	11530.978204061161	1
0	70553	11531.177004117172	0
0	70560	11532.242847238673	1
0	70561	11532.987175206633	0
0	70585	11538.049364715134	1
0	70588	11538.09452570889	0
0	70597	11539.098714722626	1
0	70598	11539.710259914471	0
0	70607	11540.467015703472	1
0	70612	11541.346367257441	0
0	70623	11542.425667439421	1
0	70624	11543.123608921169	0
0	70631	11544.218848397567	1
0	70632	11544.83481053233	0
0	70641	11546.334489369825	1
0	70644	11546.377234966567	0
0	70653	11546.98819762085	1
0	70655	11547.601696268397	2
0	70656	11547.79766574812	1
0	70661	11548.210377020369	0
0	70668	11548.986408548056	1
0	70669	11549.374335344442	0
0	70673	11549.407617103043	1
0	70675	11549.761990277161	2
0	70676	11549.928239955966	1
0	70680	11550.032953927341	2
0	70681	11550.470623962468	1
0	70685	11550.658483495652	2
0	70688	11550.90966608499	1
0	70691	11551.494801135061	0
0	70704	11553.238590145141	1
0	70705	11553.630406912349	0
0	70740	11560.941806030756	1
0	70741	11561.460584575605	0
0	70750	11562.229979248117	1
0	70751	11562.36137862547	0
0	70760	11563.061586237253	1
0	70763	11563.474544128279	0
0	70785	11568.043234320232	1
0	70788	11568.953421140467	0
0	70865	11584.931327467889	1
0	70868	11585.347189814864	0
0	70917	11593.751873368415	1
0	70918	11593.774812054119	0
0	70925	11594.673741800762	1
0	70927	11594.769026748694	2
0	70932	11595.278415399974	1
0	70935	11596.209595751155	0
0	70941	11596.35901165617	1
0	70942	11596.847623753453	0
0	70946	11597.601250826354	1
0	70947	11597.776035177008	0
0	70954	11598.91799175135	1
0	70956	11599.129180596141	2
0	70957	11599.658992814131	1
0	70962	11600.3584821098	0
0	70972	11602.213800030371	1
0	70973	11602.53185272496	0
0	71055	11619.641334379569	1
0	71056	11619.953224605816	0
0	71070	11622.202579873165	1
0	71071	11622.353458322236	0
0	71085	11625.464277418547	1
0	71087	11625.520110792472	2
0	71088	11625.574284077744	1
0	71091	11626.173539604881	0
0	71102	11627.35975014176	1
0	71103	11627.64769625201	0
0	71110	11628.459636358228	1
0	71111	11628.800327087735	0
0	71130	11630.573239124546	1
0	71132	11630.645406429482	2
0	71135	11631.503405755283	1
0	71140	11632.298366212463	0
0	71144	11632.648134343695	1
0	71145	11633.171923680408	0
0	71152	11633.873687920138	1
0	71153	11634.271796066491	0
0	71162	11635.228035709263	1
0	71165	11635.442829511725	0
0	71174	11636.790503693472	1
0	71175	11637.046104822625	0
0	71184	11638.172493313349	1
0	71185	11638.38001321353	0
0	71204	11640.469181274544	1
0	71207	11641.332501098597	0
0	71214	11642.102796371186	1
0	71219	11642.812835498098	0
0	71228	11644.054822127763	1
0	71229	11644.178603069614	0
0	71233	11644.430000447088	1
0	71236	11645.057756210481	0
0	71243	11645.910262834269	1
0	71245	11646.539925840701	2
0	71246	11646.820018827905	1
0	71251	11647.385288630136	0
0	71258	11648.618647135623	1
0	71259	11649.22810649638	0
0	71263	11649.729146727664	1
0	71264	11650.02285245968	0
0	71268	11650.22154865831	1
0	71269	11650.701659286758	0
0	71281	11652.448003756827	1
0	71282	11652.871336729769	0
0	71293	11653.718113888633	1
0	71294	11654.370269651376	0
0	71301	11655.196419102161	1
0	71304	11655.555477824565	0
0	71311	11656.4455945758	1
0	71314	11657.263560981201	0
0	71321	11658.326799648486	1
0	71324	11658.746167965969	0
0	71331	11659.992772412699	1
0	71332	11660.000169553039	0
0	71343	11661.042539980076	1
0	71344	11661.118510453858	0
0	71350	11661.516001448714	1
0	71353	11662.024965772767	0
0	71360	11662.790440614836	1
0	71362	11663.06099651675	2
0	71363	11663.350776578149	1
0	71368	11663.8563559926	0
0	71372	11664.124091500375	1
0	71373	11664.379640380701	0
0	71377	11664.713180236885	1
0	71378	11665.13303318423	0
0	71382	11665.31619441721	1
0	71385	11665.647791481426	0
0	71389	11666.126717959686	1
0	71390	11666.41850334782	0
0	71394	11666.458144130954	1
0	71395	11667.129150680907	0
0	71399	11667.349516146564	1
0	71400	11667.589327495813	0
0	71406	11667.849376202893	1
0	71407	11668.343038748799	0
0	71414	11668.821937395695	1
0	71416	11668.942752645483	2
0	71417	11669.200799252687	1
0	71420	11669.728285004234	0
0	71424	11670.130782815179	1
0	71427	11670.706094209373	0
0	71431	11670.785088258839	1
0	71432	11671.232568672847	0
0	71436	11671.298720121426	1
0	71437	11671.638625142293	0
0	71441	11672.206057557485	1
0	71442	11672.552106257517	0
0	71446	11672.925522570613	1
0	71447	11673.289475460013	0
0	71451	11673.719073934548	1
0	71452	11674.229106053419	0
0	71459	11675.260970586324	1
0	71460	11675.536156522518	0
0	71467	11676.621596214457	1
0	71468	11676.782784705272	0
0	71477	11677.421308515009	1
0	71478	11677.903432264075	0
0	71487	11678.701940508097	1
0	71488	11679.51972186853	0
0	71584	11694.565139244802	1
0	71587	11695.297430251202	0
0	71596	11695.9847947063	1
0	71597	11696.361895952922	0
0	71610	11697.548516751253	1
0	71613	11698.065175187298	0
0	71620	11698.923648646233	1
0	71621	11699.331398219931	0
0	71630	11700.518053017011	1
0	71631	11700.694760736487	0
0	71640	11701.538971025853	1
0	71643	11702.032413397021	0
0	71691	11709.667413515269	1
0	71694	11710.006823961936	0
0	71701	11710.79969400837	1
0	71702	11711.200356993857	0
0	71713	11712.440053427715	1
0	71714	11712.465640850026	0
0	71739	11714.525551663082	1
0	71742	11715.086846939927	0
0	71746	11715.098621243807	1
0	71751	11715.933082226837	0
0	71758	11716.788324596829	1
0	71760	11717.13136071186	2
0	71761	11717.203900614833	1
0	71764	11717.964170094193	0
0	71809	11724.202754309349	1
0	71814	11724.587608892364	0
0	71880	11732.54555488127	1
0	71881	11732.764598639341	0
0	71890	11733.875383895093	1
0	71891	11734.126552919469	0
0	71895	11734.198278978769	1
0	71898	11735.124856774726	0
0	71997	11749.337245458077	1
0	71998	11749.50151565972	0
0	72012	11751.180663234966	1
0	72013	11751.389885965951	0
0	72020	11751.876319176554	1
0	72022	11752.126908372835	2
0	72025	11752.593285660336	1
0	72029	11753.204388202244	2
0	72032	11753.527024387691	1
0	72035	11754.426997099101	0
0	72039	11755.083007613568	1
0	72044	11755.395184905623	0
0	72048	11755.439752316347	1
0	72053	11755.986292061285	0
0	72141	11768.950638088774	1
0	72146	11769.597597797057	0
0	72160	11771.384720793925	1
0	72161	11771.818172286526	0
0	72186	11776.365552868779	1
0	72189	11776.417543697618	0
0	72204	11777.134075934831	1
0	72207	11777.911324567748	0
0	72216	11778.956051726536	1
0	72217	11779.491643888392	0
0	72227	11781.450116524872	1
0	72230	11781.800728586438	0
0	72243	11783.136691842928	1
0	72244	11783.350779458025	0
0	72251	11783.846075201463	1
0	72252	11784.215448343411	0
0	72256	11784.30045145519	1
0	72257	11784.775634595269	0
0	72261	11785.055027325838	1
0	72264	11785.647216269543	0
0	72268	11785.927748144759	1
0	72269	11786.620743450924	0
0	72273	11786.674223947498	1
0	72274	11787.341357258178	0
0	72281	11788.116736242663	1
0	72282	11788.872907388287	0
0	72289	11789.582461175586	1
0	72290	11790.308411870461	0
0	72297	11791.525948601097	1
0	72298	11791.828161967762	0
0	72307	11792.609497273692	1
0	72308	11793.355606219948	0
0	72317	11794.026090885236	1
0	72318	11794.498442231708	0
0	72327	11795.751525181222	1
0	72328	11795.789912117723	0
0	72335	11796.80713281788	1
0	72336	11796.909769716238	0
0	72343	11797.763801214443	1
0	72346	11798.192917298742	0
0	72358	11800.221189571116	1
0	72359	11800.794945185057	0
0	72604	11836.383122744289	1
0	72605	11836.72776391389	0
0	72618	11837.744341564409	1
0	72619	11838.106429716844	0
0	72628	11838.736046633336	1
0	72629	11839.338507492367	0
0	72643	11841.443089851573	1
0	72646	11841.630984942934	0
0	72653	11842.222011783775	1
0	72654	11842.617780015238	0
0	72663	11843.716289050861	1
0	72664	11844.024098583444	0
0	72673	11845.796317237437	1
0	72674	11845.906778846069	0
0	72683	11847.171651219517	1
0	72684	11847.75452440413	0
0	72693	11848.472857021806	1
0	72694	11849.066340270026	0
0	72703	11850.020262649748	1
0	72704	11850.199610594746	0
0	72721	11852.646169258578	1
0	72722	11853.066160038199	0
0	72730	11853.440556633551	1
0	72731	11853.78234528144	0
0	72735	11853.814878624011	1
0	72736	11854.605162824915	0
0	72743	11855.747316764349	1
0	72744	11855.895567434459	0
0	72748	11856.479362962532	1
0	72749	11856.695833991879	0
0	72755	11856.97719509355	1
0	72756	11857.253840854477	0
0	72760	11857.267060159653	1
0	72761	11858.18142075468	0
0	72771	11859.497285130638	1
0	72773	11859.575694901891	2
0	72776	11860.177491232652	1
0	72779	11861.046844462717	0
0	72791	11862.045653641729	1
0	72792	11862.742421673929	0
0	72931	11883.548569858745	1
0	72932	11883.673127591185	0
0	72939	11884.527478874552	1
0	72941	11884.644369395821	2
0	72942	11885.069500930555	1
0	72945	11886.014747677225	0
0	72949	11886.406367821625	1
0	72950	11886.637136421719	0
0	72985	11892.51288610394	1
0	72990	11893.134141137166	0
0	72999	11894.27109034618	1
0	73001	11894.390537196415	2
0	73002	11894.530101811275	1
0	73005	11895.464322417177	0
0	73009	11895.85045320793	1
0	73012	11895.957350317895	0
0	73043	11900.369340094188	1
0	73046	11900.611822469526	0
0	73064	11902.914063371582	1
0	73065	11903.314960409648	0
0	73071	11903.890831725495	1
0	73074	11904.082581878401	0
0	73081	11905.172037824597	1
0	73087	11905.5694415477	2
0	73088	11905.743729706987	1
0	73091	11906.55418388475	0
0	73098	11907.074777328685	1
0	73099	11907.589078191149	0
0	73112	11908.391489070631	1
0	73113	11908.929924727691	0
0	73125	11909.997217788737	1
0	73126	11910.361090761045	0
0	73246	11927.673413831843	1
0	73249	11928.279680893893	0
0	73278	11932.083982377932	1
0	73279	11932.135633526274	0
0	73291	11933.978129882669	1
0	73294	11934.374475828602	0
0	73303	11935.364481583344	1
0	73309	11935.954549059311	2
0	73310	11936.043707430174	1
0	73315	11936.941147888589	0
0	73319	11937.087393998153	1
0	73320	11937.608115146679	0
0	73324	11937.625924947551	1
0	73325	11938.356569619102	0
0	73329	11938.48100627917	1
0	73330	11939.067890701161	0
0	73334	11939.101790421966	1
0	73337	11939.547384303573	0
0	73341	11939.617946486613	1
0	73342	11940.114250987859	0
0	73349	11940.880971333486	1
0	73351	11941.249474222813	2
0	73352	11941.51393779204	1
0	73355	11942.47394281253	0
0	73366	11943.576797920725	1
0	73367	11944.326351044511	0
0	73376	11945.410960706808	1
0	73377	11946.097256077312	0
0	73386	11947.712628146168	1
0	73387	11947.765762939302	0
0	73393	11948.433319079848	1
0	73396	11948.64755529491	0
0	73400	11948.729172001749	1
0	73401	11949.628388402376	0
0	73408	11950.252610878504	1
0	73410	11950.542577823405	2
0	73411	11951.11413236805	1
0	73416	11952.083275783618	0
0	73420	11952.105612046293	1
0	73421	11952.546478751252	0
0	73425	11952.642923637416	1
0	73426	11953.236262055902	0
0	73433	11954.605803271412	1
0	73434	11954.829963825221	0
0	73443	11955.795009142073	1
0	73444	11956.44428848121	0
0	73455	11957.639830560041	1
0	73456	11958.170407198227	0
0	73465	11958.752746786914	1
0	73466	11959.364251101806	0
0	73566	11974.91184066417	1
0	73567	11975.084137618215	0
0	73579	11977.421097741843	1
0	73582	11977.635821827547	0
0	73591	11978.224179804724	1
0	73594	11979.161545332148	0
0	73605	11980.201932747272	1
0	73606	11980.694445991236	0
0	73623	11983.167517166005	1
0	73624	11983.478128136367	0
0	73633	11984.881116184378	1
0	73634	11984.890917109557	0
0	73645	11985.86458884106	1
0	73646	11986.140750794996	0
0	73656	11987.671614602418	1
0	73657	11988.332003020401	0
0	73664	11989.508677715194	1
0	73665	11989.627896844874	0
0	73697	11994.49307989341	1
0	73704	11994.757938025984	0
0	73885	12020.972677047467	1
0	73886	12021.313322516344	0
0	73897	12022.52147360555	1
0	73900	12022.963839903334	0
0	73910	12024.437221398718	1
0	73917	12025.253475030417	0
0	73924	12025.962254703494	1
0	73926	12025.970040469913	2
0	73928	12026.394053552724	3
0	73929	12026.568367441882	2
0	73934	12027.508573270914	1
0	73938	12027.725951685	2
0	73939	12028.157533002737	1
0	73943	12028.182549964077	2
0	73944	12028.759164126496	1
0	73948	12029.225007664568	2
0	73949	12029.469100966304	1
0	73952	12030.297400088654	0
0	73956	12030.680733142405	1
0	73958	12030.751919186373	2
0	73959	12030.845232087606	1
0	73962	12031.417404829384	0
0	73966	12031.695855877465	1
0	73967	12032.171120173716	0
0	73971	12032.222903766027	1
0	73972	12032.721710438094	0
0	73976	12032.798755123417	1
0	73978	12032.920827066889	2
0	73979	12033.47710355264	1
0	73983	12034.338302043633	2
0	73984	12034.469402321613	1
0	73990	12035.083135959813	2
0	73991	12035.166659809694	1
0	73994	12035.607776794255	0
0	73998	12035.743111200202	1
0	74001	12036.519157485988	0
0	74005	12036.923756919241	1
0	74006	12037.125041809676	0
0	74015	12037.914508799251	1
0	74016	12038.330984705638	0
0	74020	12038.38203399749	1
0	74022	12038.465764413599	2
0	74023	12039.116413748542	1
0	74029	12039.237863653581	2
0	74030	12039.565862718688	1
0	74033	12040.358068238476	0
0	74037	12040.72748629513	1
0	74038	12040.890769355742	0
0	74042	12040.909120464875	1
0	74043	12041.62033703774	0
0	74047	12041.798476060891	1
0	74050	12042.331997376911	0
0	74054	12042.558344875299	1
0	74055	12042.811950575418	0
0	74059	12042.91171216708	1
0	74060	12043.599198826307	0
0	74064	12043.684274063826	1
0	74065	12044.511279239317	0
0	74069	12045.100710128237	1
0	74070	12045.378539446413	0
0	74077	12046.143394503511	1
0	74079	12046.251080686575	2
0	74080	12046.922511093362	1
0	74085	12047.814553637287	0
0	74089	12048.078556718131	1
0	74090	12048.464856967094	0
0	74094	12048.624891956098	1
0	74095	12049.184226782291	0
0	74112	12051.357747718892	1
0	74113	12052.00843764585	0
0	74124	12053.215929204044	1
0	74125	12053.869452291816	0
0	74132	12054.621779312753	1
0	74133	12055.33419317286	0
0	74142	12055.880972676527	1
0	74143	12056.342195060612	0
0	74154	12057.216439294292	1
0	74155	12057.762786417078	0
0	74162	12058.60454312761	1
0	74163	12059.120859484463	0
0	74175	12060.657686970027	1
0	74178	12061.410504794023	0
0	74187	12062.539478556059	1
0	74188	12063.316678871582	0
0	74200	12065.104816866989	1
0	74203	12065.518966240757	0
0	74212	12066.164954016063	1
0	74213	12066.443294609007	0
0	74222	12067.676573237135	1
0	74223	12067.857796380524	0
0	74232	12068.574482593893	1
0	74233	12069.43679731511	0
0	74242	12070.891698913503	1
0	74243	12071.31415261989	0
0	74264	12075.173390886638	1
0	74265	12075.459730591994	0
0	74279	12077.412355494787	1
0	74280	12077.776420126945	0
0	74287	12078.871004158156	1
0	74288	12078.871550296523	0
0	74301	12079.731109869159	1
0	74304	12080.210137577398	0
0	74311	12081.079978928416	1
0	74312	12081.258545428511	0
0	74352	12087.046698945005	1
0	74355	12087.159693036878	0
0	74364	12088.047996443016	1
0	74365	12088.219477882793	0
0	74376	12089.051804109354	1
0	74378	12089.266426047918	2
0	74379	12089.656437465174	1
0	74382	12090.239058249256	0
0	74393	12091.337664220231	1
0	74394	12091.446382504095	0
0	74401	12092.232441912216	1
0	74402	12092.773637214116	0
0	74448	12099.143943399244	1
0	74449	12099.719878385216	0
0	74460	12100.297069909133	1
0	74462	12100.584733070726	2
0	74463	12100.844151935214	1
0	74469	12101.196882357695	2
0	74470	12101.710156455124	1
0	74473	12102.246119383723	0
0	74477	12102.486048129949	1
0	74479	12102.728366858607	2
0	74481	12102.735300348266	3
0	74482	12102.885026340886	2
0	74486	12103.143498366301	3
0	74487	12103.582756968542	2
0	74490	12104.576093950077	1
0	74494	12104.916565660577	2
0	74495	12105.112461694843	1
0	74499	12105.11592493787	2
0	74500	12106.050973317587	1
0	74503	12106.72213563216	0
0	74507	12107.234241619477	1
0	74508	12107.45801592758	0
0	74512	12107.53739156411	1
0	74513	12108.282112528664	0
0	74517	12108.512370541927	1
0	74518	12109.120276661404	0
0	74522	12109.352565570616	1
0	74523	12109.806846966176	0
0	74530	12111.398551882359	1
0	74532	12111.541989147457	2
0	74533	12111.672386476119	1
0	74536	12112.519997321908	0
0	74540	12112.677342080741	1
0	74541	12113.026214966737	0
0	74545	12113.190133783201	1
0	74546	12113.723640673049	0
0	74550	12114.02540406287	1
0	74551	12114.383758390462	0
0	74555	12114.537256681985	1
0	74556	12115.335455994122	0
0	74560	12115.38021267316	1
0	74561	12115.789338071831	0
0	74567	12115.846339221872	1
0	74569	12115.99852346952	2
0	74571	12116.007367549956	3
0	74572	12116.319333645702	2
0	74576	12116.869552955206	3
0	74577	12116.89121149662	2
0	74581	12116.938329118798	3
0	74582	12117.427766348236	2
0	74585	12118.248947137921	1
0	74589	12118.431335623337	2
0	74590	12119.022890690389	1
0	74594	12119.055001806282	2
0	74599	12119.673595881044	1
0	74602	12120.393842717541	0
0	74606	12120.885181842601	1
0	74607	12121.359358762113	0
0	74619	12122.804459165411	1
0	74620	12123.535508772778	0
0	74627	12124.614653413593	1
0	74630	12125.323255150393	0
0	74644	12127.271774997058	1
0	74645	12127.398661427339	0
0	74654	12128.71244480718	1
0	74655	12128.816039965953	0
0	74674	12131.487098820598	1
0	74675	12131.614295747922	0
0	74684	12132.535034276759	1
0	74685	12132.734556540008	0
0	74694	12133.71108140744	1
0	74695	12134.205111798085	0
0	74708	12135.397188473726	1
0	74709	12135.827818190027	0
0	74718	12136.399957833367	1
0	74719	12136.8639919871	0
0	74809	12151.338936724482	1
0	74812	12152.066968506482	0
0	74821	12152.98699950616	1
0	74824	12153.304907232803	0
0	74833	12154.073836128046	1
0	74834	12154.745121216914	0
0	74865	12158.984150151566	1
0	74866	12159.385186576518	0
0	74877	12160.213600211835	1
0	74878	12160.568074700097	0
0	74885	12161.252650673982	1
0	74888	12162.14192092293	0
0	74897	12163.489169641642	1
0	74898	12163.502426239243	0
0	74908	12165.157990717297	1
0	74909	12165.256384855835	0
0	74916	12165.958377295935	1
0	74917	12166.587039957708	0
0	74921	12167.332112097813	1
0	74922	12167.35697720591	0
0	74931	12168.524688599832	1
0	74932	12168.96454638755	0
0	74939	12169.920409827585	1
0	74942	12170.388175846963	0
0	74955	12172.111687581909	1
0	74959	12172.583248566503	2
0	74962	12172.946113396064	1
0	74967	12173.906579154265	0
0	74971	12173.912813582265	1
0	74972	12174.567350340635	0
0	74976	12174.681970099328	1
0	74977	12175.067360529304	0
0	74984	12175.586572098565	1
0	74985	12176.03362896964	0
0	75007	12179.234254629373	1
0	75010	12179.677042004932	0
0	75019	12180.533397881836	1
0	75020	12181.357506928919	0
0	75024	12181.603971645834	1
0	75025	12182.090957182925	0
0	75032	12183.270506189917	1
0	75033	12183.426754801441	0
0	75040	12184.204014233171	1
0	75044	12184.63112109643	2
0	75045	12184.756244057417	1
0	75048	12185.342781187268	0
0	75057	12186.154499620489	1
0	75060	12186.63583826907	0
0	75069	12187.63468913557	1
0	75070	12188.332880193741	0
0	75079	12189.529592764113	1
0	75080	12189.545805770904	0
0	75087	12190.632638178078	1
0	75088	12190.988284408906	0
0	75162	12201.222268661046	1
0	75165	12201.587847496941	0
0	75174	12202.232114587229	1
0	75175	12202.594267109362	0
0	75184	12204.057230919286	1
0	75185	12204.225803831405	0
0	75194	12204.726850453535	1
0	75195	12205.32610759898	0
0	75204	12206.210506439157	1
0	75205	12206.530413469858	0
0	75212	12207.317662851088	1
0	75213	12207.832341035129	0
0	75275	12219.88497488613	1
0	75276	12219.928135245203	0
0	75420	12240.639813413603	1
0	75423	12241.326291292227	0
0	75427	12241.854519133877	1
0	75430	12241.904623464654	0
0	75436	12242.348869782458	1
0	75437	12242.357337005176	0
0	75441	12242.367814077052	1
0	75442	12242.766884106463	0
0	75446	12242.789947252948	1
0	75447	12243.231388452016	0
0	75455	12243.883215498105	1
0	75458	12244.208544458654	0
0	75467	12244.991524112246	1
0	75468	12245.62115208881	0
0	75475	12246.449574368229	1
0	75476	12246.791976096267	0
0	75492	12249.298734723067	1
0	75493	12250.272735659377	0
0	75500	12251.210679673891	1
0	75503	12252.030356662832	0
0	75510	12253.510092130025	1
0	75511	12253.605453468691	0
0	75528	12255.85883779271	1
0	75531	12256.666009292956	0
0	75538	12257.211286575599	1
0	75541	12258.08025154762	0
0	75545	12258.136840198148	1
0	75546	12258.481208282076	0
0	75554	12258.711427895376	1
0	75557	12259.286978817331	0
0	75564	12260.432606078168	1
0	75567	12260.810495094415	0
0	75574	12261.492981243219	1
0	75577	12262.091620920245	0
0	75586	12263.37050517718	1
0	75587	12263.675590524376	0
0	75594	12264.781601930731	1
0	75597	12265.201850899515	0
0	75604	12266.479467992046	1
0	75605	12266.798366701297	0
0	75614	12267.784653023583	1
0	75617	12268.514554540134	0
0	75624	12270.025438831865	1
0	75625	12270.093401529753	0
0	75636	12271.114145774031	1
0	75637	12271.451307344922	0
0	75646	12272.572663046395	1
0	75647	12272.838088083519	0
0	75654	12273.819332514648	1
0	75656	12273.849201929696	2
0	75657	12274.187314163447	1
0	75662	12275.158347309959	0
0	75668	12275.476434696181	1
0	75669	12276.019575857204	0
0	75673	12276.135674248982	1
0	75676	12276.802443791573	0
0	75688	12278.44664254999	1
0	75692	12279.039786618894	2
0	75693	12279.077098699306	1
0	75698	12279.914067586484	0
0	75702	12279.946963473676	1
0	75703	12280.366559374119	0
0	75710	12281.206386596981	1
0	75711	12281.598901473797	0
0	75739	12286.498435034645	1
0	75744	12287.313358727862	0
0	75756	12288.605030063499	1
0	75758	12288.942478928489	2
0	75759	12288.960754763214	1
0	75762	12289.403798084585	0
0	75768	12289.842168882811	1
0	75769	12290.192191902613	0
0	75778	12290.831868812019	1
0	75780	12290.846400363219	2
0	75781	12291.138861130988	1
0	75786	12292.036720445398	0
0	75790	12292.281588345671	1
0	75791	12292.991058141663	0
0	75795	12293.018438274703	1
0	75796	12293.871930625308	0
0	75800	12294.47144099895	1
0	75801	12294.726166912513	0
0	75805	12294.753246573883	1
0	75806	12295.212737176959	0
0	75810	12295.471638949363	1
0	75811	12295.677798254528	0
0	75823	12297.052244052441	1
0	75825	12297.356702415069	2
0	75826	12297.629110723241	1
0	75829	12298.428483876652	0
0	75833	12298.59405545381	1
0	75834	12298.885946273963	0
0	75844	12300.058786507162	1
0	75845	12300.525178257815	0
0	75852	12301.315139723107	1
0	75853	12301.615785401707	0
0	75862	12302.682104837751	1
0	75863	12303.385243566447	0
0	75874	12304.512912864012	1
0	75875	12304.764543887015	0
0	75912	12309.672248835945	1
0	75913	12309.982864415294	0
0	75927	12311.459753936017	1
0	75928	12311.865418616703	0
0	75939	12312.70772719864	1
0	75940	12313.152023436289	0
0	75981	12319.646791927266	1
0	75982	12319.757109798886	0
0	75991	12320.590544692735	1
0	75992	12320.822944978274	0
0	75999	12321.497505649042	1
0	76002	12322.451909112067	0
0	76009	12323.29723852278	1
0	76012	12323.484893221849	0
0	76042	12328.102290325516	1
0	76045	12328.904195427451	0
0	76052	12329.987497294617	1
0	76053	12330.28339680021	0
0	76140	12354.382438005755	1
0	76141	12354.438251415378	0
0	76196	12360.93106892601	1
0	76197	12361.444250525367	0
0	76206	12362.315906017383	1
0	76207	12362.764587816243	0
0	76227	12366.351672154102	1
0	76230	12367.088699004121	0
0	76247	12369.420088062361	1
0	76248	12369.862236369096	0
0	76255	12370.714200228766	1
0	76256	12370.877262006162	0
0	76272	12373.620696006091	1
0	76273	12374.139475456665	0
0	76420	12410.436876910978	1
0	76421	12410.692822826996	0
0	76587	12441.623973591647	1
0	76590	12442.252830563213	0
0	76662	12454.907737521833	1
0	76663	12455.196998868851	0
0	76672	12456.204082027648	1
0	76674	12456.626227459161	2
0	76675	12456.673308731351	1
0	76678	12457.579686114626	0
0	76682	12457.660821356523	1
0	76685	12458.376383892648	0
0	76689	12458.776430844558	1
0	76690	12458.81542613126	0
0	76694	12458.898673357525	1
0	76695	12459.639247464637	0
0	76702	12460.61723542577	1
0	76705	12460.891760530198	0
0	76714	12462.140983355933	1
0	76715	12462.149658449987	0
0	76815	12484.35524132698	1
0	76816	12484.537044857272	0
0	76825	12485.411338445357	1
0	76828	12486.248506871147	0
0	76837	12487.204763735452	1
0	76838	12487.207139443096	0
0	76845	12487.855519462858	1
0	76850	12488.399110171247	0
0	76940	12503.308908751517	1
0	76941	12503.354574692693	0
0	76947	12503.662839532015	1
0	76948	12503.81210244063	0
0	76959	12504.854425709689	1
0	76962	12505.138074268658	0
0	76966	12505.359995770922	1
0	76969	12505.883892820986	0
0	76978	12506.761861816835	1
0	76979	12507.249089630577	0
0	76988	12508.180213494953	1
0	76989	12508.507197564818	0
0	76998	12509.786289516464	1
0	77000	12509.955905242235	2
0	77001	12510.266374705476	1
0	77006	12510.804700077954	0
0	77010	12511.162107110093	1
0	77011	12511.442315966799	0
0	77018	12512.043431298579	1
0	77019	12512.6808204178	0
0	77025	12512.881988434582	1
0	77026	12513.146333882748	0
0	77030	12513.634432921431	1
0	77032	12513.675012950662	2
0	77033	12513.843916179216	1
0	77037	12514.464943924514	2
0	77038	12514.62021936092	1
0	77041	12515.449107040394	0
0	77045	12515.704494577723	1
0	77046	12515.927010280894	0
0	77050	12515.971726586036	1
0	77051	12516.804009187011	0
0	77055	12516.972772029953	1
0	77056	12517.440579234924	0
0	77060	12517.518260415235	1
0	77062	12517.585726260517	2
0	77063	12517.896601035096	1
0	77066	12518.379856206266	0
0	77070	12518.487822496517	1
0	77071	12519.320040524401	0
0	77075	12519.368047971903	1
0	77077	12519.4357284	2
0	77078	12519.77889531746	1
0	77082	12520.642092693144	2
0	77083	12520.68691518174	1
0	77087	12520.70751957481	2
0	77088	12521.498237327649	1
0	77091	12522.047330580209	0
0	77095	12522.153255474279	1
0	77096	12522.982814496639	0
0	77100	12523.689644639899	1
0	77101	12523.901689746813	0
0	77105	12524.512888978053	1
0	77106	12524.782382644131	0
0	77151	12530.776068861762	1
0	77152	12531.503184422129	0
0	77159	12532.600547201374	1
0	77160	12532.950372475736	0
0	77172	12534.76709250021	1
0	77175	12535.491785930913	0
0	77182	12536.589572736107	1
0	77185	12537.030979567977	0
0	77197	12538.417578930066	1
0	77203	12539.133440923833	2
0	77204	12539.275209886885	1
0	77207	12539.87935976179	0
0	77211	12539.920228897457	1
0	77212	12540.66249239708	0
0	77216	12541.039433373354	1
0	77217	12541.127616737482	0
0	77226	12542.236301045475	1
0	77228	12542.268691482686	2
0	77229	12542.495902327566	1
0	77234	12543.359149241426	0
0	77238	12543.973518429357	1
0	77239	12544.278377266626	0
0	77243	12544.609800389846	1
0	77244	12544.820055723774	0
0	77251	12545.819644811462	1
0	77252	12546.146643567483	0
0	77261	12547.186640766634	1
0	77262	12547.272615604128	0
0	77419	12571.844249782703	1
0	77420	12572.306070449678	0
0	77433	12573.87616792147	1
0	77434	12573.909398255739	0
0	77440	12574.066794627833	1
0	77441	12574.393367133112	0
0	77469	12578.630648721574	1
0	77472	12578.975894198622	0
0	77481	12580.49631110447	1
0	77482	12580.742120122267	0
0	77486	12581.01582721813	1
0	77489	12581.433312338507	0
0	77493	12581.535218630896	1
0	77494	12581.996708994648	0
0	77501	12583.714719242377	1
0	77502	12583.817031941387	0
0	77506	12583.865804822422	1
0	77509	12584.343535309016	0
0	77513	12584.503168224159	1
0	77514	12585.250362771853	0
0	77565	12594.496472259716	1
0	77566	12594.764904965578	0
0	77579	12595.455276523837	1
0	77580	12595.784878703557	0
0	77587	12596.53252729329	1
0	77590	12597.090513663111	0
0	77665	12613.767537979529	1
0	77666	12614.101537514422	0
0	77957	12664.94663166399	1
0	77958	12665.095759274538	0
0	77965	12666.028589695839	1
0	77968	12666.745279538871	0
0	77977	12667.66984365964	1
0	77980	12667.920907585935	0
0	77989	12668.935038515095	1
0	77991	12669.376092263177	2
0	77992	12669.556109537238	1
0	77996	12669.634305392524	2
0	77997	12670.331022070821	1
0	78001	12670.418560042348	2
0	78004	12671.189708845744	1
0	78008	12671.296147336448	2
0	78009	12671.8368309917	1
0	78012	12672.314139720572	0
0	78019	12673.025880589812	1
0	78021	12673.135056636197	2
0	78022	12673.847541449273	1
0	78025	12674.428249876022	0
0	78034	12675.182292518896	1
0	78035	12675.915720534006	0
0	78046	12676.819668148595	1
0	78047	12677.175715808671	0
0	78056	12677.766863494313	1
0	78057	12678.565739287397	0
0	78066	12679.335031938137	1
0	78067	12680.220381293687	0
0	78076	12681.154694681251	1
0	78077	12681.872478103506	0
0	78160	12695.962394697833	1
0	78161	12696.112093257093	0
0	78172	12696.852490962608	1
0	78179	12697.446264261827	0
0	78188	12698.454013353236	1
0	78189	12699.270143570453	0
0	78198	12700.192599846368	1
0	78200	12700.561985134234	2
0	78201	12700.744569302798	1
0	78206	12701.594586672197	0
0	78216	12703.050220019487	1
0	78219	12703.718416737655	0
0	78231	12706.01649216741	1
0	78232	12706.202656290709	0
0	78246	12708.313639394965	1
0	78247	12708.362991554179	0
0	78258	12709.547233800022	1
0	78259	12709.776913502096	0
0	78268	12710.935125149872	1
0	78269	12711.035363325506	0
0	78276	12711.971764572674	1
0	78279	12712.744618902804	0
0	78291	12714.007557657202	1
0	78294	12714.579948855454	0
0	78301	12715.411062998297	1
0	78302	12715.993598697318	0
0	78313	12716.830596800857	1
0	78314	12717.645318000747	0
0	78321	12718.775208878136	1
0	78322	12719.123833886005	0
0	78333	12720.126687523736	1
0	78334	12720.943886754831	0
0	78378	12726.001086085264	1
0	78381	12726.774452382216	0
0	78390	12727.765369592786	1
0	78391	12728.22093980944	0
0	78400	12729.600854647471	1
0	78401	12729.666147710506	0
0	78413	12730.945133558831	1
0	78416	12731.328395342811	0
0	78427	12732.334799129923	1
0	78428	12732.932372915822	0
0	78439	12733.754462887786	1
0	78440	12734.170655719128	0
0	78452	12735.536306518152	1
0	78453	12736.213770927845	0
0	78462	12737.277626778252	1
0	78463	12737.585898856383	0
0	78472	12738.613275790074	1
0	78475	12739.386806994986	0
0	78486	12740.088998020237	1
0	78487	12740.806413295802	0
0	78496	12741.433907263909	1
0	78497	12742.185120486359	0
0	78506	12743.401121570407	1
0	78507	12743.625270634175	0
0	78609	12761.527120118048	1
0	78611	12761.905643336967	2
0	78612	12762.086111914308	1
0	78617	12762.876276121742	0
0	78621	12762.997546875031	1
0	78624	12763.806773069116	0
0	78631	12765.025786679354	1
0	78633	12765.045405539692	2
0	78634	12765.337419099628	1
0	78641	12766.179136519355	0
0	78645	12766.281752115796	1
0	78646	12766.741544271295	0
0	78650	12766.965258390313	1
0	78651	12767.159791537735	0
0	78655	12767.741201608283	1
0	78656	12767.894393384212	0
0	78663	12769.193969274032	1
0	78664	12769.308388852037	0
0	78671	12770.165659587147	1
0	78674	12770.498349498527	0
0	78681	12771.418628680905	1
0	78684	12771.968719709607	0
0	78693	12772.38061417828	1
0	78694	12773.241228096455	0
0	78701	12773.805192265841	1
0	78702	12774.594254769047	0
0	78730	12779.167361710513	1
0	78731	12779.174688684184	0
0	78820	12809.571193812542	1
0	78821	12810.419498796294	0
0	78830	12812.246727798213	1
0	78833	12812.552504003781	0
0	78837	12813.007254901277	1
0	78838	12813.104818041471	0
0	78945	12846.108448062399	1
0	78946	12846.524217790262	0
0	78955	12847.332982103842	1
0	78956	12848.088419173648	0
0	79040	12871.166793438647	1
0	79041	12871.807399096015	0
0	79050	12872.332653922075	1
0	79051	12872.99684498706	0
0	79125	12904.8664044349	1
0	79126	12904.927889272225	0
0	79150	12908.408336634702	1
0	79151	12908.646709629426	0
0	79160	12909.689178137893	1
0	79161	12910.170805504917	0
0	79165	12910.183654484681	1
0	79168	12910.843860037903	0
0	79172	12911.283915126075	1
0	79173	12911.447878131828	0
0	79182	12912.463203752676	1
0	79185	12913.302210377156	0
0	79194	12913.904276974007	1
0	79195	12914.881038832151	0
0	79206	12915.543834036693	1
0	79207	12915.991901669557	0
0	79216	12916.881086475027	1
0	79217	12917.454061008243	0
0	79237	12921.361813393818	1
0	79238	12921.569324104953	0
0	79265	12926.572111656833	1
0	79266	12927.212451168961	0
0	79275	12928.321298645059	1
0	79276	12928.980896774629	0
0	79295	12931.739567851381	1
0	79296	12932.167875007247	0
0	79305	12932.969149444725	1
0	79307	12933.343607767276	2
0	79308	12933.356223093612	1
0	79313	12934.251840183545	0
0	79317	12934.299186319653	1
0	79318	12935.192470993368	0
0	79324	12935.422750233237	1
0	79325	12935.696555256784	0
0	79329	12935.703300735675	1
0	79330	12936.377375925645	0
0	79342	12938.151846144955	1
0	79343	12938.425221481254	0
0	79349	12939.003145985094	1
0	79350	12939.289768196257	0
0	79357	12940.062326948934	1
0	79359	12940.090637689064	2
0	79360	12940.637495568288	1
0	79365	12941.405138218529	0
0	79369	12941.417333851542	1
0	79370	12942.302389617111	0
0	79374	12942.428646209036	1
0	79375	12942.810704767411	0
0	79379	12942.862097779086	1
0	79380	12943.291910482929	0
0	79384	12943.840223755205	1
0	79385	12944.191319092675	0
0	79487	12967.59179736521	1
0	79488	12967.660506516352	0
0	79497	12968.346207333816	1
0	79498	12968.5093988112	0
0	79510	12970.390052787765	1
0	79515	12970.869126432325	0
0	79522	12971.427302189587	1
0	79523	12971.702750841045	0
0	79527	12971.814390771796	1
0	79531	12972.228400265861	2
0	79536	12972.359486971126	1
0	79539	12972.893728472368	0
0	79587	12981.234144432624	1
0	79588	12981.23936417306	0
0	79597	12982.185961908774	1
0	79598	12982.42955052646	0
0	79612	12984.072805324622	1
0	79614	12984.390620521226	2
0	79615	12984.598753228959	1
0	79618	12985.132130352443	0
0	79624	12985.665435063345	1
0	79625	12986.07566355354	0
0	79629	12986.614993408905	1
0	79630	12987.003270989552	0
0	79634	12987.094506196332	1
0	79635	12987.428910939664	0
0	79639	12987.550875983921	1
0	79640	12988.011630605197	0
0	79649	12988.773686231708	1
0	79650	12989.416204771249	0
0	79657	12990.193514905159	1
0	79658	12990.704456900096	0
0	79665	12991.371716660364	1
0	79669	12991.860312572732	2
0	79670	12992.07178190857	1
0	79674	12992.285886378462	2
0	79677	12993.053500035906	1
0	79680	12993.881213827466	0
0	79684	12994.047186093246	1
0	79685	12994.525486756943	0
0	79692	12995.909478792508	1
0	79693	12996.157991485147	0
0	79704	12997.388081298723	1
0	79705	12997.584532926547	0
0	79714	12998.872946862068	1
0	79715	12999.088846838604	0
0	79742	13003.639844883268	1
0	79745	13003.860222870055	0
0	79754	13004.577920066426	1
0	79755	13005.406094438386	0
0	79762	13006.568437684392	1
0	79765	13007.257671196329	0
0	79769	13007.380114106266	1
0	79772	13007.87176965311	0
0	79779	13008.622639949745	1
0	79782	13009.31940600219	0
0	79786	13009.589207082352	1
0	79787	13009.852067744767	0
0	79791	13010.19073726115	1
0	79792	13010.83155673513	0
[...]
9	140628	22583.436341531451	0
9	140721	22596.429046219426	1
9	140723	22596.588119157362	0
9	140739	22599.498906821224	1
9	140741	22599.528039935427	0
9	140784	22605.974284549362	1
9	140786	22606.016717614502	0
9	141170	22661.27303959036	1
9	141172	22661.831161032669	0
9	141175	22661.89723034038	1
9	141177	22662.260147466021	0
9	141180	22662.348522225886	1
9	141182	22662.566286357605	0
9	141185	22662.987618261042	1
9	141187	22663.773794407238	0
9	141190	22663.853692233262	1
9	141192	22664.49521514907	0
9	141195	22664.536499553991	1
9	141199	22665.189891763408	0
9	141202	22665.267575343351	1
9	141204	22665.35897255897	0
9	141678	22735.263433956237	1
9	141680	22735.316879326421	0
9	141724	22740.455987318487	1
9	141726	22740.807121003859	0
9	141771	22747.139115466665	1
9	141773	22747.521151717729	0
9	141776	22747.606136146442	1
9	141778	22748.012230670042	0
9	141831	22755.311187572613	1
9	141833	22755.454758045825	0
9	141839	22756.887463320534	1
9	141843	22757.114252155694	0
9	141909	22766.747988956723	1
9	141911	22767.273018959563	0
9	142869	22930.300831575582	1
9	142871	22930.518422463679	0
9	143810	23088.530023570222	1
9	143812	23088.866088029083	0
9	144800	23310.743106210398	1
9	144801	23310.984211157954	0
9	144832	23315.81147717884	1
9	144834	23316.446746306668	0
9	144880	23323.447692503838	1
9	144881	23323.565375777046	0
9	144917	23339.466978072728	1
9	144919	23339.494071376908	0
9	145119	23366.652168765196	1
9	145126	23368.147187777113	0
9	145503	23420.364465111636	1
9	145505	23420.54224147065	0
9	145511	23421.678593240494	1
9	145513	23421.724952201554	0
9	145709	23450.082049766324	1
9	145711	23450.145179185383	0
9	145745	23454.459876850714	1
9	145747	23454.918212946332	0
9	145755	23455.876892812086	1
9	145757	23456.619261499581	0
9	146327	23542.146539557158	1
9	146329	23542.335564008995	0
9	146384	23547.676563532829	1
9	146391	23549.146277878837	0
9	146399	23550.047256238286	1
9	146407	23551.502268165857	0
9	146675	23587.66095395986	1
9	146677	23588.242187954881	0
9	147229	23666.594962780729	1
9	147231	23666.697170652032	0
9	147391	23691.477306743794	1
9	147393	23691.761111418054	0
9	148095	23794.366970743581	1
9	148099	23794.743446890162	0
9	148141	23800.09825484256	1
9	148143	23800.576299837872	0
9	148146	23800.656451991403	1
9	148148	23801.366743269747	0
9	148159	23802.737752930744	1
9	148163	23803.397661642801	0
9	148166	23803.41639642177	1
9	148168	23803.663964332595	0
9	148185	23805.050573855377	1
9	148187	23805.312959552972	0
9	148203	23808.167545858555	1
9	148205	23808.225568535648	0
9	148282	23818.480156531108	1
9	148284	23818.511401482606	0
9	148315	23823.675718122412	1
9	148318	23824.172936156922	2
9	148323	23824.795764253185	1
9	148325	23825.14442162071	0
9	148762	23886.937080956979	1
9	148764	23886.95465045756	0
9	149010	23923.878743868911	1
9	149014	23923.922507166722	0
9	149106	23936.175998709985	1
9	149108	23936.414755059211	0
9	149128	23939.003554400225	1
9	149130	23939.237904361732	0
9	149183	23946.964091221181	1
9	149185	23947.392558513625	0
9	149188	23947.662660683303	1
9	149190	23947.683882942196	0
9	149208	23950.398526867184	1
9	149210	23950.720830952568	0
9	149218	23952.15891194193	1
9	149220	23952.18553331176	0
9	149238	23955.327024378006	1
9	149240	23955.692250992057	0
9	149243	23955.774457628962	1
9	149245	23955.876557423912	0
9	149296	23963.895568952787	1
9	149298	23964.007474103873	0
9	149508	23993.790622660642	1
9	149510	23993.916479836086	0
9	149551	23999.436318514294	1
9	149553	23999.776505297799	0
9	149608	24007.250869707932	1
9	149610	24007.270179980805	0
9	149618	24008.39013481143	1
9	149620	24008.940969095369	0
9	149623	24008.957562645414	1
9	149625	24009.027112603169	0
9	150108	24080.202311429271	1
9	150110	24080.333231180365	0
9	150353	24113.793624294253	1
9	150355	24113.902961275144	0
9	150395	24119.420133127396	1
9	150399	24119.85176039522	0
9	150773	24174.660883489975	1
9	150775	24175.057821605786	0
9	150786	24176.81044100018	1
9	150788	24177.122738322132	0
9	150859	24187.528610011588	1
9	150861	24187.548641858706	0
9	150876	24189.754862320821	1
9	150878	24190.03260921228	0
9	150881	24190.327468164477	1
9	150883	24190.385355209236	0
9	151085	24217.739457045056	1
9	151087	24217.885488917225	0
9	151265	24241.666199462794	1
9	151274	24242.294770336045	0
9	151350	24253.955165440008	1
9	151359	24254.937827608719	0
9	151383	24257.538543982874	1
9	151385	24257.54224091866	0
9	151845	24326.686801273449	1
9	151847	24326.823929657134	0
9	152385	24409.129843096739	1
9	152387	24409.263345461643	0
9	152390	24409.624141701941	1
9	152393	24410.483482766968	2
9	152400	24411.584935594405	1
9	152405	24412.200645450031	0
9	152433	24416.325526330226	1
9	152436	24416.737561287104	2
9	152438	24417.028956010916	1
9	152442	24417.334202689501	0
9	152468	24420.725357755392	1
9	152470	24421.227861389211	0
9	152518	24426.809943774368	1
9	152522	24427.162113428123	0
9	152739	24458.0795467155	1
9	152741	24458.485956772034	0
9	153036	24498.533205889158	1
9	153038	24498.632027158855	0
9	153084	24505.897007358207	1
9	153086	24506.112273738106	0
9	153089	24506.643873273761	1
9	153091	24506.90960431107	0
9	153094	24507.17285675783	1
9	153096	24507.174137212828	0
9	153175	24517.186225341626	1
9	153177	24517.40993581784	0
9	153249	24527.29993064403	1
9	153251	24527.447165151226	0
9	153285	24532.881695015443	1
9	153287	24533.268765546673	0
9	153565	24573.097674702057	1
9	153567	24573.463205150923	0
9	154442	24706.703186035777	1
9	154444	24707.142559389449	0
9	154572	24726.296653441951	1
9	154574	24726.386275071225	0
9	154587	24728.472463650681	1
9	154589	24728.831225629499	0
9	154627	24733.29836335518	1
9	154629	24733.428975294346	0
9	155178	24820.502020627702	1
9	155183	24821.715368556324	0
9	155194	24823.408015511859	1
9	155196	24823.765701561373	0
9	155339	24844.900202862848	1
9	155341	24845.238528734172	0
9	155672	24891.850466843556	1
9	155674	24891.867232754151	0
9	155687	24893.52155760904	1
9	155694	24894.168280314566	0
9	155712	24896.539705611162	1
9	155714	24896.605748137527	0
9	155828	24912.141529665005	1
9	155840	24913.34541597022	2
9	155844	24913.723392316696	1
9	155846	24913.760317748362	0
9	155866	24915.399265665331	1
9	155868	24915.653769351458	0
9	155893	24918.998744424156	1
9	155895	24919.209261076915	0
9	155913	24921.868328261844	1
9	155916	24922.387191361564	2
9	155918	24922.515003091901	1
9	155921	24922.880271333319	2
9	155926	24923.388766156978	3
9	155931	24924.380197770922	2
9	155936	24924.633620367939	1
9	155938	24924.674683346755	0
9	155988	24930.691413113991	1
9	155990	24931.399333901449	0
9	155996	24932.306780716921	1
9	155998	24932.460598770073	0
9	156572	25016.751120556475	1
9	156574	25016.791368062173	0
9	156582	25017.682787966592	1
9	156584	25017.688611752589	0
9	156612	25021.861392860211	1
9	156615	25022.292438389224	2
9	156617	25022.301327640067	1
9	156619	25022.585625807151	0
9	156632	25024.227496480897	1
9	156634	25024.349132823267	0
9	156677	25032.066379190517	1
9	156681	25032.443242639303	0
9	156684	25033.051043243614	1
9	156686	25033.210997601858	0
9	156704	25035.543113671663	1
9	156706	25036.124573094242	0
9	157215	25136.500013608953	1
9	157216	25136.516072739656	0
9	157227	25137.569987021289	1
9	157229	25137.598995397589	0
9	157359	25159.429519709018	1
9	157362	25159.890878664101	2
9	157369	25161.12216497784	1
9	157371	25161.351296561007	0
9	157442	25171.250065278599	1
9	157444	25171.320819274276	0
9	157590	25220.522265921001	1
9	157591	25221.029430578973	0
9	157794	25269.671464021385	1
9	157796	25269.83314155539	0
9	158196	25337.25868503128	1
9	158206	25338.432403117996	0
9	158285	25352.261357475209	1
9	158286	25352.398279562988	0
9	158300	25354.397339454689	1
9	158304	25354.93438247464	0
9	158795	25448.578687683074	1
9	158801	25449.188332768979	0
9	158878	25458.971828753082	1
9	158880	25459.156054543435	0
9	159380	25528.916845768686	1
9	159383	25529.75628290339	2
9	159385	25530.333334180492	1
9	159388	25530.465240777979	2
9	159390	25530.651193970331	1
9	159392	25530.872725114574	0
9	159395	25531.090986944219	1
9	159397	25531.415336704431	0
9	159400	25531.848921117788	1
9	159402	25531.91344007719	0
9	159414	25533.673425059948	1
9	159416	25533.884892841539	0
9	159538	25553.084343933637	1
9	159545	25554.145773127183	0
9	159770	25587.132556830626	1
9	159772	25587.339011362392	0
9	159792	25590.043823520886	1
9	159794	25590.524271327261	0
9	159797	25590.525577490125	1
9	159799	25591.073560644974	0
9	159829	25594.924420138541	1
9	159831	25595.504003229126	0
9	159834	25595.782931738253	1
9	159836	25595.792194888309	0
9	159846	25596.920864044129	1
9	159848	25597.223559903353	0
9	159851	25597.355730703705	1
9	159853	25597.556336005511	0
9	159879	25601.370792425658	1
9	159881	25601.737035499011	0
9	159964	25614.16203395487	1
9	159969	25615.46303658019	0
9	159981	25616.675750109089	1
9	159983	25617.208522315841	0
9	159986	25617.447562899209	1
9	159988	25617.503089371214	0
9	160001	25619.238095674386	1
9	160003	25619.264541775692	0
9	160066	25627.458005060025	1
9	160069	25628.07020683042	2
9	160071	25628.171780619619	1
9	160074	25628.684740576337	2
9	160076	25628.723801210117	1
9	160078	25628.989397028216	0
9	160081	25629.185686228846	1
9	160083	25629.657782919692	0
9	160086	25629.774289762418	1
9	160088	25630.27996458225	0
9	160141	25637.701865355021	1
9	160144	25638.230495960827	2
9	160146	25638.263846545995	1
9	160149	25638.828514713005	2
9	160151	25639.059668976734	1
9	160156	25640.267703254731	0
9	160159	25640.725757955436	1
9	160161	25641.207523323631	0
9	160164	25641.662287126623	1
9	160166	25641.873407578818	0
9	160192	25646.673118304277	1
9	160194	25646.994954741633	0
9	160202	25647.840356170761	1
9	160204	25648.087832683955	0
9	160365	25670.301396988987	1
9	160367	25670.610156353931	0
9	160383	25672.812341479681	1
9	160385	25672.847282765798	0
9	160614	25704.818323104414	1
9	160616	25704.965478955662	0
9	160675	25712.255141867191	1
9	160677	25712.543722635817	0
9	161528	25833.587424407622	1
9	161530	25833.611751398696	0
9	161536	25834.622086665502	1
9	161541	25836.081064436211	0
9	161854	25880.568915240607	1
9	161856	25880.692857884849	0
9	161940	25892.455602154183	1
9	161942	25892.549578737116	0
9	161948	25893.706782297512	1
9	161950	25894.076613623962	0
9	161977	25897.164996321966	1
9	161979	25897.446907425435	0
9	161982	25897.953321899707	1
9	161985	25898.42292219135	2
9	161987	25898.880366459327	1
9	161994	25899.056410160106	0
9	162014	25902.542402012459	1
9	162018	25903.168858577911	0
9	162044	25906.499834921117	1
9	162046	25906.811365515773	0
9	162049	25907.091972764767	1
9	162054	25907.819093105662	2
9	162056	25908.274866500278	1
9	162058	25908.566675205052	0
9	164050	26187.296364219906	1
9	164052	26187.43503554803	0
9	164067	26189.842625951861	1
9	164069	26189.968965031929	0
9	164569	26259.921845686577	1
9	164571	26260.412708684292	0
9	164768	26289.328907344154	1
9	164770	26289.523588636248	0
9	165300	26390.038853553745	1
9	165301	26390.58240918491	0
9	165340	26401.193546573604	1
9	165341	26401.204313592504	0
9	165639	26488.72515489812	1
9	165641	26488.775322359327	0
9	165656	26490.618588417014	1
9	165658	26490.916012948389	0
9	165666	26491.854962739199	1
9	165668	26491.854967203264	0
9	165737	26502.722853811122	1
9	165739	26503.251832721929	0
9	166826	26665.924469901049	1
9	166828	26666.173636132344	0
9	166911	26678.609584473339	1
9	166913	26678.752801400071	0
9	167127	26710.571575425327	1
9	167129	26710.815759113014	0
9	167443	26754.516034159898	1
9	167445	26754.661315498137	0
9	167505	26762.19910171283	1
9	167507	26762.324778541916	0
9	167739	26796.456833424136	1
9	167741	26796.492116237838	0
9	167764	26800.163574328597	1
9	167769	26801.166126371708	0
9	168388	26933.56985718607	1
9	168390	26933.579624465271	0
9	168518	26951.477966076545	1
9	168520	26951.856516750267	0
9	168558	26955.950460199304	1
9	168560	26956.097147438026	0
9	168577	26958.129906805223	1
9	168579	26958.237466109944	0
9	168741	26981.569162912613	1
9	168744	26981.989467978331	2
9	168763	26984.195190596015	1
9	168768	26984.447109044404	0
9	169057	27025.640736536299	1
9	169059	27025.991864528473	0
9	169739	27142.195202384183	1
9	169741	27142.228784719248	0
9	169767	27146.471399583287	1
9	169769	27146.527016517468	0
9	169873	27160.892118859655	1
9	169875	27161.104049566233	0
9	169896	27164.060114768092	1
9	169898	27164.469306267961	0
9	169951	27171.417726785913	1
9	169953	27171.634512102074	0
9	169964	27173.044911739174	1
9	169966	27173.104697628864	0
9	169989	27175.752228158051	1
9	169991	27175.847874944263	0
9	170098	27191.453527413717	1
9	170100	27191.642482947939	0
9	170118	27194.572757109058	1
9	170120	27194.863054289155	0
9	170351	27222.971107446252	1
9	170356	27223.586821000919	2
9	170358	27223.872973838092	1
9	170361	27224.162140751852	2
9	170363	27224.302049207038	1
9	170365	27224.653560965816	0
9	170370	27224.8102063137	1
9	170372	27225.421967882633	0
9	170375	27225.472611606436	1
9	170377	27225.886226715704	0
9	170380	27225.997183617612	1
9	170382	27226.008370297827	0
9	170392	27227.383394926868	1
9	170394	27227.548249010231	0
9	170397	27227.87482812315	1
9	170399	27228.497162921012	0
9	170520	27245.28195925321	1
9	170522	27245.758406847044	0
9	170525	27245.845853204453	1
9	170528	27246.324372257512	2
9	170530	27246.44975627156	1
9	170532	27246.793312982802	0
9	170550	27248.911409158712	1
9	170552	27249.221245215376	0
9	170578	27252.87148688653	1
9	170580	27253.253930292391	0
9	170627	27258.999730290458	1
9	170631	27259.598337940553	0
9	170634	27259.66453814398	1
9	170636	27259.804858552139	0
9	170639	27260.204642572193	1
9	170641	27260.325738488597	0
9	170659	27263.026151132942	1
9	170662	27263.449879042138	2
9	170666	27263.653507249543	1
9	170671	27264.374334248873	0
9	170674	27264.801830496206	1
9	170679	27265.284083918468	2
9	170681	27265.332130019021	1
9	170683	27265.430328967493	0
9	170691	27266.998474551117	1
9	170693	27267.123811652707	0
9	170698	27267.665254346685	1
9	170700	27267.71091145889	0
9	170833	27286.274662647008	1
9	170835	27286.601846448475	0
9	170848	27288.612141644567	1
9	170850	27288.641598971157	0
9	170853	27289.083924992274	1
9	170857	27289.690512413754	0
9	170860	27289.774535192487	1
9	170863	27290.636620851777	2
9	170865	27290.721854288398	1
9	170867	27291.448301336247	0
9	170870	27291.503302872259	1
9	170872	27291.668662079907	0
9	170875	27292.362950795827	1
9	170878	27292.826935500823	2
9	170882	27293.455237751947	1
9	170885	27293.628663431605	2
9	170887	27293.724444125699	1
9	170889	27294.162954858432	0
9	170892	27294.346461692484	1
9	170894	27294.424248138143	0
9	170945	27301.088117248503	1
9	170948	27301.505084979984	2
9	170950	27301.542117451961	1
9	170952	27301.594713375068	0
9	170974	27304.19327534524	1
9	170976	27304.215567869781	0
9	170979	27305.054507748021	1
9	170981	27305.338420427485	0
9	171136	27327.286709222599	1
9	171138	27327.764374850584	0
9	171141	27327.960086493223	1
9	171144	27328.458497432369	2
9	171146	27328.718993417129	1
9	171152	27329.824309525063	2
9	171154	27329.948749952788	1
9	171156	27330.221410811135	0
9	171171	27331.877214027226	1
9	171173	27332.151260461315	0
9	171181	27333.648076695513	1
9	171183	27333.758931600615	0
9	171186	27334.171373040818	1
9	171188	27334.191472449796	0
9	171219	27339.367702515174	1
9	171221	27339.640148943616	0
9	173452	27732.165555855968	1
9	173454	27732.313531388054	0
9	173548	27745.006426249632	1
9	173551	27745.724878823526	2
9	173553	27746.33200375339	1
9	173558	27746.540881785647	0
9	173564	27747.626424678696	1
9	173566	27747.732702631487	0
9	173574	27748.918347667764	1
9	173576	27749.010453682887	0
9	173601	27752.506275156235	1
9	173603	27752.618288828961	0
9	173614	27754.663492361505	1
9	173629	27757.264551348952	0
9	173739	27774.566328234525	1
9	173741	27774.614100316624	0
9	173769	27778.449307506924	1
9	173771	27778.552318077221	0
9	174965	27993.820910088943	1
9	174974	27995.125485613172	0
9	174987	27997.198444224986	1
9	174989	27997.268476254627	0
9	175007	28000.173125271266	1
9	175009	28000.404773328089	0
9	175187	28033.639567759986	1
9	175189	28033.961429039836	0
9	175228	28038.70815497686	1
9	175233	28039.3412565192	0
9	175258	28041.897746636233	1
9	175260	28042.081903780513	0
9	175320	28050.410299338287	1
9	175327	28051.241831755234	0
9	176107	28212.695926120478	1
9	176109	28212.860849962845	0
9	176296	28241.87959042753	1
9	176298	28242.294757661183	0
9	176301	28242.725521487816	1
9	176303	28242.734632387384	0
9	176910	28331.870380492667	1
9	176912	28331.887596232306	0
9	177152	28366.991755820598	1
9	177154	28367.040192678167	0
9	177167	28368.722953314447	1
9	177169	28369.158636801514	0
9	177180	28370.913434116003	1
9	177187	28371.956566616121	0
9	177207	28374.452220602213	1
9	177209	28374.574133273342	0
9	177222	28376.665974741123	1
9	177224	28377.295950467097	0
9	177254	28380.934085522751	1
9	177256	28381.032752307386	0
9	178077	28510.026075097206	1
9	178079	28510.04254765031	0
9	178099	28513.08032562126	1
9	178101	28513.721168657633	0
9	179836	28757.725308867862	1
9	179838	28757.764409593426	0
9	180114	28795.916638396808	1
9	180116	28796.041729907381	0
9	180124	28797.331853694736	1
9	180126	28797.369788749275	0
9	180142	28799.882029212998	1
9	180144	28800.269400316675	0
9	180176	28804.28439995673	1
9	180178	28804.662508889531	0
9	180213	28809.729848028472	1
9	180215	28809.834147284479	0
9	180225	28810.913817849647	1
9	180227	28811.029103689626	0
9	180270	28816.905608091908	1
9	180273	28817.722172696362	2
9	180275	28818.236049374126	1
9	180278	28818.295930315633	2
9	180281	28818.696273029162	3
9	180283	28818.890331040267	2
9	180288	28819.444369565565	1
9	180293	28819.769714064416	2
9	180295	28820.104254479097	1
9	180297	28820.218697961525	0
9	180300	28820.328607578142	1
9	180302	28820.368930742825	0
9	180310	28821.685216461434	1
9	180312	28821.727546920918	0
9	180984	28920.136570916897	1
9	180988	28920.216402696088	0
9	181017	28922.954656593468	1
9	181019	28923.471678178409	0
9	181022	28923.641170985218	1
9	181024	28923.68658303518	0
9	181056	28927.783176104738	1
9	181058	28927.855769920103	0
9	181069	28929.539627164197	1
9	181072	28930.352778432765	2
9	181074	28930.538910850403	1
9	181079	28931.332189452776	0
9	181084	28932.028103480968	1
9	181086	28932.235746006827	0
9	181394	28988.69645449599	1
9	181396	28988.735487546965	0
9	181472	28998.800393687614	1
9	181474	28998.842591570765	0
9	181614	29019.242225661741	1
9	181616	29019.705184583403	0
9	181810	29044.877431300944	1
9	181820	29046.563542559327	0
9	183034	29278.551431899215	1
9	183039	29279.306572900386	0
9	183323	29332.609512206204	1
9	183325	29332.673700571864	0
9	183368	29338.97931692604	1
9	183370	29339.036543089624	0
9	183921	29414.135039756528	1
9	183923	29414.274409939705	0
9	184653	29515.86744050401	1
9	184657	29516.581096891341	0
9	184794	29534.630555824086	1
9	184796	29534.676110244	0
9	184821	29538.3406097934	1
9	184825	29538.761336199651	0
9	184879	29545.933366471611	1
9	184881	29546.117969998871	0
9	184884	29546.500765067561	1
9	184886	29546.834070017141	0
9	184929	29552.017363296113	1
9	184931	29552.287026571851	0
9	184934	29552.44554827799	1
9	184939	29553.37234760811	0
9	184958	29555.286676604244	1
9	184960	29555.525697812857	0
9	184963	29556.256950351446	1
9	184965	29556.502832716926	0
9	185005	29562.349445725315	1
9	185007	29562.594568896705	0
9	185010	29563.321681768949	1
9	185012	29563.579965587737	0
9	185068	29570.89029615362	1
9	185070	29571.267236943774	0
9	185073	29571.632266552968	1
9	185075	29572.082637382851	0
9	185078	29572.103826246772	1
9	185080	29572.127973596927	0
9	185091	29573.904865225161	1
9	185093	29573.985702307292	0
9	185456	29626.289811067644	1
9	185461	29627.080570736766	0
9	185491	29630.196132117685	1
9	185493	29630.246840764598	0
9	186263	29741.969959383544	1
9	186265	29741.972057802243	0
9	186296	29746.946927270147	1
9	186298	29747.160020950944	0
9	186631	29795.734327565871	1
9	186633	29796.220306814198	0
9	186646	29797.502942917348	1
9	186653	29798.861134045514	0
9	187708	29967.917500665887	1
9	187710	29968.40745567072	0
9	187746	29972.872961219364	1
9	187748	29973.236583219103	0

