version 2
run First_exit_5-1-20191114-11:42:22-8816
attr configname First_exit_5
attr datetime 20191114-11:42:22
attr experiment First_exit_5
attr inifile omnetpp.ini
attr iterationvars ""
attr iterationvarsf ""
attr measurement ""
attr network ResponseTimeNetwork
attr processid 8816
attr repetition 1
attr replication #1
attr resultdir results
attr runnumber 1
attr seedset 1
param **.Source.interArrivalTime exponential(4s)
param **.jobPriority bernoulli(0.4)
param **.PS.serviceTimeU1 "uniform(0.4s, 1.0s)"
param **.PS.serviceTimeU2 "uniform(1s, 1.2s)"
param **.SS1.serviceTime exponential(0.4s)
param **.SS2.serviceTime exponential(0.8s)
param **.PS.exitProbability bernoulli(0.5)

vector 0 ResponseTimeNetwork.QueueU1 queueLength:vector ETV
attr interpolationmode sample-hold
attr title "queue length, vector"
vector 1 ResponseTimeNetwork.QueueU2 queueLength:vector ETV
attr interpolationmode sample-hold
attr title "queue length, vector"
vector 2 ResponseTimeNetwork.sink lifeTimeU1:vector ETV
attr interpolationmode none
attr title "lifetime of arrived jobs U1, vector"
attr unit s
vector 3 ResponseTimeNetwork.sink totalServiceTimeU1:vector ETV
attr interpolationmode none
attr title "the total time spent  by arrived jobs U1, vector"
attr unit s
vector 4 ResponseTimeNetwork.sink lifeTime:vector ETV
attr interpolationmode none
attr title "lifetime of arrived jobs, vector"
attr unit s
vector 5 ResponseTimeNetwork.sink totalServiceTime:vector ETV
attr interpolationmode none
attr title "the total time spent  by arrived jobs, vector"
attr unit s
vector 6 ResponseTimeNetwork.sink lifeTimeU2:vector ETV
attr interpolationmode none
attr title "lifetime of arrived jobs U2, vector"
attr unit s
vector 7 ResponseTimeNetwork.sink totalServiceTimeU2:vector ETV
attr interpolationmode none
attr title "the total time spent  by arrived jobs U2, vector"
attr unit s
vector 8 ResponseTimeNetwork.SS2 queueLength:vector ETV
attr interpolationmode sample-hold
attr title "queue length, vector"
vector 9 ResponseTimeNetwork.SS1 queueLength:vector ETV
attr interpolationmode sample-hold
attr title "queue length, vector"
0	24455	10004.586240724645	1
0	24456	10004.846273348494	0
0	24465	10005.454135842684	1
0	24470	10006.03157831632	0
0	24477	10007.270768227603	1
0	24478	10007.892153458729	0
0	24495	10010.363473405293	1
0	24498	10011.246385762481	0
0	24505	10012.147980536968	1
0	24506	10012.849701683702	0
0	24530	10029.656021563764	1
0	24531	10030.048203185341	0
0	24540	10030.698481663611	1
0	24542	10030.981476292734	2
0	24543	10031.365948154032	1
0	24546	10032.354277630849	0
0	24560	10034.257130321906	1
0	24561	10034.696688850621	0
0	24565	10034.932264894536	1
0	24566	10035.307235428157	0
0	24575	10036.568903739412	1
0	24576	10037.096404683568	0
0	24625	10057.86895714634	1
0	24626	10058.250330303226	0
0	24637	10059.792188970507	1
0	24638	10059.987370968227	0
0	24647	10061.13430707526	1
0	24648	10061.388098605991	0
0	24667	10064.964336791218	1
0	24668	10065.105780048564	0
0	24677	10065.977678801468	1
0	24678	10066.073211028136	0
0	24687	10066.668293609245	1
0	24688	10067.325147927401	0
0	24692	10067.517259278813	1
0	24693	10068.02150983162	0
0	24697	10068.517117325525	1
0	24698	10068.738806036476	0
0	24702	10068.8001609805	1
0	24705	10069.324561048288	0
0	24712	10070.075736138224	1
0	24713	10070.71337418788	0
0	24720	10071.824326582149	1
0	24721	10071.9215367237	0
0	24735	10073.820342818413	1
0	24736	10073.899340055113	0
0	24745	10080.54425245859	1
0	24748	10080.842456145296	0
0	24752	10080.931250293862	1
0	24753	10081.28785865264	0
0	24800	10092.819221116603	1
0	24803	10093.30159568954	0
0	24810	10094.548126409441	1
0	24811	10094.75159152746	0
0	24865	10109.466141399889	1
0	24866	10110.024728552368	0
0	24935	10151.586718728781	1
0	24936	10152.053048044798	0
0	25010	10170.993485588629	1
0	25013	10171.285024194821	0
0	25130	10206.356691298046	1
0	25131	10206.914076860872	0
0	25152	10209.98859844589	1
0	25153	10210.067484319874	0
0	25182	10215.809413064204	1
0	25183	10215.964047368549	0
0	25197	10217.094296718546	1
0	25200	10217.538861755074	0
0	25209	10218.442911775008	1
0	25210	10218.843702735079	0
0	25214	10219.123403762384	1
0	25217	10219.65578642844	0
0	25239	10221.495678847927	1
0	25240	10221.715559339223	0
0	25244	10221.933177330138	1
0	25245	10222.567277716126	0
0	25268	10226.229939080608	1
0	25269	10226.884056892412	0
0	25278	10227.670981769668	1
0	25279	10228.088517058062	0
0	25289	10229.420346003121	1
0	25290	10229.707674436484	0
0	25297	10230.692209707678	1
0	25298	10231.181595734301	0
0	25360	10250.4196149063	1
0	25361	10250.508623191296	0
0	25370	10251.269515435612	1
0	25372	10251.678510634577	2
0	25375	10252.080145126245	1
0	25378	10252.971587269417	0
0	25405	10265.525223791564	1
0	25406	10265.877273545825	0
0	25415	10266.880798997058	1
0	25416	10267.106978758177	0
0	25445	10272.609874792858	1
0	25446	10272.946662745445	0
0	25450	10273.080016114575	1
0	25451	10273.77035741192	0
0	25550	10361.338363324652	1
0	25553	10361.915640473558	0
0	25562	10362.654555982103	1
0	25564	10362.708329093181	2
0	25565	10363.119816554017	1
0	25568	10364.025268149241	0
0	25575	10364.597928797286	1
0	25577	10365.256350540152	2
0	25580	10365.55193470079	1
0	25583	10366.072941469452	0
0	25590	10366.813582837927	1
0	25591	10367.250778403929	0
0	25605	10371.051392637452	1
0	25606	10371.512333087022	0
0	25615	10372.533244063125	1
0	25616	10372.971634831377	0
0	25730	10448.020851795874	1
0	25733	10448.331729547045	0
0	25742	10449.387940676181	1
0	25744	10449.502547708789	2
0	25745	10450.094002495304	1
0	25750	10450.6584749764	0
0	25754	10450.867953951532	1
0	25757	10451.3684502816	0
0	25761	10451.47654246716	1
0	25762	10451.817663117329	0
0	25860	10471.816173804026	1
0	25861	10472.144367302752	0
0	25865	10472.389719781115	1
0	25866	10473.046084841697	0
0	25955	10522.408035387176	1
0	25956	10522.479594289994	0
0	25965	10523.579899694251	1
0	25966	10523.726311727378	0
0	25995	10538.514570255478	1
0	25996	10538.738700389445	0
0	26045	10561.731529449211	1
0	26046	10561.831778004658	0
0	26065	10565.811526312359	1
0	26068	10566.326390246128	0
0	26092	10569.406778636139	1
0	26093	10569.861768807529	0
0	26110	10571.654727353312	1
0	26111	10572.14846202723	0
0	26130	10574.39247217726	1
0	26131	10575.000654192835	0
0	26135	10575.190888290551	1
0	26136	10575.545728955379	0
0	26142	10575.914034891514	1
0	26143	10576.349337739831	0
0	26147	10576.430401064975	1
0	26148	10577.000745148033	0
0	26155	10578.371460401559	1
0	26156	10578.735670041859	0
0	26165	10579.605386658274	1
0	26166	10580.165369013809	0
0	26270	10675.572254188759	1
0	26271	10675.925662124893	0
0	26287	10678.043375815873	1
0	26290	10678.747379234694	0
0	26302	10680.315647762234	1
0	26303	10680.6955180215	0
0	26314	10681.347464377575	1
0	26315	10682.224142442299	0
0	26322	10683.045596665841	1
0	26323	10683.654969227668	0
0	26365	10692.666102867823	1
0	26366	10693.475551726487	0
0	26540	10769.06380778186	1
0	26541	10769.271795212271	0
0	26590	10794.618330901844	1
0	26593	10794.867113032001	0
0	26597	10795.051111809428	1
0	26598	10795.533108341223	0
0	26605	10796.488839901824	1
0	26606	10796.515621087043	0
0	26615	10797.203727756939	1
0	26616	10797.813572368533	0
0	26625	10799.266617096834	1
0	26626	10799.402017999482	0
0	26635	10800.894010324593	1
0	26636	10800.938273311355	0
0	26640	10800.968071843049	1
0	26641	10801.344227697323	0
0	26645	10801.443317566897	1
0	26648	10802.023699917733	0
0	26655	10802.925033800183	1
0	26656	10803.15515438667	0
0	26675	10806.374828124774	1
0	26676	10806.499586339963	0
0	26715	10831.174042837986	1
0	26716	10831.409769815352	0
0	26732	10833.55615213569	1
0	26733	10833.826568206403	0
0	26737	10833.967744915954	1
0	26738	10834.363874991009	0
0	26745	10835.262059683811	1
0	26746	10835.907169686821	0
0	26775	10861.467766850434	1
0	26776	10862.120207478866	0
0	26830	10875.952730952148	1
0	26831	10876.381892966907	0
0	26840	10877.210731876799	1
0	26841	10877.98846615605	0
0	26887	10898.943668287015	1
0	26888	10899.339293100614	0
0	26892	10899.518550082593	1
0	26893	10899.955097645869	0
0	26925	10907.312241414038	1
0	26926	10907.451227619	0
0	26945	10912.602440674373	1
0	26946	10912.65538787143	0
0	27057	10969.330172710719	1
0	27058	10969.501301721195	0
0	27065	10969.997522429165	1
0	27066	10970.569760454018	0
0	27104	10975.984089266617	1
0	27107	10976.270143261496	0
0	27114	10977.093694658999	1
0	27116	10977.508658705353	2
0	27117	10977.950082347906	1
0	27120	10978.695918650591	0
0	27124	10978.702115934581	1
0	27125	10979.304769934985	0
0	27132	10980.097023695762	1
0	27133	10980.603926100248	0
0	27195	11002.104090937786	1
0	27198	11002.645746562533	0
0	27275	11020.847716405471	1
0	27278	11021.033657769677	0
0	27420	11100.279754219915	1
0	27421	11100.586596882401	0
0	27435	11114.815375634831	1
0	27436	11115.512046458449	0
0	27447	11116.294402880864	1
0	27448	11116.960532441938	0
0	27457	11118.088361275603	1
0	27458	11118.281453647201	0
0	27505	11139.085638602938	1
0	27509	11139.193483793917	2
0	27510	11139.208212476242	1
0	27513	11139.835337351421	0
0	27530	11152.529829262556	1
0	27531	11153.166742793847	0
0	27635	11200.764246359725	1
0	27636	11201.300067824458	0
0	27640	11202.105387564404	1
0	27641	11202.277126926936	0
0	27652	11203.345430151156	1
0	27653	11203.971519054014	0
0	27660	11205.788882956794	1
0	27661	11205.790056563036	0
0	27714	11226.824021684466	1
0	27715	11227.153769141101	0
0	27722	11228.501891287049	1
0	27723	11229.090917074299	0
0	27730	11229.8595141533	1
0	27731	11230.172842930761	0
0	27745	11232.635521130298	1
0	27746	11232.694272562239	0
0	27790	11244.416197011792	1
0	27791	11244.92165281214	0
0	27865	11264.412734130172	1
0	27866	11264.5762203344	0
0	27880	11270.199786788149	1
0	27881	11270.454175558522	0
0	27935	11285.306795978693	1
0	27936	11286.050711301044	0
0	28040	11362.020523433303	1
0	28041	11362.821347204297	0
0	28045	11362.978786509304	1
0	28046	11363.246406457274	0
0	28050	11363.2742065399	1
0	28051	11363.812678816569	0
0	28060	11364.405502033195	1
0	28061	11364.863962235276	0
0	28075	11366.724898886451	1
0	28077	11366.792837748695	2
0	28080	11367.479354913247	1
0	28083	11368.14335870337	0
0	28092	11369.391558720572	1
0	28093	11369.461045814299	0
0	28100	11370.206056534757	1
0	28103	11370.735030548361	0
0	28335	11479.694893753914	1
0	28336	11480.541962079159	0
0	28370	11500.346009285109	1
0	28371	11500.933788419127	0
0	28455	11552.672163290082	1
0	28456	11553.324827281112	0
0	28460	11553.577006542679	1
0	28463	11554.303703673516	0
0	28467	11554.399479163426	1
0	28468	11554.938259447698	0
0	28535	11583.295812013323	1
0	28536	11584.089933789745	0
0	28585	11618.870495273508	1
0	28586	11618.993080889056	0
0	28595	11620.373211665983	1
0	28596	11620.423274027943	0
0	28605	11621.176266444835	1
0	28606	11621.549718242618	0
0	28619	11623.173030483162	1
0	28620	11623.496407646773	0
0	28634	11625.371024739045	1
0	28635	11625.574814525333	0
0	28647	11626.838876427942	1
0	28648	11627.61556166298	0
0	28895	11757.268106030764	1
0	28896	11757.623568251827	0
0	28930	11777.593643167258	1
0	28931	11778.389920828836	0
0	28990	11812.78411336375	1
0	28991	11813.34428831226	0
0	29000	11814.467902598822	1
0	29001	11815.112355905337	0
0	29005	11815.474869594205	1
0	29006	11815.600173112549	0
0	29010	11815.787229574176	1
0	29011	11816.57438287673	0
0	29015	11816.774960257871	1
0	29016	11817.445021054088	0
0	29040	11836.373220937533	1
0	29041	11836.409373717946	0
0	29075	11844.065799078951	1
0	29076	11844.893101651259	0
0	29085	11845.712593830476	1
0	29087	11845.860817729346	2
0	29088	11845.971262157327	1
0	29093	11846.627016330827	0
0	29097	11846.798365284648	1
0	29098	11847.373926637918	0
0	29102	11847.843731799452	1
0	29104	11847.883382074572	2
0	29105	11848.170026199091	1
0	29108	11849.126726522101	0
0	29112	11849.202524104252	1
0	29113	11849.548977132318	0
0	29117	11849.629569913894	1
0	29118	11850.395872426489	0
0	29170	11865.660540351302	1
0	29171	11865.772611885399	0
0	29180	11869.299251932656	1
0	29181	11869.860661509873	0
0	29185	11869.883650157617	1
0	29186	11870.808391503624	0
0	29195	11871.941183332011	1
0	29196	11872.114645309063	0
0	29200	11872.608760101455	1
0	29201	11872.716388153114	0
0	29205	11872.808160471458	1
0	29208	11873.680400799277	0
0	29240	11879.603094001828	1
0	29241	11879.718565029235	0
0	29247	11880.502952547245	1
0	29248	11880.699979735169	0
0	29257	11882.057451191665	1
0	29258	11882.160228931022	0
0	29295	11895.45003278916	1
0	29296	11895.79606831344	0
0	29360	11929.482221883538	1
0	29361	11929.88955055151	0
0	29455	11972.481440461506	1
0	29456	11972.927840314614	0
0	29585	12043.291588946975	1
0	29586	12043.832411474782	0
0	29610	12048.49416305425	1
0	29611	12048.972557053639	0
0	29695	12085.308049847018	1
0	29696	12085.785054417514	0
0	29712	12088.079585821089	1
0	29713	12088.108802829291	0
0	29745	12097.786168489953	1
0	29746	12098.093882915996	0
0	29755	12098.980933609983	1
0	29756	12099.244141793822	0
0	29775	12113.081512031473	1
0	29776	12113.457796411149	0
0	29780	12113.466773620249	1
0	29781	12114.19317833537	0
0	29785	12114.520546828787	1
0	29786	12115.034722667539	0
0	29792	12115.479496767514	1
0	29793	12115.531648599429	0
0	29797	12115.649541990921	1
0	29798	12116.355444701601	0
0	29802	12116.402022112463	1
0	29803	12116.943458570939	0
0	29820	12120.259146024412	1
0	29821	12120.865067433416	0
0	29825	12121.464422924648	1
0	29826	12121.77751394323	0
0	29830	12121.945795023089	1
0	29831	12122.624562774449	0
0	29835	12123.390159433557	1
0	29836	12123.583221051786	0
0	29860	12152.083605448903	1
0	29861	12152.193224506414	0
0	29865	12152.58918635843	1
0	29866	12153.168968677715	0
0	30140	12301.403362930701	1
0	30141	12301.569595159073	0
0	30167	12307.306569252499	1
0	30168	12307.390881203779	0
0	30175	12308.599631352267	1
0	30176	12308.876200474066	0
0	30205	12315.872262752435	1
0	30206	12316.347126672909	0
0	30305	12340.926063996655	1
0	30308	12341.52112379979	0
0	30345	12354.990413610147	1
0	30346	12355.561499525294	0
0	30435	12401.645810051092	1
0	30436	12401.914590066058	0
0	30465	12420.198657113082	1
0	30466	12420.472219523137	0
0	30540	12459.588267881319	1
0	30541	12459.894786006006	0
0	30645	12491.817952836906	1
0	30646	12492.115434862176	0
0	30670	12496.632479004367	1
0	30671	12496.989657924551	0
0	30680	12512.73871754702	1
0	30681	12513.330502278145	0
0	30685	12513.340381303047	1
0	30686	12513.762720262885	0
0	30700	12517.878931071792	1
0	30701	12518.187879836522	0
0	30705	12518.705499208416	1
0	30706	12519.17422032753	0
0	30790	12555.677648649833	1
0	30791	12556.112997223217	0
0	30830	12562.16144561821	1
0	30833	12562.922387407261	0
0	30837	12563.223978983123	1
0	30840	12563.88886074159	0
0	30972	12608.518503851155	1
0	30973	12608.54619109945	0
0	31005	12622.091199265052	1
0	31007	12622.388253412803	2
0	31008	12622.664717638727	1
0	31015	12623.429276269117	0
0	31022	12624.051687834145	1
0	31023	12624.44365708707	0
0	31038	12625.524612635466	1
0	31039	12625.68380607376	0
0	31046	12627.051476650219	1
0	31047	12627.356591803303	0
0	31170	12680.181818984446	1
0	31171	12680.272472224724	0
0	31175	12680.371566345541	1
0	31176	12681.248806462031	0
0	31180	12681.520368577168	1
0	31181	12681.9893042775	0
0	31205	12693.568622050292	1
0	31206	12693.798760352974	0
0	31295	12732.820726589586	1
0	31298	12733.238339085718	0
0	31330	12748.425923553321	1
0	31331	12749.16585954463	0
0	31335	12749.803909981695	1
0	31336	12749.927417397526	0
0	31400	12776.040092842133	1
0	31401	12776.379063562223	0
0	31410	12777.710242720915	1
0	31413	12778.189210827661	0
0	31495	12807.341570712595	1
0	31496	12807.686299860353	0
0	31600	12836.143781225332	1
0	31601	12836.37009916607	0
0	31627	12846.773555552836	1
0	31628	12847.126315957806	0
0	31635	12848.680408619879	1
0	31636	12848.704345370722	0
0	31645	12849.149524927292	1
0	31646	12849.70326035636	0
0	31660	12862.417394744209	1
0	31663	12863.09593893823	0
0	31672	12863.587799898553	1
0	31673	12864.055683067048	0
0	31745	12884.60500967287	1
0	31746	12884.902114745422	0
0	31750	12885.161663553339	1
0	31751	12885.611066918361	0
0	31755	12885.670207909157	1
0	31756	12886.330462993781	0
0	31810	12907.216204189224	1
0	31811	12908.090809727678	0
0	31855	12928.426958440481	1
0	31856	12928.595739110167	0
0	31875	12934.275205196416	1
0	31876	12935.044424215152	0
0	31940	12950.209498127118	1
0	31941	12950.699664323373	0
0	31960	12966.46453761595	1
0	31961	12966.727104545546	0
0	32015	12979.079031301829	1
0	32016	12979.668496242992	0
0	32025	12982.090817923671	1
0	32026	12982.411021895274	0
0	32182	13062.542525859971	1
0	32183	13062.831342147674	0
0	32190	13063.726414193621	1
0	32191	13064.497805078664	0
0	32225	13073.208280212166	1
0	32226	13073.222007296167	0
0	32235	13074.021875617751	1
0	32236	13074.272172328483	0
0	32375	13137.561796027755	1
0	32376	13138.231095612833	0
0	32390	13153.364581419301	1
0	32391	13153.681304255304	0
0	32465	13203.469201432664	1
0	32466	13203.725862876948	0
0	32495	13217.13565872002	1
0	32496	13217.232401070381	0
0	32535	13233.140259663888	1
0	32536	13233.73914117109	0
0	32555	13237.711791468383	1
0	32556	13237.930420429296	0
0	32650	13262.624939933629	1
0	32651	13263.051339379077	0
0	32660	13265.258094090671	1
0	32661	13265.360307037622	0
0	32670	13266.074015076343	1
0	32671	13267.021564125713	0
0	32702	13274.170081033719	1
0	32703	13274.444903077875	0
0	32787	13342.736640173597	1
0	32788	13343.489897046947	0
0	32797	13344.096274454692	1
0	32798	13344.685887283377	0
0	32809	13345.737949962264	1
0	32810	13345.993400760844	0
0	32816	13346.304451828995	1
0	32817	13346.46977692336	0
0	32821	13346.800498770697	1
0	32822	13346.916107850533	0
0	32839	13349.985176342689	1
0	32840	13350.071145256107	0
0	33075	13438.273013631987	1
0	33076	13438.93979032293	0
0	33250	13536.296560771706	1
0	33251	13536.56246244719	0
0	33335	13561.120179989082	1
0	33338	13561.580770196919	0
0	33355	13564.145721355007	1
0	33357	13564.254943698439	2
0	33358	13564.464809490117	1
0	33365	13564.939834361179	0
0	33372	13565.639852242125	1
0	33373	13566.33742513706	0
0	33380	13567.820498794938	1
0	33381	13568.072877060929	0
0	33390	13568.76971539756	1
0	33391	13569.228668600721	0
0	33540	13624.239385566445	1
0	33541	13624.586764691363	0
0	33557	13626.161803393235	1
0	33558	13626.808770652593	0
0	33572	13628.77533855962	1
0	33573	13628.843028350373	0
0	33580	13630.672183084922	1
0	33581	13630.811671551702	0
0	33685	13702.687009527574	1
0	33686	13703.122339642245	0
0	33715	13719.957102355176	1
0	33716	13720.694402278552	0
0	33760	13741.203242049522	1
0	33761	13741.61634421809	0
0	33765	13742.261318886178	1
0	33766	13742.352367560746	0
0	33770	13742.40222766856	1
0	33773	13742.770605187718	0
0	33865	13773.092783711944	1
0	33866	13773.253810826065	0
0	33875	13789.890440187719	1
0	33876	13790.408489127865	0
0	33885	13810.71961622193	1
0	33886	13810.847133727929	0
0	33890	13811.110519095091	1
0	33891	13811.254711710753	0
0	34000	13857.886647261966	1
0	34001	13858.780435934885	0
0	34010	13860.086456513512	1
0	34011	13860.20693906959	0
0	34020	13861.299304447759	1
0	34021	13861.62943828591	0
0	34070	13875.724923444056	1
0	34071	13876.427719757136	0
0	34135	13904.33603696662	1
0	34136	13904.74133886931	0
0	34185	13919.383263983457	1
0	34186	13919.950436640893	0
0	34205	13927.244739185982	1
0	34206	13927.821483235855	0
0	34230	13936.098954855428	1
0	34231	13936.405619223451	0
0	34297	13961.438064541961	1
0	34298	13962.095812640548	0
0	34305	13962.853171418007	1
0	34308	13963.690227841981	0
0	34315	13964.847592827088	1
0	34316	13965.225001326412	0
0	34410	14024.817190008834	1
0	34411	14025.124128781026	0
0	34445	14038.570793177026	1
0	34446	14039.340501969189	0
0	34485	14057.649053795592	1
0	34488	14057.922660036674	0
0	34515	14062.743094774961	1
0	34516	14063.462663463114	0
0	34600	14105.012071636183	1
0	34601	14105.165254228364	0
0	34605	14105.401187494229	1
0	34606	14106.128768839303	0
0	34610	14106.147372210737	1
0	34612	14106.582654545939	2
0	34613	14106.665166495729	1
0	34616	14107.121802770288	0
0	34620	14107.559426100147	1
0	34621	14107.904459448426	0
0	34625	14108.353312458706	1
0	34626	14108.358862511429	0
0	34754	14154.293546189948	1
0	34757	14154.646269505246	0
0	34764	14155.491044380162	1
0	34765	14155.918619990589	0
0	34790	14160.58499047509	1
0	34791	14160.915595120336	0
0	34800	14161.839646606273	1
0	34801	14162.338485730298	0
0	34815	14171.021109782742	1
0	34816	14171.787483288543	0
0	34820	14172.118883771007	1
0	34821	14172.568565664356	0
0	34840	14175.540072830241	1
0	34841	14175.546837734564	0
0	34892	14184.942621624018	1
0	34893	14185.341265147382	0
0	34897	14185.543813431487	1
0	34898	14186.133790891215	0
0	34905	14187.260821925317	1
0	34906	14187.363240204162	0
0	34910	14187.608370930947	1
0	34913	14188.236833400249	0
0	34925	14189.763565466835	1
0	34926	14190.171925048872	0
0	35030	14236.544562315035	1
0	35031	14236.997430253655	0
0	35120	14313.491420379829	1
0	35121	14313.786185788074	0
0	35132	14314.592202449881	1
0	35133	14315.463364846761	0
0	35140	14316.070871218089	1
0	35141	14316.640643249348	0
0	35150	14317.738065595884	1
0	35151	14318.528093989332	0
0	35205	14336.678085485955	1
0	35206	14337.189022500774	0
0	35210	14337.479064301375	1
0	35211	14338.182481754439	0
0	35215	14338.239252698204	1
0	35218	14338.705732586429	0
0	35222	14338.810101574713	1
0	35223	14339.324010165696	0
0	35227	14339.465131521376	1
0	35228	14340.191266271946	0
0	35232	14340.467731889541	1
0	35233	14341.0901540713	0
0	35237	14341.179130805631	1
0	35238	14341.932033952567	0
0	35242	14342.192863294845	1
0	35243	14342.479523806702	0
0	35247	14342.578916009534	1
0	35248	14343.422307548588	0
0	35252	14343.666792048287	1
0	35253	14344.013352128034	0
0	35262	14345.210727529547	1
0	35263	14345.360643851906	0
0	35270	14345.87677880905	1
0	35273	14346.236797856269	0
0	35282	14347.53812942843	1
0	35283	14347.604956712397	0
0	35360	14375.648087070531	1
0	35361	14375.914409222383	0
0	35370	14376.775110704656	1
0	35375	14377.35326056762	0
0	35382	14378.473983995807	1
0	35383	14378.867139914421	0
0	35420	14384.40061084916	1
0	35421	14384.527899194376	0
0	35512	14409.260092726652	1
0	35513	14409.674696028974	0
0	35520	14410.457723562386	1
0	35521	14411.308957305267	0
0	35615	14444.893039374576	1
0	35616	14445.324335265564	0
0	35680	14482.741632646943	1
0	35682	14483.14242881519	2
0	35683	14483.230439056924	1
0	35686	14483.698657386613	0
0	35725	14505.423893785022	1
0	35729	14505.654517647686	2
0	35730	14505.707611394986	1
0	35737	14506.241835885016	0
0	35744	14507.695301095619	1
0	35745	14508.116240539156	0
0	35845	14556.353970351915	1
0	35846	14556.503624722992	0
0	35850	14556.854432885549	1
0	35851	14557.27520897689	0
0	35865	14560.562900817879	1
0	35866	14560.902327820912	0
0	35870	14561.155213859842	1
0	35871	14561.395653261311	0
0	35875	14561.930097145246	1
0	35876	14562.128407134369	0
0	35880	14562.737745047882	1
0	35881	14562.837474326158	0
0	35900	14572.230069915251	1
0	35901	14572.584091133044	0
0	35980	14591.77849906792	1
0	35981	14591.9312385601	0
0	36055	14635.685273266634	1
0	36056	14636.217547704539	0
0	36065	14637.001071045425	1
0	36066	14637.347910149515	0
0	36105	14684.948401311715	1
0	36106	14685.088314075487	0
0	36120	14687.450724601311	1
0	36121	14687.850280667645	0
0	36185	14724.996039984567	1
0	36186	14725.156222970755	0
0	36195	14725.671190840262	1
0	36197	14725.749852586387	2
0	36198	14726.229704169016	1
0	36201	14727.085129092373	0
0	36205	14727.223636417146	1
0	36206	14728.045062620398	0
0	36210	14728.341286617934	1
0	36212	14728.552639306753	2
0	36213	14728.605539022033	1
0	36217	14729.450292828711	2
0	36218	14729.464890125087	1
0	36222	14729.613385231707	2
0	36223	14729.940502724443	1
0	36226	14730.526748652729	0
0	36240	14733.170933293918	1
0	36241	14733.348959300702	0
0	36375	14786.923425756409	1
0	36376	14787.449966877848	0
0	36395	14794.379605929898	1
0	36396	14794.81068353877	0
0	36445	14802.097307949333	1
0	36446	14802.902170370288	0
0	36535	14832.812455072979	1
0	36536	14832.996867108214	0
0	36545	14834.732499697106	1
0	36546	14835.160508408383	0
0	36585	14876.914388296634	1
0	36588	14877.586593202775	0
0	36595	14878.364527989483	1
0	36596	14878.875107908848	0
0	36690	14926.260947530437	1
0	36693	14926.697593924835	0
0	36704	14927.793780511395	1
0	36705	14928.003077844869	0
0	36800	14991.58212421024	1
0	36801	14991.874175302261	0
0	36820	15001.013197150703	1
0	36821	15001.449095625571	0
0	36910	15057.35815757306	1
0	36911	15057.572176648843	0
0	36920	15059.475209461254	1
0	36921	15059.848754357765	0
0	36955	15075.104344763177	1
0	36956	15075.535649201107	0
0	36962	15075.922970154891	1
0	36963	15076.421224758188	0
0	36967	15076.490261456876	1
0	36968	15077.154559857837	0
0	36972	15077.696725228995	1
0	36973	15078.089780835361	0
0	36982	15078.902621717675	1
0	36984	15078.902770865496	2
0	36985	15079.212004925237	1
0	36988	15079.635056146068	0
0	36992	15079.97295053314	1
0	36993	15080.059172621995	0
0	37055	15099.566758650781	1
0	37056	15099.942991636807	0
0	37095	15118.06474601425	1
0	37096	15118.439067985012	0
0	37100	15118.515210732572	1
0	37101	15119.202863362093	0
0	37130	15124.330079907367	1
0	37131	15124.393842885266	0
0	37160	15136.08155411924	1
0	37161	15136.396981967044	0
0	37170	15137.15672189162	1
0	37171	15137.512124648912	0
0	37185	15139.009275152458	1
0	37186	15139.354748094704	0
0	37195	15141.102600263958	1
0	37196	15141.1215845077	0
0	37207	15142.414985009027	1
0	37208	15142.515947967691	0
0	37215	15143.271344099986	1
0	37216	15144.070274471834	0
0	37265	15173.790004552519	1
0	37266	15173.919467411774	0
0	37320	15205.812647449305	1
0	37321	15206.104115450827	0
0	37325	15206.293408692112	1
0	37326	15207.073236038422	0
0	37330	15207.213680923089	1
0	37331	15207.860471619086	0
0	37335	15208.084828038395	1
0	37336	15208.707935492674	0
0	37340	15208.71766909347	1
0	37341	15209.485571437914	0
0	37365	15218.34577007143	1
0	37366	15219.131373232569	0
0	37417	15236.446999275406	1
0	37418	15236.487959173358	0
0	37425	15237.26807321453	1
0	37426	15237.497911364435	0
0	37460	15253.751474067175	1
0	37461	15254.286732867627	0
0	37525	15293.890755194378	1
0	37526	15294.409309149235	0
0	37610	15320.13223392734	1
0	37611	15320.259374961889	0
0	37625	15322.573388349808	1
0	37628	15323.330947004374	0
0	37670	15345.289701473235	1
0	37671	15345.391771975029	0
0	37685	15347.437429172707	1
0	37686	15347.800257351137	0
0	37770	15381.793864678551	1
0	37771	15381.853696192854	0
0	37785	15394.293148927603	1
0	37786	15394.54460532398	0
0	37852	15410.545080112967	1
0	37853	15411.140686811613	0
0	37857	15411.341315146307	1
0	37858	15411.587319911424	0
0	37862	15411.651572295996	1
0	37864	15412.32107888319	2
0	37865	15412.431879541896	1
0	37869	15412.67723537208	2
0	37870	15412.953404336622	1
0	37874	15413.258086132921	2
0	37875	15413.789319252841	1
0	37879	15413.935023591002	2
0	37880	15414.519993505034	1
0	37883	15415.331565079478	0
0	37887	15415.386587801423	1
0	37888	15415.74952029331	0
0	37900	15417.390427537798	1
0	37901	15417.63648077167	0
0	37912	15418.41573784746	1
0	37913	15418.860736248656	0
0	37927	15423.868655801915	1
0	37928	15424.408371562661	0
0	37937	15425.660525121745	1
0	37938	15425.709296627586	0
0	37945	15426.380586329231	1
0	37946	15427.142804527014	0
0	37967	15429.433125112158	1
0	37968	15430.267193828441	0
0	38050	15464.979048558697	1
0	38051	15465.076848224922	0
0	38160	15524.397796403844	1
0	38161	15524.596367950489	0
0	38240	15554.132572685125	1
0	38241	15554.778581561491	0
0	38325	15575.995315938507	1
0	38326	15576.275742612975	0
0	38335	15577.230192330272	1
0	38337	15577.69684046801	2
0	38338	15577.858597157021	1
0	38343	15578.474656892112	0
0	38350	15579.082757347412	1
0	38351	15579.656293060128	0
0	38355	15579.776642761015	1
0	38358	15580.365023968006	0
0	38362	15580.442349342127	1
0	38363	15580.858973585964	0
0	38370	15581.809941801342	1
0	38371	15582.226066641892	0
0	38405	15596.863538711286	1
0	38406	15597.339544052892	0
0	38410	15597.636486591209	1
0	38411	15598.275398017215	0
0	38415	15598.558459005344	1
0	38416	15599.175823382549	0
0	38445	15605.638261337933	1
0	38448	15606.000429465145	0
0	38485	15623.882537262476	1
0	38486	15624.132914492249	0
0	38540	15635.019559433211	1
0	38541	15635.361563967221	0
0	38550	15636.637674699043	1
0	38551	15636.674313300691	0
0	38580	15640.940080941313	1
0	38581	15641.129396814188	0
0	38590	15641.899662922917	1
0	38591	15642.474362639278	0
0	38595	15642.896378574062	1
0	38596	15643.271938252482	0
0	38610	15645.146964643045	1
0	38613	15645.612624409456	0
0	38617	15646.057629153723	1
0	38620	15646.575122081801	0
0	38624	15647.056068576527	1
0	38625	15647.256307864688	0
0	38629	15647.278869503019	1
0	38630	15647.877651125738	0
0	38637	15648.739809650235	1
0	38639	15649.394226793694	2
0	38640	15649.57407106346	1
0	38645	15650.418286791849	0
0	38649	15651.252829842113	1
0	38650	15651.37345853372	0
0	38654	15651.403085639766	1
0	38655	15652.266253122254	0
0	38659	15652.690226643012	1
0	38660	15653.135751778339	0
0	38664	15653.248095545402	1
0	38665	15653.996648206781	0
0	38674	15654.883255950413	1
0	38675	15655.782772735027	0
0	38685	15657.719326757669	1
0	38686	15658.00064830923	0
0	38770	15708.968002781995	1
0	38771	15709.062875731125	0
0	38790	15716.884228530038	1
0	38792	15716.981701344491	2
0	38793	15717.436625103563	1
0	38798	15718.23474701052	0
0	38802	15719.050234008243	1
0	38803	15719.184021496916	0
0	38810	15720.241781977587	1
0	38812	15720.449931440984	2
0	38813	15720.501007826816	1
0	38816	15721.299314077668	0
0	38830	15723.71095257978	1
0	38831	15724.186088837888	0
0	38835	15724.401789311759	1
0	38836	15724.662955212099	0
0	38850	15728.685049456276	1
0	38851	15729.084286802562	0
0	38870	15731.843274377049	1
0	38871	15732.276750878104	0
0	38900	15745.756353104285	1
0	38901	15746.011715817325	0
0	39032	15799.428948013947	1
0	39033	15800.017599292538	0
0	39040	15801.082495405081	1
0	39041	15801.302214409943	0
0	39090	15811.976695904831	1
0	39093	15812.346232369323	0
0	39102	15813.27331090843	1
0	39103	15813.766567643419	0
0	39222	15865.365153774207	1
0	39223	15865.520848725024	0
0	39234	15866.313820636577	1
0	39235	15866.62863932027	0
0	39244	15867.571778425898	1
0	39245	15867.982764327978	0
0	39249	15868.372708462128	1
0	39250	15868.513626376339	0
0	39285	15873.626547457218	1
0	39286	15874.340197281406	0
0	39290	15874.975731029651	1
0	39291	15875.199407496682	0
0	39295	15875.401818659116	1
0	39296	15875.725121278834	0
0	39325	15897.976463901809	1
0	39326	15898.025438790608	0
0	39330	15898.390954500617	1
0	39331	15898.691588033482	0
0	39415	15934.221478273471	1
0	39417	15934.332498704316	2
0	39418	15934.485960152048	1
0	39421	15935.349465509179	0
0	39460	15974.708305822434	1
0	39461	15975.033250193899	0
0	39525	16001.073545284743	1
0	39526	16001.414785869142	0
0	39735	16097.960615488347	1
0	39736	16098.429389764211	0
0	39750	16100.982445450376	1
0	39751	16101.626265157633	0
0	39755	16101.678559769053	1
0	39758	16102.364201795416	0
0	39762	16102.637651761291	1
0	39763	16103.354959740922	0
0	39770	16104.469523583807	1
0	39771	16105.113936263243	0
0	39820	16126.319959492143	1
0	39821	16127.098344920478	0
0	39827	16127.570707725647	1
0	39828	16127.742955283723	0
0	39837	16129.016503541296	1
0	39838	16129.256899816864	0
0	39980	16182.723113002816	1
0	39981	16183.284727060607	0
0	40080	16234.50300408727	1
0	40081	16235.208037095523	0
0	40115	16273.766753500402	1
0	40116	16273.959220762945	0
0	40165	16290.747973920852	1
0	40167	16291.524470250762	2
0	40168	16291.587013043415	1
0	40172	16291.982304007478	2
0	40173	16292.405923270526	1
0	40176	16292.891402962058	0
0	40180	16293.051658571038	1
0	40182	16293.403299278681	2
0	40183	16293.605576576618	1
0	40187	16293.890532896295	2
0	40188	16294.472388588823	1
0	40192	16294.534458714149	2
0	40193	16295.430825287057	1
0	40197	16296.182534778706	2
0	40198	16296.348231007997	1
0	40202	16296.377316373498	2
0	40203	16296.836843404127	1
0	40206	16297.768145502172	0
0	40210	16297.924556074985	1
0	40211	16298.596372392634	0
0	40300	16345.469323225886	1
0	40301	16346.233706289829	0
0	40360	16372.076225277415	1
0	40361	16372.163963190604	0
0	40385	16378.499572703495	1
0	40386	16379.156551594181	0
0	40480	16406.841897331343	1
0	40481	16407.026128765854	0
0	40490	16408.06938916751	1
0	40493	16408.680347870762	0
0	40507	16410.391883029095	1
0	40508	16410.892862061883	0
0	40517	16411.931223226294	1
0	40518	16412.538529939955	0
0	40525	16413.468795932912	1
0	40526	16414.280888773739	0
0	40535	16415.587198121345	1
0	40536	16415.865158049488	0
0	40550	16417.785724663951	1
0	40551	16418.397266003222	0
0	40600	16432.120046977208	1
0	40601	16432.592306337368	0
0	40695	16466.347258954501	1
0	40696	16466.670666946587	0
0	40745	16478.177037280098	1
0	40748	16478.462774323363	0
0	40752	16478.70041911025	1
0	40754	16478.788607475599	2
0	40755	16479.339634913828	1
0	40758	16479.82414353268	0
0	40764	16480.057395369015	1
0	40766	16480.225323314991	2
0	40767	16480.351299389701	1
0	40771	16480.689609580533	2
0	40772	16481.140889415115	1
0	40775	16481.673569125838	0
0	40782	16482.390194726228	1
0	40785	16483.047055129444	0
0	40900	16533.531249641946	1
0	40901	16534.420821807823	0
0	41090	16626.348298523956	1
0	41093	16626.615336195032	0
0	41097	16626.78099634165	1
0	41100	16627.148416798354	0
0	41104	16627.453617287148	1
0	41105	16627.616888796144	0
0	41112	16628.18082159108	1
0	41113	16629.023495033362	0
0	41130	16631.897580781736	1
0	41131	16632.374847892715	0
0	41140	16633.336571909563	1
0	41141	16634.107052069526	0
0	41215	16662.729730730515	1
0	41217	16663.381675723766	2
0	41218	16663.548577979929	1
0	41221	16663.999571915879	0
0	41325	16741.900875024608	1
0	41326	16742.375944888161	0
0	41332	16743.302175452345	1
0	41333	16743.338838323939	0
0	41340	16744.297823841836	1
0	41341	16744.797096351336	0
0	41460	16814.082465405477	1
0	41461	16814.263422085391	0
0	41465	16814.424140163072	1
0	41468	16815.058867872506	0
0	41472	16815.726563179632	1
0	41473	16815.78291571266	0
0	41477	16816.066342868123	1
0	41478	16816.415645042062	0
0	41485	16818.086692087312	1
0	41486	16818.11211183141	0
0	41570	16846.58651417076	1
0	41573	16847.264156437658	0
0	41577	16847.326414343049	1
0	41578	16847.699656559147	0
0	41587	16848.673841167196	1
0	41590	16849.393284645577	0
0	41594	16849.81522739974	1
0	41595	16850.03763357824	0
0	41599	16850.363824313881	1
0	41602	16850.676585446897	0
0	41606	16851.320776693626	1
0	41607	16851.427012647309	0
0	41720	16926.160850767476	1
0	41721	16926.373938645467	0
0	41740	16929.37153678582	1
0	41741	16929.899581309925	0
0	41785	16950.124995155496	1
0	41786	16950.519595625763	0
0	41810	16955.960270392171	1
0	41811	16956.022589635454	0
0	41875	16982.231659846721	1
0	41876	16982.502460774085	0
0	41905	16990.057384214978	1
0	41906	16990.235963641723	0
0	41915	16991.701124017546	1
0	41916	16992.096108728491	0
0	42035	17040.495647374321	1
0	42036	17040.609675050717	0
0	42040	17040.899005395876	1
0	42043	17041.215082803279	0
0	42050	17042.423505108846	1
0	42051	17042.547142231142	0
0	42165	17132.428588192071	1
0	42166	17132.506116573907	0
0	42185	17136.44219746624	1
0	42186	17137.200730163568	0
0	42330	17209.889962876886	1
0	42333	17210.525320699868	0
0	42337	17210.740766937774	1
0	42338	17211.212651372758	0
0	42370	17223.795607014992	1
0	42371	17224.122881412023	0
0	42400	17229.24268040809	1
0	42403	17229.423236897475	0
0	42414	17230.549302524901	1
0	42415	17230.669571951385	0
0	42422	17231.655177348594	1
0	42423	17231.937721501178	0
0	42500	17290.750117694171	1
0	42501	17290.996358460859	0
0	42510	17292.14834329381	1
0	42511	17292.593296793681	0
0	42567	17311.585988976679	1
0	42568	17311.651732081929	0
0	42595	17319.784150740805	1
0	42596	17320.16915357119	0
0	42605	17321.116815845011	1
0	42606	17321.952815024348	0
0	42615	17323.055683201782	1
0	42617	17323.197314055308	2
0	42618	17323.751189796835	1
0	42621	17324.285078567195	0
0	42625	17324.294951015173	1
0	42626	17325.20403013348	0
0	42630	17325.31158289702	1
0	42631	17325.710277802426	0
0	42635	17325.894397018545	1
0	42636	17326.260408313967	0
0	42660	17335.997687782851	1
0	42661	17336.817737179125	0
0	42665	17337.075952089646	1
0	42666	17337.300364735877	0
0	42680	17343.341872120585	1
0	42681	17343.796262069204	0
0	42690	17344.936670328303	1
0	42691	17345.51383582188	0
0	42700	17346.898345954155	1
0	42703	17347.075024558298	0
0	42725	17356.556903097234	1
0	42726	17357.531711696102	0
0	42887	17434.197914663232	1
0	42888	17434.693436843507	0
0	42950	17470.513534917644	1
0	42951	17471.185186142201	0
0	43007	17488.219603897479	1
0	43008	17488.934493342695	0
0	43065	17531.431248053045	1
0	43066	17532.175727124012	0
0	43070	17532.787489420732	1
0	43071	17533.000424774189	0
0	43085	17536.397293932018	1
0	43086	17536.685317434247	0
0	43115	17546.009143557061	1
0	43116	17546.366257719583	0
0	43215	17616.518444839406	1
0	43216	17616.792400274833	0
0	43225	17618.199802653233	1
0	43226	17618.223344147147	0
0	43255	17637.653377011422	1
0	43256	17638.280815547571	0
0	43375	17698.046564427193	1
0	43376	17698.108791891773	0
0	43405	17708.391912956468	1
0	43406	17708.694973849785	0
0	43540	17764.824977853291	1
0	43541	17765.566565480003	0
0	43555	17774.505785633177	1
0	43557	17774.72809238019	2
0	43558	17774.980297340051	1
0	43561	17775.815751694719	0
0	43570	17777.228160486175	1
0	43571	17777.504799852957	0
0	43575	17777.858411962075	1
0	43576	17778.270807380387	0
0	43585	17779.847736994109	1
0	43586	17780.433104975632	0
0	43660	17817.651388305011	1
0	43663	17818.409251305898	0
0	43702	17824.789389726767	1
0	43703	17825.03459670819	0
0	43725	17830.955646817869	1
0	43726	17831.061603587865	0
0	43735	17832.707961927291	1
0	43738	17833.00712061457	0
0	43777	17843.326993796187	1
0	43780	17843.705311903682	0
0	43787	17844.564283567665	1
0	43790	17845.166414956607	0
0	43825	17852.656753578427	1
0	43828	17853.222288198719	0
0	43840	17855.041442985359	1
0	43841	17855.631362686116	0
0	43850	17856.629491203042	1
0	43852	17856.805599700148	2
0	43853	17857.273702349324	1
0	43860	17857.885387195178	0
0	43864	17858.129231854888	1
0	43867	17858.78972535948	0
0	43874	17859.582793147144	1
0	43875	17859.878218014769	0
0	43907	17864.452070390502	1
0	43908	17864.698562467422	0
0	43912	17864.87653247131	1
0	43913	17865.539599849095	0
0	43917	17865.812764187562	1
0	43919	17866.095001294796	2
0	43920	17866.275699920391	1
0	43924	17866.342279788744	2
0	43925	17866.701262209515	1
0	43929	17866.794393213809	2
0	43932	17867.324932901279	1
0	43935	17867.796455466046	0
0	43939	17868.294160563431	1
0	43940	17868.430303857612	0
0	43944	17868.68898324689	1
0	43945	17868.859417705514	0
0	43949	17868.870999703596	1
0	43952	17869.552204392754	0
0	43958	17870.128233187136	1
0	43959	17870.367938788278	0
0	43969	17871.588987301747	1
0	43970	17871.778770723237	0
0	44000	17879.296995108437	1
0	44001	17879.512171802457	0
0	44050	17903.955485603554	1
0	44051	17904.083447269263	0
0	44065	17906.097072678644	1
0	44066	17906.297530024227	0
0	44155	17942.340386397352	1
0	44156	17943.016333775927	0
0	44210	17969.528672275637	1
0	44211	17969.675272334023	0
0	44215	17970.212206138376	1
0	44216	17970.488670241628	0
0	44255	17977.697047312058	1
0	44256	17978.420134725225	0
0	44260	17978.972897740515	1
0	44261	17979.077656640847	0
0	44320	17997.815120195461	1
0	44323	17998.512877428811	0
0	44390	18034.682555078231	1
0	44391	18035.438376872835	0
0	44400	18036.175435341998	1
0	44402	18036.948525852729	2
0	44403	18037.024026311503	1
0	44406	18037.652978600829	0
0	44419	18038.643240187352	1
0	44420	18039.024395213683	0
0	44450	18052.50555652524	1
0	44451	18052.810879453264	0
0	44520	18093.160512583209	1
0	44521	18093.34545715495	0
0	44710	18161.031308703796	1
0	44711	18161.222621400145	0
0	44750	18167.848154620088	1
0	44751	18168.413257350156	0
0	44760	18169.099540648767	1
0	44761	18169.678783464118	0
0	44775	18171.630127536381	1
0	44776	18171.715675826817	0
0	44829	18189.559319465666	1
0	44830	18189.928194604257	0
0	44920	18253.92958559568	1
0	44921	18254.28965667937	0
0	44935	18256.663357828926	1
0	44936	18257.118678448355	0
0	45030	18284.645295948356	1
0	45033	18285.596445337469	0
0	45100	18306.251710400873	1
0	45101	18307.130103096102	0
0	45140	18331.1282785079	1
0	45143	18331.793272179907	0
0	45160	18335.563169609579	1
0	45161	18335.685114918496	0
0	45180	18341.510975853658	1
0	45181	18341.897892917881	0
0	45195	18343.092182853083	1
0	45196	18343.695922432051	0
0	45212	18345.059790757185	1
0	45219	18345.446861359752	0
0	45230	18346.54706472407	1
0	45231	18347.24314451506	0
0	45240	18348.565597661902	1
0	45241	18348.947121422594	0
0	45294	18356.01486666961	1
0	45295	18356.677840520159	0
0	45304	18357.360095453377	1
0	45305	18357.776363271332	0
0	45309	18357.916468492364	1
0	45310	18358.484819032062	0
0	45314	18358.496917845732	1
0	45317	18358.955111480454	0
0	45321	18359.000812333873	1
0	45322	18359.428539106805	0
0	45326	18359.487718852293	1
0	45327	18360.185283562677	0
0	45331	18360.555872652286	1
0	45332	18360.594126471082	0
0	45336	18360.822462044819	1
0	45337	18361.04231224721	0
0	45341	18361.190063529691	1
0	45342	18361.486978107921	0
0	45346	18361.510930258529	1
0	45347	18362.111111476549	0
0	45439	18397.335583440906	1
0	45440	18397.418004053086	0
0	45449	18397.925149564358	1
0	45450	18398.535739329551	0
0	45457	18399.165761792221	1
0	45460	18399.9930866207	0
0	45565	18440.101004011591	1
0	45566	18440.788225491863	0
0	45570	18441.089058065947	1
0	45571	18441.306886911677	0
0	45575	18441.445019294558	1
0	45576	18442.139771020837	0
0	45595	18451.300620531865	1
0	45596	18452.176978623844	0
0	45650	18468.223646426575	1
0	45651	18468.841472400979	0
0	45672	18496.738181465345	1
0	45673	18496.771925748594	0
0	45680	18497.602095975365	1
0	45683	18498.29552016178	0
0	45692	18499.152612883499	1
0	45693	18499.886524044851	0
0	45715	18521.902484669971	1
0	45716	18522.3862072207	0
0	45720	18522.577959096121	1
0	45721	18523.046315451755	0
0	45730	18524.145813664818	1
0	45732	18524.330891130959	2
0	45733	18524.852671419442	1
0	45736	18525.8238117406	0
0	45800	18586.714173211835	1
0	45801	18587.130653441621	0
0	45815	18591.098164057687	1
0	45816	18591.391340119912	0
0	45885	18626.906647624885	1
0	45886	18627.582018611098	0
0	45932	18632.968507822499	1
0	45933	18633.328992606695	0
0	45995	18659.528456240698	1
0	45996	18659.581883168042	0
0	46005	18660.631058872297	1
0	46007	18660.668078174717	2
0	46008	18660.676421048733	1
0	46011	18661.199613682934	0
0	46110	18680.376612649446	1
0	46113	18681.0103006776	0
0	46120	18681.651895999099	1
0	46121	18681.875067946552	0
0	46150	18687.025543494922	1
0	46151	18687.224703896617	0
0	46160	18687.860376398587	1
0	46161	18688.333354622371	0
0	46240	18728.251391977071	1
0	46243	18728.735407613671	0
0	46250	18729.365423171137	1
0	46251	18730.047735760116	0
0	46280	18749.63109175965	1
0	46281	18750.087342881622	0
0	46290	18751.244677838037	1
0	46291	18751.906739332039	0
0	46465	18835.398576003122	1
0	46466	18835.481571929832	0
0	46475	18836.188290310672	1
0	46476	18836.744932809076	0
0	46580	18869.0397434086	1
0	46581	18869.168324688221	0
0	46590	18871.145026709115	1
0	46591	18871.723897632057	0
0	46635	18886.745593714633	1
0	46636	18886.802899259503	0
0	46660	18898.889078515139	1
0	46661	18899.544791683195	0
0	46760	18939.453936934851	1
0	46761	18939.491677333503	0
0	46765	18939.502663463355	1
0	46766	18940.285117309676	0
0	46830	18979.422773776048	1
0	46834	18979.734485711384	2
0	46835	18979.735930637338	1
0	46838	18980.686805425466	0
0	46842	18980.938479613434	1
0	46843	18981.380830156266	0
0	46847	18981.429039403737	1
0	46848	18982.099375370865	0
0	46855	18983.72954325737	1
0	46856	18983.830862775653	0
0	46865	18986.236210818692	1
0	46866	18986.530726681737	0
0	46880	18987.881660491347	1
0	46881	18988.777336290416	0
0	46940	19002.044594294595	1
0	46941	19002.486042610172	0
0	46995	19030.57991405151	1
0	46996	19030.775285208958	0
0	47035	19038.340325044845	1
0	47038	19039.034260851301	0
0	47045	19040.052332945284	1
0	47046	19040.320064365834	0
0	47057	19041.319185869362	1
0	47058	19041.511022592772	0
0	47067	19042.394311715833	1
0	47068	19042.909153335605	0
0	47075	19044.112218095433	1
0	47076	19044.3118048364	0
0	47080	19044.430416728154	1
0	47083	19045.264904602541	0
0	47090	19046.233142742374	1
0	47091	19046.542837863013	0
0	47110	19063.546242127673	1
0	47111	19063.780180899863	0
0	47115	19063.90186534036	1
0	47118	19064.649316240259	0
0	47185	19079.486127638714	1
0	47186	19079.745872800783	0
0	47190	19079.985270861645	1
0	47191	19080.197473822054	0
0	47195	19080.611858038636	1
0	47196	19081.033426415068	0
0	47200	19081.447155180063	1
0	47201	19081.672713230303	0
0	47335	19131.85552406002	1
0	47336	19132.026830689314	0
0	47345	19132.825903335258	1
0	47346	19133.423438879097	0
0	47350	19133.813462715644	1
0	47351	19134.117391075421	0
0	47355	19134.542540548269	1
0	47356	19134.991302196396	0
0	47517	19222.789009472733	1
0	47518	19223.599518864356	0
0	47555	19233.743099054283	1
0	47556	19234.061105813639	0
0	47565	19234.944164007438	1
0	47566	19235.392756631825	0
0	47575	19236.617186665372	1
0	47576	19237.045208300133	0
0	47615	19255.201413963072	1
0	47616	19255.315305626942	0
0	47640	19267.013901821642	1
0	47641	19267.141719188051	0
0	47675	19281.925761731698	1
0	47677	19282.091902241537	2
0	47678	19282.184135014723	1
0	47689	19283.024239656256	0
0	47696	19283.606992036294	1
0	47697	19284.363978025989	0
0	47785	19322.710758005072	1
0	47786	19322.975619744483	0
0	47830	19349.101060919335	1
0	47831	19349.853046122822	0
0	47835	19349.989449202005	1
0	47836	19350.361643354339	0
0	47840	19350.607940697257	1
0	47841	19351.113340073754	0
0	47850	19352.574286122315	1
0	47851	19352.711997580179	0
0	47880	19366.603711224047	1
0	47881	19366.835078365314	0
0	47895	19368.632593715271	1
0	47897	19368.837177131259	2
0	47898	19369.138687420748	1
0	47902	19369.565328957082	2
0	47903	19369.851222800156	1
0	47906	19370.296820649989	0
0	47910	19370.638908586563	1
0	47912	19370.741686666813	2
0	47913	19370.838598147566	1
0	47918	19371.514783404647	0
0	47935	19374.599415247082	1
0	47936	19374.830496976805	0
0	48125	19463.232409393455	1
0	48126	19464.008706748652	0
0	48137	19465.308209430866	1
0	48138	19465.515771808362	0
0	48245	19495.588431710417	1
0	48246	19496.105639816596	0
0	48270	19503.454643908643	1
0	48271	19504.209130403919	0
0	48280	19505.326775803386	1
0	48281	19505.477912177619	0
0	48295	19507.270726134468	1
0	48296	19507.838193960345	0
0	48380	19531.305185599822	1
0	48381	19531.740266191799	0
0	48387	19532.138871213663	1
0	48388	19532.585263438642	0
0	48392	19532.722957208425	1
0	48393	19533.46083722187	0
0	48400	19534.297801597322	1
0	48401	19534.884066346081	0
0	48412	19535.628071076405	1
0	48413	19536.525051370243	0
0	48422	19537.740961424293	1
0	48423	19537.973892201882	0
0	48475	19547.236587336801	1
0	48476	19547.314815099544	0
0	48500	19552.609299025222	1
0	48503	19553.035865575703	0
0	48510	19554.029005274329	1
0	48511	19554.47183816356	0
0	48520	19555.75259425514	1
0	48525	19556.435718369702	0
0	48532	19557.442082636421	1
0	48533	19557.822277188053	0
0	48555	19561.171207304577	1
0	48556	19561.938478188713	0
0	48580	19575.992147633288	1
0	48583	19576.400285407116	0
0	48587	19576.445248674327	1
0	48588	19576.866726571049	0
0	48592	19577.076695446441	1
0	48593	19577.552884224809	0
0	48710	19641.20822620399	1
0	48711	19641.492414420584	0
0	48720	19642.454694396933	1
0	48721	19643.270723983973	0
0	48900	19732.122376794342	1
0	48901	19732.639386620562	0
0	48910	19733.614348513105	1
0	48911	19733.969350154375	0
0	48935	19739.209152979337	1
0	48937	19739.325744818622	2
0	48938	19739.466396531754	1
0	48941	19739.880819913477	0
0	48950	19740.709047689	1
0	48951	19741.576933867267	0
0	48955	19741.990332584929	1
0	48956	19742.452312176131	0
0	48970	19752.079332291486	1
0	48971	19752.891027081352	0
0	48980	19754.214908128054	1
0	48981	19754.237844516155	0
0	49105	19811.372503318381	1
0	49106	19812.275713912951	0
0	49120	19814.877385346491	1
0	49121	19814.986147769294	0
0	49190	19838.367349136539	1
0	49191	19838.566043387959	0
0	49230	19847.073944459101	1
0	49234	19847.188078266373	2
0	49235	19847.4563811339	1
0	49238	19848.080210918517	0
0	49244	19848.15013818346	1
0	49245	19848.904055436238	0
0	49249	19849.203289489713	1
0	49250	19849.397715759653	0
0	49262	19851.064889469021	1
0	49263	19851.350203244344	0
0	49275	19854.38646612703	1
0	49276	19855.090229269877	0
0	49450	19908.894238670736	1
0	49451	19909.286268553416	0
0	49485	19923.200231675198	1
0	49486	19923.28480579769	0
0	49490	19923.543966949631	1
0	49491	19924.251047472281	0
0	49497	19924.631772159962	1
0	49498	19924.92834835816	0
0	49505	19925.910292130355	1
0	49506	19926.196192710006	0
0	49515	19926.952235301904	1
0	49516	19927.552637380219	0
0	49565	19936.776754579058	1
0	49566	19937.174110774907	0
0	49640	19973.245831400749	1
0	49641	19973.396675854371	0
0	49645	19973.546610425978	1
0	49646	19974.257498267115	0
0	49650	19974.349788944351	1
0	49653	19974.810345075195	0
0	49685	19983.11478009195	1
0	49686	19983.296514573983	0
0	49704	19985.406967900867	1
0	49705	19985.505024949557	0
0	49709	19985.557914906967	1
0	49712	19986.079912356336	0
0	49765	20009.303856697063	1
0	49766	20010.176866965109	0
0	49790	20018.417129436277	1
0	49791	20018.514382405633	0
0	49805	20020.831105277948	1
0	49806	20021.190529350754	0
0	49810	20021.686341666426	1
0	49811	20022.148374289557	0
0	49815	20022.733178577096	1
0	49816	20022.803177336095	0
0	49820	20022.823310878853	1
0	49821	20023.573110009873	0
0	49825	20023.77237392726	1
0	49826	20024.334994255056	0
0	49830	20024.735574907169	1
0	49831	20025.297105539826	0
0	49905	20046.853062694035	1
0	49906	20046.861568973228	0
0	49932	20053.0292018494	1
0	49933	20053.682922193754	0
0	50010	20078.32253351473	1
0	50012	20078.396048873396	2
0	50013	20078.416320056301	1
0	50016	20079.335026377878	0
0	50020	20079.459585334526	1
0	50022	20080.161680493866	2
0	50023	20080.171993736476	1
0	50027	20080.53178797032	2
0	50028	20081.02020134178	1
0	50032	20081.079903877986	2
0	50033	20081.879703832343	1
0	50036	20082.618059282955	0
0	50040	20082.815657679508	1
0	50042	20083.108304802937	2
0	50043	20083.2021469888	1
0	50047	20083.530681475872	2
0	50048	20083.981094487589	1
0	50053	20084.909233665811	0
0	50195	20129.291763137267	1
0	50196	20129.654055007284	0
0	50322	20188.032729164894	1
0	50323	20188.169374079797	0
0	50327	20188.251574181395	1
0	50330	20189.090867694728	0
0	50336	20189.693019247819	1
0	50337	20189.828970808424	0
0	50375	20199.369750598828	1
0	50376	20200.276949408682	0
0	50380	20201.037975368831	1
0	50381	20201.180597197249	0
0	50395	20202.695843591663	1
0	50396	20203.049104082369	0
0	50405	20203.788657686775	1
0	50407	20204.572360760628	2
0	50408	20204.587111635011	1
0	50411	20205.069646512362	0
0	50450	20230.807856195672	1
0	50451	20231.455539751882	0
0	50510	20244.564804091325	1
0	50511	20245.040440707019	0
0	50520	20246.149730196566	1
0	50521	20246.217401856108	0
0	50660	20291.345425931506	1
0	50661	20291.408753364	0
0	50665	20291.850928520752	1
0	50666	20292.193133933914	0
0	50697	20297.02499760404	1
0	50698	20297.953117934821	0
0	50707	20298.794653764128	1
0	50708	20299.469442853165	0
0	50790	20334.073056232573	1
0	50791	20334.597105306183	0
0	50805	20336.990229682822	1
0	50806	20337.656458357797	0
0	50840	20348.031912718991	1
0	50841	20348.476842585074	0
0	50847	20348.619433884434	1
0	50849	20349.007336391688	2
0	50850	20349.209073399713	1
0	50854	20349.529678293713	2
0	50855	20350.199620902452	1
0	50858	20350.817875468645	0
0	50862	20351.177305047245	1
0	50863	20351.507951268049	0
0	50870	20352.286048720819	1
0	50871	20352.486895532587	0
0	50902	20376.416401528759	1
0	50903	20376.841232125696	0
0	50967	20393.231921070408	1
0	50968	20393.405701497685	0
0	51080	20456.430752411589	1
0	51081	20456.693102484737	0
0	51095	20458.892249477558	1
0	51096	20458.993351259518	0
0	51135	20474.747743927562	1
0	51136	20475.391167923444	0
0	51145	20481.901034689322	1
0	51146	20482.344739799306	0
0	51150	20482.686732902146	1
0	51151	20482.779347649042	0
0	51160	20484.181933904091	1
0	51161	20484.278620951648	0
0	51165	20484.431733217486	1
0	51166	20484.712963390236	0
0	51200	20493.373713705394	1
0	51201	20493.967564752721	0
0	51205	20494.405323430778	1
0	51206	20494.777530742879	0
0	51215	20495.695456876938	1
0	51216	20496.009051570273	0
0	51235	20499.68408903236	1
0	51236	20499.86539517381	0
0	51260	20512.062026729414	1
0	51261	20512.554405018835	0
0	51317	20526.39846162909	1
0	51318	20526.513929751697	0
0	51327	20527.213828926454	1
0	51328	20528.049903721637	0
0	51337	20529.166878785639	1
0	51338	20529.630252321526	0
0	51345	20530.41465696073	1
0	51346	20530.961294599292	0
0	51380	20541.517092312349	1
0	51381	20541.803463579597	0
0	51402	20544.02749658969	1
0	51405	20544.187112565247	0
0	51435	20550.960755291208	1
0	51436	20551.664261650843	0
0	51455	20555.890060616362	1
0	51458	20556.729459947029	0
0	51465	20557.395461928191	1
0	51468	20558.023600696035	0
0	51472	20558.646299256563	1
0	51473	20558.766000904989	0
0	51547	20572.413922409077	1
0	51548	20572.945812491439	0
0	51615	20595.936732560079	1
0	51616	20596.818210058102	0
0	51655	20622.93230370462	1
0	51656	20623.354823515631	0
0	51805	20698.735936811884	1
0	51806	20699.440663610022	0
0	51810	20699.655159122146	1
0	51811	20700.416883493024	0
0	52069	20808.496433187805	1
0	52070	20809.100976846543	0
0	52077	20809.924550436839	1
0	52078	20810.303428827076	0
0	52087	20811.058965529805	1
0	52088	20811.344814180013	0
0	52150	20830.375550688682	1
0	52151	20830.680230313498	0
0	52215	20859.617209684837	1
0	52216	20860.131456701044	0
0	52225	20861.439184531193	1
0	52226	20861.525546641217	0
0	52280	20882.820299657389	1
0	52281	20883.335330439034	0
0	52330	20914.290366282471	1
0	52331	20914.68324632119	0
0	52350	20917.636103986577	1
0	52351	20917.954689957082	0
0	52402	20945.340928268757	1
0	52403	20945.498663500631	0
0	52407	20945.633104045374	1
0	52410	20946.298708362579	0
0	52570	21010.862824877373	1
0	52571	21011.751234838716	0
0	52575	21012.01587832653	1
0	52577	21012.019190218357	2
0	52578	21012.354694819427	1
0	52581	21013.149891101173	0
0	52600	21020.806392818178	1
0	52603	21021.195866945847	0
0	52610	21021.803637498229	1
0	52611	21022.380219342369	0
0	52645	21028.03804826808	1
0	52646	21028.677281033199	0
0	52690	21055.672416739059	1
0	52691	21056.491388072849	0
0	52722	21070.866697529485	1
0	52723	21071.422434663956	0
0	52740	21074.464242362559	1
0	52741	21074.508789256778	0
0	52750	21075.424573531277	1
0	52751	21075.744120622803	0
0	52840	21114.324991878762	1
0	52841	21115.051569860711	0
0	52875	21131.441066417239	1
0	52876	21131.583264741036	0
0	52885	21132.711121525394	1
0	52887	21133.246778854349	2
0	52888	21133.565484740886	1
0	52891	21134.253574434363	0
0	52990	21199.927332821787	1
0	52991	21200.497192879635	0
0	53040	21215.478953895866	1
0	53041	21215.945909546058	0
0	53050	21216.461052935145	1
0	53051	21217.208531297551	0
0	53055	21217.826952984923	1
0	53056	21218.087271192152	0
0	53070	21220.371847669105	1
0	53071	21220.768236908591	0
0	53100	21225.705589563901	1
0	53102	21225.772645329314	2
0	53103	21226.330878420916	1
0	53106	21227.31932737366	0
0	53110	21227.417759530582	1
0	53111	21227.931539315355	0
0	53120	21229.147739746701	1
0	53121	21229.180457429594	0
0	53160	21251.135066900709	1
0	53161	21251.675496266754	0
0	53285	21321.227782588298	1
0	53286	21321.838133128285	0
0	53340	21342.646300957033	1
0	53341	21342.951821258145	0
0	53360	21349.034464783318	1
0	53361	21349.08523814168	0
0	53425	21360.53461266551	1
0	53426	21360.733758684696	0
0	53525	21431.049244335344	1
0	53526	21431.794413452036	0
0	53530	21431.848339751023	1
0	53531	21432.642940358817	0
0	53650	21495.64621455518	1
0	53651	21495.812501018433	0
0	53750	21560.484244063814	1
0	53753	21560.89534729018	0
0	53760	21561.768270031689	1
0	53762	21561.822849769442	2
0	53763	21562.151212433606	1
0	53766	21562.85520466745	0
0	53770	21563.318329209335	1
0	53771	21563.453171765172	0
0	53775	21563.837674737763	1
0	53776	21564.205920205983	0
0	53780	21564.231242993058	1
0	53781	21565.06824318531	0
0	53785	21565.497983607924	1
0	53786	21565.829231293286	0
0	53795	21570.383139110791	1
0	53797	21570.546130916131	2
0	53798	21570.571462058076	1
0	53801	21571.515828254526	0
0	53837	21597.605227920938	1
0	53838	21597.850774105684	0
0	53860	21602.365514389835	1
0	53863	21603.00645450517	0
0	53955	21632.152171393265	1
0	53960	21632.524528667727	0
0	53967	21633.684909678299	1
0	53969	21633.704447273627	2
0	53970	21634.202066284535	1
0	53975	21634.611300132308	0
0	53979	21635.232879649033	1
0	53980	21635.559604174109	0
0	53984	21635.573270776062	1
0	53985	21636.34709732493	0
0	53995	21637.762251841026	1
0	53999	21638.212304260336	2
0	54000	21638.240207693656	1
0	54003	21638.862472283584	0
0	54007	21639.076922599016	1
0	54008	21639.766914335429	0
0	54012	21639.998165299115	1
0	54015	21640.586594163743	0
0	54073	21650.116698283414	1
0	54074	21650.328984232946	0
0	54185	21692.019361344453	1
0	54186	21692.398615266189	0
0	54315	21769.084707320451	1
0	54316	21769.599426402459	0
0	54320	21769.824223934149	1
0	54321	21770.525673949979	0
0	54340	21774.189986865027	1
0	54341	21775.138355409908	0
0	54350	21775.765639490461	1
0	54351	21776.470654762585	0
0	54385	21788.647358381867	1
0	54386	21788.716589073538	0
0	54455	21819.993631392087	1
0	54456	21820.282312333564	0
0	54495	21832.226808273357	1
0	54496	21832.622224869667	0
0	54505	21833.255485025698	1
0	54506	21834.043701607324	0
0	54555	21847.424461865318	1
0	54556	21847.756318541331	0
0	54560	21848.32801993851	1
0	54561	21848.497568350699	0
0	54565	21848.631185476079	1
0	54566	21849.273339951545	0
0	54570	21849.786608918448	1
0	54571	21849.90453574764	0
0	54580	21850.486954500965	1
0	54581	21851.129417291884	0
0	54610	21860.06702782126	1
0	54611	21860.322246369861	0
0	54640	21866.833137844014	1
0	54641	21867.5653958792	0
0	54645	21867.822250600498	1
0	54646	21868.019441237361	0
0	54650	21868.269184806938	1
0	54651	21868.489834872787	0
0	54700	21890.852989753149	1
0	54701	21890.884671071041	0
0	54715	21892.776407034998	1
0	54716	21893.045157050158	0
0	54810	21942.689768298539	1
0	54811	21943.048264650259	0
0	54815	21943.707179952695	1
0	54816	21943.892086414531	0
0	54820	21944.002854279477	1
0	54821	21944.647400665008	0
0	54895	21981.526027131541	1
0	54896	21981.97511867046	0
0	54900	21982.526551578146	1
0	54901	21982.619455958005	0
0	54930	22008.695348796922	1
0	54935	22008.875409031238	0
0	55040	22053.785042455949	1
0	55041	22053.948129926283	0
0	55052	22055.061977198808	1
0	55053	22055.413731126847	0
0	55125	22081.810041953875	1
0	55126	22082.447560952043	0
0	55135	22083.702563761622	1
0	55136	22084.378655807562	0
0	55350	22173.634407121068	1
0	55351	22173.717623710104	0
0	55410	22186.736354767458	1
0	55411	22187.152177273195	0
0	55450	22195.368844362513	1
0	55451	22195.550237468562	0
0	55480	22202.850024270532	1
0	55483	22203.248665163417	0
0	55492	22204.217159351807	1
0	55493	22204.951281630651	0
0	55530	22225.998391838327	1
0	55531	22226.578417091336	0
0	55690	22271.948223353017	1
0	55691	22271.959755542097	0
0	55700	22272.73568192501	1
0	55701	22273.329769613329	0
0	55715	22275.209404381894	1
0	55716	22275.724681257019	0
0	55725	22276.712535815626	1
0	55726	22276.912213410651	0
0	55835	22329.096823449671	1
0	55836	22329.278555693392	0
0	55905	22358.033820418734	1
0	55906	22358.173510697734	0
0	55915	22359.837386980577	1
0	55916	22359.853739698668	0
0	55945	22384.668710631448	1
0	55946	22385.014056986815	0
0	56000	22396.917375080218	1
0	56001	22397.346562636695	0
0	56015	22398.861285876469	1
0	56016	22399.408350557673	0
0	56050	22419.391246125925	1
0	56051	22419.985855407021	0
0	56185	22469.846068398956	1
0	56186	22470.366249224674	0
0	56195	22471.187473500839	1
0	56196	22471.623242780417	0
0	56220	22474.419106138992	1
0	56221	22475.048663316643	0
0	56275	22495.288925073625	1
0	56276	22495.710801403391	0
0	56287	22496.932268232722	1
0	56288	22497.474049975284	0
0	56710	22649.446339129427	1
0	56711	22649.627600493405	0
0	56830	22698.025161045112	1
0	56831	22698.482557389226	0
0	56855	22704.741974205247	1
0	56856	22705.32076368924	0
0	56970	22744.789220749234	1
0	56973	22745.217120907164	0
0	57065	22802.921348879559	1
0	57066	22803.455577983643	0
0	57070	22803.708110158757	1
0	57071	22804.182926387043	0
0	57075	22804.759432065381	1
0	57076	22804.892149796552	0
0	57080	22805.589210764797	1
0	57081	22805.719407177559	0
0	57100	22825.793807701351	1
0	57101	22826.42675728416	0
0	57165	22875.131178461904	1
0	57166	22875.798429649664	0
0	57200	22883.707995858927	1
0	57201	22883.751959729922	0
0	57205	22883.809918749848	1
0	57208	22884.661984861438	0
0	57212	22884.955206730355	1
0	57213	22885.408909573528	0
0	57217	22885.887527437771	1
0	57219	22886.025933177614	2
0	57220	22886.161022176716	1
0	57224	22886.300119597302	2
0	57225	22886.709666734265	1
0	57229	22886.991614178769	2
0	57230	22887.426087307541	1
0	57233	22887.925433718071	0
0	57240	22889.165259628331	1
0	57241	22889.425084811898	0
0	57250	22890.938696051697	1
0	57251	22891.442213074996	0
0	57255	22892.011667186498	1
0	57256	22892.288639993586	0
0	57262	22892.774128534334	1
0	57263	22892.822085639548	0
0	57272	22893.772667887368	1
0	57274	22894.344834763842	2
0	57275	22894.461053404764	1
0	57279	22894.472310065593	2
0	57280	22894.939469966984	1
0	57283	22895.607240656198	0
0	57287	22895.855201890719	1
0	57288	22896.120903307752	0
0	57295	22897.113467951041	1
0	57299	22897.291976195682	2
0	57300	22897.383869469346	1
0	57303	22898.18448062315	0
0	57312	22898.691331231734	1
0	57314	22898.986481091197	2
0	57315	22899.287636503013	1
0	57318	22900.115962559212	0
0	57325	22900.687914769938	1
0	57326	22901.032654388244	0
0	57335	22904.661630725171	1
0	57336	22905.002976834913	0
0	57360	22915.154327603807	1
0	57361	22915.869879555191	0
0	57392	22923.625542021807	1
0	57393	22923.983559557494	0
0	57400	22924.808748471136	1
0	57401	22925.671041245457	0
0	57475	22940.517113043429	1
0	57476	22940.546709085131	0
0	57500	22944.487508202171	1
0	57503	22945.118023264933	0
0	57510	22945.984021087702	1
0	57511	22946.0799450935	0
0	57520	22947.069989803963	1
0	57521	22947.251983310435	0
0	57542	22963.079300406678	1
0	57543	22963.356120746788	0
0	57550	22964.313097154081	1
0	57552	22964.486080118987	2
0	57554	22964.631736222465	3
0	57555	22964.968676085556	2
0	57560	22965.839579306375	1
0	57564	22966.230421305103	2
0	57565	22966.675733287884	1
0	57568	22967.365520324716	0
0	57595	22977.306253045469	1
0	57596	22977.419350648961	0
0	57602	22977.811490799142	1
0	57603	22978.113330278696	0
0	57607	22978.245370822765	1
0	57608	22978.532792988291	0
0	57620	22980.7315447797	1
0	57621	22980.91039571712	0
0	57660	22988.274092654786	1
0	57661	22988.804740841848	0
0	57675	22992.073666129162	1
0	57676	22992.480367569687	0
0	57735	23018.124680099404	1
0	57738	23019.005259207601	0
0	57745	23019.706737579141	1
0	57746	23020.087943835289	0
0	57755	23020.748457516222	1
0	57756	23021.010188290303	0
0	57845	23043.828491711638	1
0	57846	23044.691676419414	0
0	57875	23053.459731176745	1
0	57878	23054.129002473987	0
0	57975	23137.094721763117	1
0	57976	23137.845259841236	0
0	58075	23170.112381303363	1
0	58077	23170.279149615881	2
0	58078	23170.310031416621	1
0	58081	23171.165578078739	0
0	58085	23171.359220574917	1
0	58086	23171.931608890816	0
0	58090	23172.025806026467	1
0	58091	23172.552142353849	0
0	58095	23172.719748434806	1
0	58096	23173.099167940374	0
0	58110	23174.829247070907	1
0	58112	23175.06628219621	2
0	58113	23175.296222855033	1
0	58116	23175.946975485304	0
0	58225	23237.175093349516	1
0	58226	23237.336894787591	0
0	58230	23237.859936122006	1
0	58231	23237.904529253509	0
0	58235	23238.121167927196	1
0	58236	23238.388006826326	0
0	58245	23239.314253875517	1
0	58246	23239.686822453135	0
0	58435	23369.556822123621	1
0	58436	23369.876985383098	0
0	58440	23370.114359355573	1
0	58441	23370.56140462567	0
0	58460	23374.176199533655	1
0	58461	23375.0366843758	0
0	58540	23390.307400226356	1
0	58541	23390.498622934224	0
0	58552	23391.762900708609	1
0	58553	23391.787240446156	0
0	58564	23392.585471676016	1
0	58565	23393.066909110111	0
0	58581	23394.620355337318	1
0	58582	23395.037762688969	0
0	58670	23420.090798747152	1
0	58671	23420.864136551921	0
0	58680	23422.097102280988	1
0	58681	23422.756556552923	0
0	58735	23445.476423432451	1
0	58736	23445.870576023311	0
0	58820	23467.365262884435	1
0	58821	23467.787035640279	0
0	58830	23468.716624596652	1
0	58831	23469.178665808585	0
0	58852	23472.856914870061	1
0	58853	23473.254582870922	0
0	58857	23473.511835221562	1
0	58858	23473.819524465066	0
0	58862	23474.153214226245	1
0	58863	23474.346809851129	0
0	58867	23474.647470881567	1
0	58868	23475.317061572785	0
0	58872	23475.422862781682	1
0	58873	23475.999459171419	0
0	58885	23477.61474084436	1
0	58886	23477.93131538901	0
0	58910	23482.633101915503	1
0	58912	23482.893157629569	2
0	58913	23483.243421401545	1
0	58918	23484.074821981318	0
0	58970	23518.827325445804	1
0	58971	23519.086988343066	0
0	59025	23554.790972398532	1
0	59027	23555.234843124797	2
0	59028	23555.449430145588	1
0	59033	23555.901247505177	0
0	59037	23556.334658441157	1
0	59038	23556.460548889855	0
0	59042	23556.59612886869	1
0	59043	23557.408721114494	0
0	59047	23557.68161491739	1
0	59049	23557.854066696864	2
0	59050	23558.041168981683	1
0	59054	23558.199901407368	2
0	59055	23558.490794066372	1
0	59059	23558.543727307842	2
0	59061	23558.782864836155	3
0	59064	23559.473370227622	2
0	59067	23560.171833940441	1
0	59071	23560.51325857846	2
0	59075	23560.622713699366	3
0	59076	23560.653397733098	2
0	59080	23560.694231625431	3
0	59081	23561.119859297326	2
0	59084	23561.583318196315	1
0	59088	23561.845375200444	2
0	59089	23562.102985665932	1
0	59092	23562.92571064344	0
0	59099	23564.187223131614	1
0	59100	23564.333426813393	0
0	59107	23565.100148097614	1
0	59110	23565.789684589564	0
0	59125	23568.253331080034	1
0	59126	23568.771288384481	0
0	59135	23569.782799337248	1
0	59137	23569.86425489157	2
0	59138	23570.45123732361	1
0	59143	23570.929268500591	0
0	59155	23571.902711942038	1
0	59156	23572.837689347529	0
0	59220	23583.925635116594	1
0	59223	23584.484292394945	0
0	59227	23584.707970356969	1
0	59229	23584.764081156241	2
0	59230	23585.377752150919	1
0	59236	23586.291784909751	2
0	59237	23586.311583885967	1
0	59240	23586.922576525758	0
0	59247	23587.781433350309	1
0	59248	23588.38997418652	0
0	59410	23651.854474991442	1
0	59413	23652.24342474383	0
0	59430	23659.190159385783	1
0	59431	23659.479830947384	0
0	59465	23669.322703635628	1
0	59466	23669.638141528369	0
0	59475	23670.796456707939	1
0	59476	23671.011905472392	0
0	59495	23675.047829766058	1
0	59498	23675.570622506353	0
0	59507	23676.598402036932	1
0	59509	23677.021487629773	2
0	59510	23677.412050693563	1
0	59513	23677.863485963677	0
0	59625	23717.087509740564	1
0	59626	23717.222728733429	0
0	59635	23718.083821489082	1
0	59636	23718.643617180553	0
0	59645	23735.768897101685	1
0	59646	23735.878318866324	0
0	59705	23754.29686770473	1
0	59708	23754.520377908064	0
0	59712	23754.840355353001	1
0	59713	23755.460611351555	0
0	59719	23755.826465947612	1
0	59720	23756.026246663717	0
0	59732	23757.511497871956	1
0	59735	23758.001752588314	0
0	59755	23761.913755991438	1
0	59756	23762.649703622537	0
0	59870	23795.780957462911	1
0	59871	23796.59717654639	0
0	59880	23797.322232303576	1
0	59881	23798.059184888492	0
0	59980	23833.623887997202	1
0	59982	23834.126156546411	2
0	59983	23834.213761286463	1
0	59987	23834.454809529824	2
0	59988	23835.106475438482	1
0	59991	23835.593219082455	0
0	60005	23837.629910158764	1
0	60006	23838.309693148776	0
0	60120	23927.282841338484	1
0	60121	23927.350771174344	0
0	60130	23928.317154718727	1
0	60131	23928.921843075237	0
0	60140	23931.64539099328	1
0	60142	23931.726470435529	2
0	60143	23931.880797988647	1
0	60146	23932.398851760156	0
0	60160	23934.145304154733	1
0	60163	23934.763426050967	0
0	60245	23977.976517118856	1
0	60246	23978.272853864754	0
0	60252	23978.624228972752	1
0	60253	23979.031698164368	0
0	60257	23979.680712208824	1
0	60260	23979.884377918184	0
0	60264	23979.899116668247	1
0	60265	23980.358235438658	0
0	60315	23996.0325899373	1
0	60318	23996.923221022525	0
0	60395	24052.023576310846	1
0	60396	24052.670793869021	0
0	60405	24053.232236742574	1
0	60406	24053.860510214046	0
0	60480	24067.944066631193	1
0	60483	24068.39903998608	0
0	60550	24093.928523605057	1
0	60551	24094.54320175472	0
0	60585	24107.435036907984	1
0	60586	24108.105945915883	0
0	60645	24136.394070500149	1
0	60646	24136.929972049363	0
0	60655	24138.22504874807	1
0	60659	24138.769156087316	2
0	60660	24138.916400110245	1
0	60663	24139.687870090723	0
0	60705	24151.477298962414	1
0	60706	24152.044925266259	0
0	60760	24185.41016976185	1
0	60761	24185.683473887682	0
0	60800	24194.677298857164	1
0	60801	24194.861177324432	0
0	60810	24196.01109237896	1
0	60811	24196.612750458185	0
0	60990	24289.923670601392	1
0	60991	24290.361643591416	0
0	60995	24290.54185106789	1
0	60996	24290.934707232411	0
0	61000	24291.802694159388	1
0	61001	24291.915452647428	0
0	61010	24293.327694219163	1
0	61011	24293.500450567777	0
0	61015	24294.110775020786	1
0	61017	24294.366564205147	2
0	61018	24294.400944152304	1
0	61021	24294.990040611212	0
0	61025	24295.002077283452	1
0	61026	24295.508581585592	0
0	61060	24304.540642117817	1
0	61062	24304.871347143719	2
0	61063	24305.335995859976	1
0	61068	24306.195337243934	0
0	61075	24306.83284996793	1
0	61076	24307.523667022583	0
0	61130	24342.803860549346	1
0	61131	24343.009641654177	0
0	61200	24371.168427623607	1
0	61201	24371.240864324714	0
0	61355	24454.053987580435	1
0	61356	24454.25198962191	0
0	61365	24464.46114751256	1
0	61366	24464.822338343131	0
0	61380	24466.630634113053	1
0	61382	24466.953536842895	2
0	61383	24467.174099290456	1
0	61386	24468.037200481576	0
0	61395	24469.348980279621	1
0	61396	24470.00592248754	0
0	61425	24484.313011525847	1
0	61426	24484.431866619939	0
0	61450	24510.672271498775	1
0	61451	24510.896263071308	0
0	61470	24514.215063020216	1
0	61471	24514.912808435228	0
0	61480	24517.548273451319	1
0	61481	24517.556949685409	0
0	61485	24517.688251851168	1
0	61486	24518.021932095045	0
0	61565	24574.089856782908	1
0	61566	24574.140694364827	0
0	61600	24605.891953249719	1
0	61601	24606.531679141702	0
0	61605	24606.931550357984	1
0	61606	24607.27953165769	0
0	61700	24646.735335252695	1
0	61701	24647.642078815829	0
0	61740	24676.43908828527	1
0	61741	24676.634659323648	0
0	61755	24678.726295992908	1
0	61756	24678.848167025945	0
0	61765	24680.010553489086	1
0	61766	24680.798163296884	0
0	61770	24680.880691210019	1
0	61771	24681.795525895987	0
0	61780	24682.98173425562	1
0	61781	24683.834196582076	0
0	61805	24692.794480734595	1
0	61807	24692.972887928276	2
0	61808	24693.339474200449	1
0	61813	24693.880784589649	0
0	61905	24724.518936731666	1
0	61908	24724.934029322002	0
0	61950	24744.603074924828	1
0	61953	24745.337990104046	0
0	62075	24786.824332854085	1
0	62076	24786.993268103405	0
0	62120	24827.099957789956	1
0	62121	24827.823053783607	0
0	62125	24827.83086834393	1
0	62126	24828.567235582704	0
0	62185	24853.056798698971	1
0	62186	24853.384216852623	0
0	62347	24907.438235541564	1
0	62348	24907.865154168382	0
0	62445	24937.480446054387	1
0	62446	24937.623691665295	0
0	62455	24938.215025106347	1
0	62457	24938.64925927213	2
0	62458	24938.906144351845	1
0	62461	24939.487005456637	0
0	62465	24939.974235170169	1
0	62466	24940.42154345867	0
0	62470	24940.438111303632	1
0	62473	24940.996816064611	0
0	62477	24941.10298882139	1
0	62478	24941.95553679467	0
0	62600	24995.055386468599	1
0	62601	24995.723578073738	0
0	62640	25008.928374044912	1
0	62641	25009.531946436586	0
0	62675	25032.460600249558	1
0	62676	25032.669118070941	0
0	62685	25034.309424142007	1
0	62686	25034.435321780446	0
0	62735	25074.183372766827	1
0	62736	25074.56342632798	0
0	62835	25126.139569493308	1
0	62836	25126.323122121723	0
0	62947	25178.290960059964	1
0	62948	25178.423012727101	0
0	62955	25179.774184433555	1
0	62956	25180.160434615028	0
0	62982	25193.676867815443	1
0	62983	25194.158763119434	0
0	63015	25204.351078714379	1
0	63016	25205.064430324988	0
0	63082	25248.933166301332	1
0	63083	25249.051860120652	0
0	63087	25249.427034155986	1
0	63088	25249.932447185825	0
0	63100	25251.926200502643	1
0	63101	25252.00810027713	0
0	63110	25252.740770722793	1
0	63111	25253.409631018705	0
0	63135	25261.344676316047	1
0	63136	25261.830269764902	0
0	63140	25261.854889620637	1
0	63141	25262.321549088441	0
0	63290	25335.012595534971	1
0	63292	25335.105412190212	2
0	63293	25335.637963585136	1
0	63298	25336.304751014523	0
0	63302	25336.944043574006	1
0	63303	25337.146000339323	0
0	63310	25338.084778546216	1
0	63311	25338.432438897714	0
0	63500	25411.135641990779	1
0	63501	25411.284682938266	0
0	63510	25412.525693563946	1
0	63511	25413.365961264984	0
0	63515	25413.626754388751	1
0	63516	25414.284885942403	0
0	63525	25415.58651496878	1
0	63526	25416.124550784073	0
0	63620	25474.214877071822	1
0	63621	25474.886452964816	0
0	63650	25494.385478241284	1
0	63651	25494.40156470218	0
0	63670	25499.185143831956	1
0	63671	25499.66215943018	0
0	63722	25523.692936609538	1
0	63724	25524.43126126719	2
0	63725	25524.516162129472	1
0	63732	25525.43155005712	0
0	63801	25534.953938357554	1
0	63802	25535.33344793518	0
0	63819	25537.382657674328	1
0	63822	25537.78719039632	0
0	63882	25546.87481168553	1
0	63883	25546.909055170213	0
0	63887	25547.528179827083	1
0	63888	25547.766353274725	0
0	63895	25548.73346093106	1
0	63896	25549.616140453873	0
0	63925	25557.432992745909	1
0	63926	25557.570585174024	0
0	63940	25561.652459122554	1
0	63943	25562.559044460988	0
0	63952	25563.734879054263	1
0	63953	25564.505293269352	0
0	63995	25592.99904582431	1
0	63996	25593.498929579244	0
0	64035	25625.719264298553	1
0	64036	25625.809775187331	0
0	64095	25648.49285283368	1
0	64096	25648.940389888178	0
0	64130	25670.064354422907	1
0	64131	25670.286898449542	0
0	64190	25703.674404087454	1
0	64191	25704.003766904278	0
0	64200	25705.401372251619	1
0	64201	25705.609823337077	0
0	64205	25705.723896334403	1
0	64206	25706.412428937779	0
0	64220	25709.045275920645	1
0	64221	25709.697109826737	0
0	64252	25721.64669087227	1
0	64253	25722.260842136954	0
0	64264	25723.110891449456	1
0	64265	25723.547628982979	0
0	64292	25727.098829521689	1
0	64293	25727.393428929532	0
0	64302	25728.434304532351	1
0	64303	25729.256103956057	0
0	64307	25729.716238849106	1
0	64308	25729.967236368042	0
0	64315	25730.464328033679	1
0	64317	25730.988487983447	2
0	64319	25731.010467463759	3
0	64320	25731.363537732569	2
0	64324	25731.439463555282	3
0	64327	25731.970216785289	2
0	64330	25732.60070567039	1
0	64334	25732.737228709618	2
0	64337	25733.395133737718	1
0	64340	25734.063923804379	0
0	64347	25734.789653588467	1
0	64348	25735.186367104212	0
0	64395	25746.466883420207	1
0	64398	25747.115184967502	0
0	64405	25748.223262920689	1
0	64406	25748.660256998104	0
0	64445	25783.822918872112	1
0	64446	25784.268126997518	0
0	64500	25814.591911101596	1
0	64501	25814.825312324223	0
0	64675	25877.702561524575	1
0	64676	25878.112611482231	0
0	64685	25878.892703713055	1
0	64686	25879.46533780483	0
0	64695	25880.671843640099	1
0	64696	25881.15296108189	0
0	64715	25885.463336846947	1
0	64716	25885.912647892377	0
0	64737	25890.485139119906	1
0	64738	25890.573063390535	0
0	64747	25891.77817191635	1
0	64748	25891.869955329802	0
0	64770	25896.974140850635	1
0	64771	25897.519142147012	0
0	64780	25899.768642270818	1
0	64781	25899.868223735103	0
0	64785	25900.197211213874	1
0	64787	25900.272500250732	2
0	64788	25900.785538845574	1
0	64791	25901.602898335941	0
0	64850	25920.833511213396	1
0	64851	25921.136608565261	0
0	64855	25921.284480482401	1
0	64856	25921.756007267244	0
0	64860	25922.017397536524	1
0	64861	25922.231055476738	0
0	64865	25922.494922914921	1
0	64866	25922.898241391022	0
0	64905	25947.719589023251	1
0	64906	25947.780260783899	0
0	64915	25951.10168550174	1
0	64916	25951.137715356482	0
0	64920	25951.240091099333	1
0	64921	25951.545965116575	0
0	64925	25951.792717741069	1
0	64928	25952.216867883421	0
0	64970	25984.370777196999	1
0	64971	25985.207576757658	0
0	64975	25985.322181084242	1
0	64976	25985.851909441163	0
0	64980	25985.957066559408	1
0	64981	25986.424394450325	0
0	64985	25986.581351999914	1
0	64988	25987.132354595128	0
0	64995	25987.997703131814	1
0	64996	25988.571560576453	0
0	65005	25989.502915469894	1
0	65006	25989.876691755419	0
0	65010	25990.090793441509	1
0	65011	25990.30346730072	0
0	65015	25990.51388401668	1
0	65016	25991.101339039579	0
0	65055	26002.841819480054	1
0	65056	26003.126971778534	0
0	65065	26004.776289691041	1
0	65066	26004.797473267214	0
0	65075	26005.94112715753	1
0	65076	26006.074019885097	0
0	65145	26034.520890120898	1
0	65146	26034.835657282563	0
0	65185	26054.014931271631	1
0	65186	26054.688263129258	0
0	65195	26055.246745451649	1
0	65198	26055.660079147715	0
0	65205	26056.63942152122	1
0	65206	26056.884665464844	0
0	65225	26073.005173864701	1
0	65226	26073.543844284828	0
0	65230	26073.610130408599	1
0	65231	26074.449711583055	0
0	65235	26074.533114487268	1
0	65236	26075.199310936419	0
0	65352	26129.681149290687	1
0	65356	26129.973723058556	2
0	65357	26130.492314960315	1
0	65360	26131.213480702761	0
0	65375	26133.323323681997	1
0	65376	26134.013527364397	0
0	65387	26134.963986433307	1
0	65388	26135.658274493898	0
0	65392	26136.44318860536	1
0	65393	26136.518449295238	0
0	65397	26137.030728818667	1
0	65398	26137.276131657297	0
0	65402	26137.847934222677	1
0	65403	26138.129561294867	0
0	65420	26145.960859797899	1
0	65421	26146.563335848215	0
0	65545	26225.508206308541	1
0	65546	26226.050911245702	0
0	65555	26227.028094713358	1
0	65556	26227.154918804799	0
0	65570	26229.098453293197	1
0	65571	26229.750723799242	0
0	65575	26229.804688866168	1
0	65576	26230.534906474518	0
0	65580	26230.973575802789	1
0	65581	26231.51944195872	0
0	65595	26239.404625595088	1
0	65596	26239.675411377647	0
0	65605	26240.445311838736	1
0	65606	26241.384268365274	0
0	65630	26252.879638449045	1
0	65631	26252.9316652652	0
0	65640	26253.463075566748	1
0	65641	26253.879386653205	0
0	65910	26386.832374323938	1
0	65911	26387.444303552944	0
0	65945	26401.979433240205	1
0	65946	26402.038961696099	0
0	65955	26403.162828285934	1
0	65956	26403.408954291219	0
0	65970	26405.760292938144	1
0	65971	26405.777380378117	0
0	65975	26405.854062755933	1
0	65976	26406.406920496739	0
0	66082	26457.913594570199	1
0	66083	26458.318310098759	0
0	66310	26578.974644298356	1
0	66311	26579.015156188363	0
0	66320	26587.386347958714	1
0	66321	26587.921841977711	0
0	66337	26590.378778147284	1
0	66338	26590.978040718288	0
0	66360	26594.63963539528	1
0	66361	26594.708265010328	0
0	66395	26608.7915674774	1
0	66397	26609.000578374051	2
0	66398	26609.480733432815	1
0	66401	26609.927012940923	0
0	66405	26610.103061518399	1
0	66408	26610.41005367521	0
0	66550	26649.934095181737	1
0	66551	26650.682496055887	0
0	66575	26656.6975308687	1
0	66576	26657.186302261241	0
0	66585	26657.953169843457	1
0	66586	26658.509979629191	0
0	66595	26659.306338425815	1
0	66596	26659.922532809666	0
0	66615	26665.128825375378	1
0	66616	26665.348014878346	0
0	66735	26708.502249638521	1
0	66737	26708.853819852026	2
0	66738	26708.915291840655	1
0	66743	26709.852012168688	0
0	66800	26751.818516958293	1
0	66801	26752.172061993099	0
0	66810	26753.055732085294	1
0	66811	26753.181467917665	0
0	66817	26753.505267746774	1
0	66820	26753.941219215757	0
0	66824	26754.164883199068	1
0	66825	26754.448261737228	0
0	66832	26755.999195375664	1
0	66833	26756.066247923262	0
0	66842	26757.11891369666	1
0	66843	26757.198742900704	0
0	66850	26758.338536322838	1
0	66851	26758.71113386807	0
0	66860	26759.865311584019	1
0	66861	26760.511969409333	0
0	66935	26813.674678068582	1
0	66936	26814.455654884257	0
0	66945	26815.633168222944	1
0	66948	26816.012765471403	0
0	66960	26817.666348585525	1
0	66961	26818.151261573423	0
0	67050	26874.972218285372	1
0	67051	26875.149406452125	0
0	67060	26876.029658008103	1
0	67061	26876.90897655736	0
0	67136	26909.88994027316	1
0	67137	26910.388498769134	0
0	67250	26942.663388773448	1
0	67251	26943.063482631211	0
0	67330	27004.492437079509	1
0	67331	27004.582500915195	0
[...]
7	74420	29872.567986907434	0.800426903367
7	74445	29883.559862902478	4.431139051583
7	74472	29895.867353875914	4.303779446519
7	74500	29913.49340714738	0.537548942957
7	74505	29917.174251699389	0.522680101078
7	74510	29921.554667988344	0.993150681863
7	74525	29928.3402526918	0.736244623782
7	74540	29943.119655188272	2.713962547436
7	74575	29958.856452506136	2.061112815259
7	74580	29978.160322987921	0.471212510066
7	74600	29987.333912129481	0.54770790739
7	74610	29990.618856128444	0.463736271672
8	24627	10058.250330303226	1
8	24629	10058.387144441537	0
8	24835	10101.200635196315	1
8	24839	10101.547109689973	0
8	24842	10101.765342992885	1
8	24844	10102.241925201384	0
8	24975	10159.973814211575	1
8	24976	10160.047064046317	0
8	24987	10161.621432729938	1
8	24991	10163.039833621708	0
8	25030	10174.259240375302	1
8	25031	10174.751618758383	0
8	25100	10201.306201026256	1
8	25101	10201.905872403132	0
8	25120	10205.192420225617	1
8	25121	10205.312721046171	0
8	25172	10213.35231939602	1
8	25175	10213.923260769027	2
8	25176	10215.36541140599	1
8	25184	10215.964047368549	2
8	25186	10216.39495398573	1
8	25191	10216.502768244963	0
8	25194	10216.875562853252	1
8	25198	10217.418344675657	0
8	25201	10217.538861755074	1
8	25203	10217.643877077743	0
8	25211	10218.843702735079	1
8	25215	10219.312538217522	0
8	25592	10367.250778403929	1
8	25599	10370.645076900283	0
8	25775	10453.919442558585	1
8	25776	10453.97529903663	0
8	25780	10454.658668541523	1
8	25781	10455.645957877271	0
8	25792	10456.947579401935	1
8	25795	10457.505997900635	2
8	25796	10458.200009126479	1
8	25799	10458.237319528226	0
8	25802	10459.013303762332	1
8	25804	10459.606492011834	0
8	26094	10569.861768807529	1
8	26096	10570.028226904074	0
8	26304	10680.6955180215	1
8	26306	10680.7727462431	0
8	26770	10860.1910745654	1
8	26771	10861.197121500565	0
8	26777	10862.120207478866	1
8	26786	10864.989597747146	0
8	27047	10968.263033203306	1
8	27049	10968.734977003214	0
8	27052	10969.089374411842	1
8	27054	10969.242048866196	0
8	27059	10969.501301721195	1
8	27067	10970.569760454018	2
8	27069	10971.076222178961	1
8	27076	10972.052317770327	0
8	27089	10974.140966588436	1
8	27093	10974.698558735236	0
8	27096	10974.767569699921	1
8	27101	10975.783260427126	0
8	27480	11132.551575901368	1
8	27489	11136.286276385717	0
8	27827	11255.772198885273	1
8	27830	11256.198560399063	2
8	27831	11257.900432775038	1
8	27836	11258.040831505873	0
8	27839	11258.76110286625	1
8	27844	11259.971437028314	0
8	27847	11260.18780362863	1
8	27849	11260.679453404857	0
8	28120	11373.192037892078	1
8	28121	11373.544966501031	0
8	28125	11374.310590924216	1
8	28126	11377.760704442792	0
8	28140	11382.569683894111	1
8	28141	11383.519965421405	0
8	28210	11414.737146383749	1
8	28211	11415.492936611563	0
8	28670	11631.129388293776	1
8	28671	11632.629984208909	0
8	28955	11789.317856159069	1
8	28956	11790.046122709642	0
8	30295	12339.805789230515	1
8	30296	12339.946090848247	0
8	30520	12455.587497528743	1
8	30521	12456.408395900072	0
8	30525	12457.012046414155	1
8	30526	12457.779901995979	0
8	30852	12566.233181093081	1
8	30856	12567.206673152563	0
8	31277	12728.655008415943	1
8	31282	12729.313801389765	2
8	31286	12731.207664448972	1
8	31291	12732.263087525013	0
8	31515	12811.201222485605	1
8	31516	12811.400252536164	0
8	31520	12812.265425766996	1
8	31521	12813.753487066265	0
8	31542	12816.318301210312	1
8	31546	12818.737598486444	0
8	31900	12938.805923665065	1
8	31901	12939.081282101977	0
8	32105	13013.757644704313	1
8	32106	13015.011781633999	0
8	32265	13091.469822053809	1
8	32266	13091.592598056745	0
8	32557	13237.930420429296	1
8	32561	13238.601931625588	0
8	32895	13369.697870293429	1
8	32896	13370.524155943447	0
8	32985	13414.563676850669	1
8	32986	13415.726782785803	0
8	32995	13417.162467848397	1
8	32996	13417.211770034177	0
8	33055	13435.103078967223	1
8	33056	13435.310779159684	0
8	33155	13478.23019412748	1
8	33156	13478.478550714676	0
8	33160	13479.289330859764	1
8	33161	13481.436116682792	0
8	33907	13813.993123561515	1
8	33910	13814.451359939713	2
8	33911	13815.625103751684	1
8	33916	13817.111542705105	0
8	34690	14131.078297690835	1
8	34691	14131.321989281804	0
8	34880	14181.541184939174	1
8	34907	14187.363240204162	2
8	34911	14188.179424392399	1
8	34919	14189.160047175525	0
8	34922	14189.653130785951	1
8	34927	14190.171925048872	2
8	34929	14190.669318608257	1
8	34934	14191.671839870033	0
8	34952	14194.532275624776	1
8	34954	14194.596416405589	0
8	34959	14195.211043643363	1
8	34961	14195.498095223324	0
8	35465	14401.4572861821	1
8	35466	14401.637621533203	0
8	35514	14409.674696028974	1
8	35522	14411.308957305267	2
8	35526	14411.567805039414	1
8	35532	14412.611171933259	2
8	35534	14412.6794037953	1
8	35537	14413.295885082376	2
8	35540	14413.899180761021	3
8	35541	14414.084668680524	2
8	35544	14414.866765410198	1
8	35547	14415.027738510875	2
8	35550	14415.805615438206	3
8	35556	14418.125873010858	2
8	35559	14418.240389044615	1
8	35564	14418.720753162232	0
8	35567	14419.28196443014	1
8	35569	14419.428452011892	0
8	35572	14419.964159273749	1
8	35576	14423.23515409558	0
8	35935	14581.034041974629	1
8	35936	14581.120480432416	0
8	35940	14581.818937592822	1
8	35941	14581.837361736912	0
8	36435	14801.36870184008	1
8	36436	14801.523755393552	0
8	37030	15088.494144706478	1
8	37031	15089.584976882767	0
8	37385	15229.841241843647	1
8	37391	15231.725728686535	0
8	37395	15232.378471926189	1
8	37396	15233.193398018741	0
8	37545	15306.75222134642	1
8	37546	15307.840850525008	0
8	37575	15313.098927671537	1
8	37576	15313.127674515371	0
8	37747	15378.429106699575	1
8	37749	15378.74305503192	0
8	37752	15379.070344601564	1
8	37755	15379.955208378604	2
8	37756	15380.142678404699	1
8	37759	15380.325261111428	0
8	37902	15417.63648077167	1
8	37904	15417.784860033657	0
8	38005	15450.814706203129	1
8	38006	15451.059700230445	0
8	38010	15451.752242075308	1
8	38011	15453.425286640081	0
8	38430	15604.170790003167	1
8	38431	15604.282959937386	0
8	39085	15811.761138179906	1
8	39086	15811.809003661028	0
8	39224	15865.520848725024	1
8	39226	15865.638059868717	0
8	39950	16175.624018622281	1
8	39951	16177.010329406255	0
8	40245	16309.002610471536	1
8	40246	16311.005183412461	0
8	40565	16420.102073317034	1
8	40566	16420.241764265252	0
8	41557	16843.369320111332	1
8	41561	16844.889181897064	0
8	41930	16995.351185935022	1
8	41931	16995.531509620333	0
8	42902	17436.883779879404	1
8	42904	17437.090849176351	0
8	43135	17553.294608197627	1
8	43136	17553.585729936005	0
8	43385	17699.540336768058	1
8	43386	17699.619258090962	0
8	43475	17741.983146804444	1
8	43476	17742.045108405328	0
8	43687	17822.643735921016	1
8	43689	17823.179320544229	0
8	43692	17823.295177596254	1
8	43696	17824.490575421235	0
8	43710	17826.569956937299	1
8	43711	17828.850822914997	0
8	43807	17848.184908239122	1
8	43810	17848.891312605047	2
8	43811	17850.839504759796	1
8	43815	17851.647457119115	2
8	43819	17852.002701966358	1
8	43826	17852.849944852896	0
8	43842	17855.631362686116	1
8	43844	17856.139731501968	0
8	43854	17857.273702349324	1
8	43856	17857.425970470016	0
8	44052	17904.083447269263	1
8	44059	17905.723926283336	0
8	44430	18040.780918618466	1
8	44431	18041.878484873265	0
8	45273	18353.362235537867	1
8	45275	18353.672642747938	0
8	45390	18375.893531241377	1
8	45391	18376.520986089922	0
8	45395	18377.175903295326	1
8	45396	18377.258933839993	0
8	45430	18396.513183539259	1
8	45434	18396.904150694538	0
8	46060	18673.514669129467	1
8	46061	18673.74205740962	0
8	46065	18674.384084846795	1
8	46066	18674.57173366921	0
8	46080	18676.974295200752	1
8	46081	18677.078593653285	0
8	46085	18677.527399474693	1
8	46089	18677.792436052139	0
8	46102	18679.540294075287	1
8	46111	18680.589490681866	0
8	46114	18681.0103006776	1
8	46122	18681.875067946552	2
8	46126	18683.22602451408	1
8	46129	18683.578380438702	0
8	46135	18684.492988031001	1
8	46136	18684.72926676913	0
8	46515	18854.432025820758	1
8	46519	18854.770622766123	0
8	46522	18855.412614438984	1
8	46529	18856.534232350712	0
8	46532	18856.949869152125	1
8	46536	18858.755388418605	0
8	46540	18859.224302515966	1
8	46541	18859.258870985937	0
8	46905	18993.593120991716	1
8	46906	18993.600468514656	0
8	46915	18994.464972363582	1
8	46916	18994.986215611328	0
8	47015	19033.686234882787	1
8	47016	19034.236357147386	0
8	47155	19069.551065423479	1
8	47156	19069.80408389155	0
8	47160	19070.5918786544	1
8	47161	19070.888465276486	0
8	47260	19101.0031255048	1
8	47261	19101.041750349224	0
8	47270	19102.472806923211	1
8	47271	19102.663772242983	0
8	47679	19282.184135014723	1
8	47681	19282.259818317521	0
8	48075	19445.183834160706	1
8	48076	19445.740154322547	0
8	48164	19469.200121885798	1
8	48166	19469.811944236422	0
8	48169	19470.154351572161	1
8	48171	19470.659761791427	0
8	48335	19523.367617938818	1
8	48336	19524.040514190247	0
8	48435	19539.595314279877	1
8	48441	19541.258507937357	0
8	48465	19545.063082681941	1
8	48466	19545.776366813483	0
8	48490	19549.917121798953	1
8	48491	19550.971802962165	0
8	48495	19551.849408684963	1
8	48496	19552.423201467632	0
8	49020	19769.962867501928	1
8	49021	19770.406682716495	0
8	49277	19855.090229269877	1
8	49281	19856.189250753	0
8	49285	19856.675264570694	1
8	49286	19857.056673127724	0
8	49327	19863.729012446701	1
8	49330	19864.262249163528	2
8	49331	19864.959987516321	1
8	49336	19865.965546677077	0
8	50465	20233.220157614063	1
8	50466	20234.416872361911	0
8	50470	20234.999007943322	1
8	50471	20235.163137992602	0
8	50475	20235.695995108122	1
8	50476	20235.897008699445	0
8	50977	20394.723696881881	1
8	50979	20394.967157496687	0
8	50982	20395.207557720434	1
8	50985	20395.943487130873	2
8	50986	20396.731705193684	1
8	50989	20397.518054526389	0
8	51549	20572.945812491439	1
8	51551	20573.041357152783	0
8	52047	20806.540496733308	1
8	52049	20806.569437547449	0
8	52054	20807.18192796571	1
8	52056	20807.256843703177	0
8	52140	20823.247630066101	1
8	52141	20829.247321447735	0
8	53400	21355.517919498273	1
8	53405	21356.827932363853	2
8	53406	21357.542917589084	1
8	53410	21358.473851496107	2
8	53411	21358.670315604081	1
8	53414	21358.757679327702	0
8	53510	21427.36654433253	1
8	53511	21427.633601477241	0
8	54025	21643.034385960526	1
8	54026	21644.777552114055	0
8	54032	21645.40902406131	1
8	54037	21646.127435164899	2
8	54041	21646.248697733781	1
8	54043	21646.254293352	0
8	54046	21646.827333312622	1
8	54048	21647.550758921654	0
8	54342	21775.138355409908	1
8	54346	21775.734277885782	0
8	54352	21776.470654762585	1
8	54356	21776.967315018731	0
8	54845	21949.253659398807	1
8	54846	21949.871686904422	0
8	54850	21950.496016041479	1
8	54851	21950.792735681471	0
8	54990	22032.159744555671	1
8	54991	22032.909507060265	0
8	55042	22053.948129926283	1
8	55049	22054.725396181419	0
8	55054	22055.413731126847	1
8	55059	22056.211564205365	0
8	55170	22090.940540827637	1
8	55171	22092.268243152554	0
8	55175	22093.099111190204	1
8	55176	22093.75930318293	0
8	55365	22175.839992010588	1
8	55376	22177.765000424494	0
8	55400	22184.199507085333	1
8	55401	22184.881520778379	0
8	55760	22283.735241964863	1
8	55761	22284.03460770003	0
8	55765	22284.458042442384	1
8	55766	22284.96437600178	0
8	56300	22499.389520047073	1
8	56305	22502.086367442417	2
8	56306	22503.653992606052	1
8	56309	22504.193540669274	0
8	56312	22504.444240586697	1
8	56314	22504.875359888978	0
8	56555	22580.257632474571	1
8	56556	22580.277139602394	0
8	56577	22583.486143975637	1
8	56580	22584.025507004538	2
8	56585	22584.862507918025	3
8	56586	22585.072882818528	2
8	56589	22585.277814353549	1
8	56591	22585.341112158624	0
8	56594	22585.518144961963	1
8	56596	22585.520252981951	0
8	56615	22589.148511557146	1
8	56616	22589.548049236372	0
8	56850	22703.335095497958	1
8	56851	22704.63324005055	0
8	57385	22922.739967304509	1
8	57386	22923.075967433328	0
8	57402	22925.671041245457	1
8	57404	22925.840569960106	0
8	57425	22929.224219268864	1
8	57437	22930.615556756229	2
8	57439	22930.682033690371	1
8	57441	22931.015878706716	0
8	57785	23025.03387884308	1
8	57786	23025.09374501496	0
8	57825	23040.094547707478	1
8	57826	23040.586283296739	0
8	57830	23041.097839103845	1
8	57834	23041.970837521371	0
8	58497	23383.761924875976	1
8	58499	23383.982554048645	0
8	58504	23384.600332731131	1
8	58507	23385.182420459559	2
8	58509	23385.228411580148	1
8	58511	23385.681999972407	0
8	58514	23385.827653501678	1
8	58516	23386.562612568038	0
8	58519	23386.82052708774	1
8	58521	23387.169566774205	0
8	58529	23388.423426330724	1
8	58532	23388.91366002693	2
8	58534	23389.523574769977	1
8	58537	23389.685725967709	2
8	58544	23391.062177101577	1
8	58549	23391.282300678279	0
8	58554	23391.787240446156	1
8	58559	23392.235518519457	0
8	58605	23399.777372764175	1
8	58606	23399.781219492868	0
8	59139	23570.45123732361	1
8	59141	23570.754312588295	0
8	59177	23576.14868200305	1
8	59179	23576.602809103399	0
8	59575	23695.551544572087	1
8	59576	23696.660413939771	0
8	59785	23768.688883503069	1
8	59786	23771.451505223824	0
8	59790	23772.361247946671	1
8	59791	23772.915161773597	0
8	60045	23865.517950353568	1
8	60046	23866.655467509707	0
8	60450	24063.052582330001	1
8	60451	24063.619973474373	0
8	60467	24065.601195361003	1
8	60470	24066.342413674392	2
8	60474	24067.468117356229	1
8	60481	24068.118851204711	0
8	61275	24407.055618065768	1
8	61276	24407.33077760339	0
8	61850	24702.379875169983	1
8	61851	24702.515444979174	0
8	61892	24722.942864020659	1
8	61894	24723.365243797986	0
8	61902	24724.318602835644	1
8	61906	24724.58160613022	0
8	61975	24752.828893958549	1
8	61976	24753.141281869865	0
8	62055	24782.913537867084	1
8	62056	24783.857451694829	0
8	62062	24784.650271180363	1
8	62066	24785.713839238156	0
8	62900	25162.411489952641	1
8	62904	25162.788756161996	0
8	63220	25304.730451799768	1
8	63221	25305.219629037857	0
8	63225	25306.085610016912	1
8	63229	25307.051587178727	0
8	63726	25524.516162129472	1
8	63728	25524.727151218283	0
8	63748	25527.668560081841	1
8	63750	25527.782654522346	0
8	63758	25529.464925771374	1
8	63760	25529.736035094411	0
8	63763	25530.093522159504	1
8	63766	25531.070362541946	2
8	63768	25531.583302758882	1
8	63770	25531.878800095948	0
8	63773	25531.973245729534	1
8	63775	25532.27204086935	0
8	63816	25537.351175907887	1
8	63820	25537.437922381607	0
8	63831	25539.340671620593	1
8	63836	25540.62915147657	0
8	63839	25541.009007606591	1
8	63841	25541.379959302973	0
8	63844	25541.548265032592	1
8	63846	25541.707572599398	0
8	63856	25542.675878366438	1
8	63858	25542.829667729946	0
8	63861	25543.481607445079	1
8	63863	25543.675192347267	0
8	63866	25544.152245805209	1
8	63868	25544.276266316733	0
8	64710	25883.868531879325	1
8	64711	25885.359545681282	0
8	64717	25885.912647892377	1
8	64719	25886.329294739567	0
8	65377	26134.013527364397	1
8	65379	26134.627208422992	0
8	65785	26328.314634900125	1
8	65786	26328.626198373256	0
8	65790	26329.458769583875	1
8	65791	26329.628848244672	0
8	66059	26455.042127559185	1
8	66061	26455.266882214369	0
8	66135	26486.000036510577	1
8	66136	26486.178147761523	0
8	66155	26490.340362274989	1
8	66156	26490.463607918014	0
8	66160	26490.994064205707	1
8	66161	26491.114553914713	0
8	67105	26905.839954310203	1
8	67110	26906.827523806276	2
8	67114	26907.888759170794	1
8	67116	26908.190185125744	0
8	67119	26908.286653009235	1
8	67126	26909.377243539779	0
8	67129	26909.618595530225	1
8	67131	26909.688096455065	0
8	67152	26913.104160491649	1
8	67156	26913.747683918609	0
8	67240	26941.605825008946	1
8	67241	26942.002476029546	0
8	68531	27486.933363410317	1
8	68533	27487.606556216296	0
8	68539	27488.428634457103	1
8	68541	27488.942865352771	0
8	68557	27491.262544129228	1
8	68561	27492.794155224635	0
8	68625	27506.531806561326	1
8	68626	27506.727259238809	0
8	68905	27618.821859337031	1
8	68909	27619.113257015205	0
8	70079	28197.710578922846	1
8	70081	28198.157719724789	0
8	70087	28198.887406094058	1
8	70089	28199.301724270077	0
8	70092	28199.871748637047	1
8	70094	28200.035039116315	0
8	70117	28203.446591198781	1
8	70119	28203.476384371709	0
8	70127	28205.100278762087	1
8	70129	28205.629043017024	0
8	70319	28272.583830570354	1
8	70321	28272.982795386836	0
8	70329	28273.901363559178	1
8	70337	28274.784861635388	2
8	70344	28275.614681601853	1
8	70350	28277.011993377813	2
8	70355	28278.87441893321	3
8	70356	28279.820013678873	2
8	70359	28279.957160695706	1
8	70361	28280.12051624062	0
8	70390	28286.110963535548	1
8	70394	28286.793706145925	0
8	70410	28289.589406454467	1
8	70411	28290.220843601052	0
8	70612	28405.379402301231	1
8	70616	28405.80199905693	0
8	70650	28411.09862261091	1
8	70651	28411.799517562121	0
8	70975	28509.239514204925	1
8	70976	28509.877202707404	0
8	71325	28671.962619707824	1
8	71326	28673.126342572995	0
8	71690	28823.505424651944	1
8	71691	28824.650267942403	0
8	71725	28832.126891064739	1
8	71726	28832.366356049164	0
8	71730	28833.135222320084	1
8	71731	28833.244229972296	0
8	72432	29170.75643904147	1
8	72436	29171.751877871566	0
8	72525	29190.163161508723	1
8	72526	29191.143252234567	0
8	72530	29191.620555856345	1
8	72531	29192.741632467811	0
8	73629	29611.929478803318	1
8	73631	29612.357008517162	0
8	74085	29765.844232784805	1
8	74086	29768.108676375963	0
8	74286	29831.137787707231	1
8	74298	29833.331891579234	0
8	74301	29833.427652663585	1
8	74305	29833.900017118551	0
8	74319	29835.661680048784	1
8	74326	29837.341778924933	0
9	25410	10266.290811395823	1
9	25411	10266.453376943557	0
9	28055	11364.283397519383	1
9	28056	11364.365608123478	0
9	28067	11365.379860476472	1
9	28074	11366.724898886451	0
9	28995	11814.219863718225	1
9	28996	11814.363426578961	0
9	29190	11871.438381179056	1
9	29191	11871.699673326468	0
9	34902	14186.735087266208	1
9	34904	14187.260821925317	0
9	36540	14833.823185015758	1
9	36541	14834.675618755477	0
9	36974	15078.089780835361	1
9	36981	15078.902621717675	0
9	38820	15721.700940355057	1
9	38821	15722.456003381799	0
9	38825	15723.229879187535	1
9	38829	15723.71095257978	0
9	40177	16292.891402962058	1
9	40179	16293.051658571038	0
9	40295	16345.195951820993	1
9	40296	16345.412212340926	0
9	40759	16479.82414353268	1
9	40763	16480.057395369015	0
9	44737	18165.45490701441	1
9	44741	18166.940715094319	0
9	44780	18172.269477894138	1
9	44781	18172.88961199841	0
9	44785	18173.40751857392	1
9	44786	18173.503229442062	0
9	45725	18523.594958016367	1
9	45729	18524.145813664818	0
9	46585	18870.004190293285	1
9	46586	18871.127718281964	0
9	47885	19367.396557446807	1
9	47890	19368.15894598626	2
9	47891	19368.539767609648	1
9	47894	19368.632593715271	0
9	47907	19370.296820649989	1
9	47909	19370.638908586563	0
9	48945	19740.408728024934	1
9	48946	19740.667360356605	0
9	48975	19753.759111233581	1
9	48976	19753.824137340118	0
9	49110	19813.139074253099	1
9	49111	19813.35209845042	0
9	50037	20082.618059282955	1
9	50039	20082.815657679508	0
9	51155	20483.362108926114	1
9	51159	20484.181933904091	0
9	53045	21216.353579410606	1
9	53046	21216.403466660477	0
9	53964	21633.384887537198	1
9	53966	21633.684909678299	0
9	55420	22188.863919444738	1
9	55421	22188.901672505419	0
9	57264	22892.822085639548	1
9	57269	22893.470351196958	2
9	57271	22893.772667887368	1
9	57273	22894.344834763842	0
9	57292	22896.729242654837	1
9	57294	22897.113467951041	0
9	57309	22898.596824915562	1
9	57311	22898.691331231734	0
9	58100	23173.597089178981	1
9	58109	23174.829247070907	0
9	58240	23239.102439435966	1
9	58241	23239.237316852476	0
9	58877	23476.499768853032	1
9	58881	23477.511112244301	0
9	58900	23481.34709443465	1
9	58901	23481.61911958111	0
9	58907	23482.293234951231	1
9	58909	23482.633101915503	0
9	59065	23559.473370227622	1
9	59068	23560.171833940441	2
9	59070	23560.51325857846	1
9	59074	23560.622713699366	0
9	59504	23676.502249258558	1
9	59506	23676.598402036932	0
9	63520	25415.052715067498	1
9	63521	25415.493967729966	0
9	66807	26752.674364448023	1
9	66809	26753.055732085294	0
9	67547	27084.445090560851	1
9	67549	27084.476755412368	0
9	68864	27612.093674018294	1
9	68868	27612.332447357531	0
9	68884	27615.594774066718	1
9	68886	27615.749133780298	0
9	69832	28057.526918287468	1
9	69834	28057.663212715595	0
9	73790	29671.811576494001	1
9	73791	29672.311608838379	0

