version 2
run First_exit_5-2-20191017-13:43:27-1824
attr configname First_exit_5
attr datetime 20191017-13:43:27
attr experiment First_exit_5
attr inifile omnetpp.ini
attr iterationvars ""
attr iterationvarsf ""
attr measurement ""
attr network ResponseTimeNetwork
attr processid 1824
attr repetition 2
attr replication #2
attr resultdir results
attr runnumber 2
attr seedset 2
param **.Source.interArrivalTime exponential(4s)
param **.jobPriority bernoulli(0.4)
param **.PS.serviceTimeU1 "uniform(0.4s, 1.0s)"
param **.PS.serviceTimeU2 "uniform(1s, 1.2s)"
param **.SS1.serviceTime exponential(0.4s)
param **.SS2.serviceTime exponential(0.8s)
param **.PS.exitProbability bernoulli(0.5)

vector 0 ResponseTimeNetwork.SS1 queueLength:vector ETV
attr interpolationmode sample-hold
attr title "queue length, vector"
vector 1 ResponseTimeNetwork.SS2 queueLength:vector ETV
attr interpolationmode sample-hold
attr title "queue length, vector"
vector 2 ResponseTimeNetwork.QueueU1 queueLength:vector ETV
attr interpolationmode sample-hold
attr title "queue length, vector"
vector 3 ResponseTimeNetwork.QueueU2 queueLength:vector ETV
attr interpolationmode sample-hold
attr title "queue length, vector"
vector 4 ResponseTimeNetwork.sink lifeTimeU2:vector ETV
attr interpolationmode none
attr title "lifetime of arrived jobs U2, vector"
attr unit s
vector 5 ResponseTimeNetwork.sink lifeTime:vector ETV
attr interpolationmode none
attr title "lifetime of arrived jobs, vector"
attr unit s
vector 6 ResponseTimeNetwork.sink lifeTimeU1:vector ETV
attr interpolationmode none
attr title "lifetime of arrived jobs U1, vector"
attr unit s
0	0	0	0
0	1290	547.789038618765	1
0	1291	547.79272587223	0
0	7842	3117.33173996537	1
0	7844	3117.355624284005	0
0	9444	3699.492946881388	1
0	9446	3699.562680052942	0
0	10403	4057.229895687602	1
0	10405	4057.601868354145	0
0	13292	5184.378165444494	1
0	13294	5184.620310049784	0
0	16876	6392.329747312568	1
0	16878	6393.116784732066	0
0	18094	6760.832337357369	1
0	18096	6761.303514839729	0
0	18830	7065.877748195161	1
0	18831	7066.365729867755	0
0	20647	7834.224606692615	1
0	20649	7834.423629072268	0
0	21832	8291.101921343531	1
0	21834	8291.496321884439	0
0	23297	8844.744828691836	1
0	23301	8845.567115022397	0
0	23307	8846.28100687984	1
0	23311	8847.059980912325	0
0	23450	8916.760169405101	1
0	23451	8916.890405580143	0
0	23855	9067.924293689627	1
0	23856	9068.312672460897	0
0	24667	9475.577344400875	1
0	24671	9476.289350147196	0
0	25575	9897.616446130783	1
0	25579	9898.129459599772	0
0	25587	9898.959704091642	1
0	25589	9899.432510371373	0
0	27072	10447.238435950324	1
0	27074	10447.822027332219	0
0	27200	10472.605247121549	1
0	27202	10472.626253889368	0
0	27807	10753.964725519218	1
0	27809	10754.385777969718	0
0	27969	10805.701846848089	1
0	27971	10806.053479225888	0
0	28720	11178.627114265226	1
0	28721	11179.321335049961	0
0	29345	11387.218014893641	1
0	29346	11387.560184134611	0
0	29669	11490.268964817914	1
0	29671	11490.553182425248	0
0	31175	12054.121331559249	1
0	31176	12054.309069018878	0
0	32757	12715.928710087727	1
0	32760	12716.644534932462	2
0	32761	12716.968770876459	1
0	32764	12717.391923843973	0
0	33255	12924.622799814717	1
0	33256	12925.111249075881	0
0	34429	13331.077679168755	1
0	34431	13331.630131695743	0
0	35155	13609.63204621395	1
0	35156	13610.886911033885	0
0	37720	14710.48217327489	1
0	37721	14710.723834596291	0
0	40317	15750.349512957273	1
0	40319	15750.750033883347	0
0	42535	16594.82637271091	1
0	42539	16595.231237570943	0
0	42542	16595.624896222945	1
0	42544	16595.770984851891	0
0	45067	17612.29920370873	1
0	45069	17612.72288232467	0
0	45619	17854.206863193281	1
0	45621	17854.218426947098	0
0	45627	17855.227955122126	1
0	45631	17855.995247240238	0
0	46842	18351.477234847441	1
0	46844	18351.488076519871	0
0	46878	18355.195328309916	1
0	46880	18355.255692745652	0
0	49620	19472.027131566496	1
0	49624	19472.406706743234	0
0	49635	19474.682276085852	1
0	49636	19474.714436631435	0
0	49640	19475.291338840005	1
0	49641	19476.021912563121	0
0	51532	20258.260858747568	1
0	51534	20258.342135548457	0
0	55550	22045.86818210231	1
0	55551	22046.0500943749	0
0	55632	22069.08300975003	1
0	55636	22070.184801985789	0
0	55840	22159.899799371004	1
0	55845	22160.433507029263	2
0	55846	22160.503738340325	1
0	55849	22160.579339245598	0
0	58375	23234.982634560892	1
0	58376	23235.194463504705	0
0	58392	23236.994455298263	1
0	58394	23237.278597466038	0
0	58920	23406.487600104939	1
0	58924	23407.277490204112	0
0	60350	24023.326357381924	1
0	60351	24023.679195238064	0
0	61332	24476.314984897931	1
0	61334	24476.659259815381	0
0	61724	24566.909770002804	1
0	61728	24567.450247516777	0
0	61757	24571.594748332894	1
0	61759	24571.595116954535	0
0	64782	25859.640497412967	1
0	64786	25860.371500974739	0
0	66157	26434.490703291468	1
0	66159	26434.858759129731	0
0	71330	28498.244975045116	1
0	71331	28498.835137814373	0
0	71340	28500.097787500589	1
0	71341	28500.113606768064	0
0	72400	28964.371610964629	1
0	72401	28964.860941442015	0
0	72570	29017.018005593731	1
0	72571	29017.269968345795	0
0	72777	29156.490552131624	1
0	72783	29156.668304725612	0
0	74102	29616.041304241846	1
0	74104	29616.331132594856	0
1	0	0	0
1	1047	468.261216949003	1
1	1049	468.779135344476	0
1	1055	469.986734417856	1
1	1056	470.652580066135	0
1	1080	473.989700294303	1
1	1081	474.671587927164	0
1	1172	504.512159660581	1
1	1196	508.728603133815	0
1	2330	978.195183921734	1
1	2331	980.691930296022	0
1	2340	981.830203268287	1
1	2341	982.735468480745	0
1	2350	984.144351399047	1
1	2351	984.321239584526	0
1	2695	1113.905612476974	1
1	2696	1114.791022565677	0
1	3070	1291.20207830762	1
1	3071	1291.481948783841	0
1	3650	1638.812943051899	1
1	3651	1639.020807658693	0
1	3655	1639.444345244903	1
1	3656	1639.773295900713	0
1	3809	1673.177682096954	1
1	3812	1674.107559708437	2
1	3814	1674.275318298818	1
1	3819	1675.334764742558	0
1	4807	2031.376439020202	1
1	4814	2032.956969344683	0
1	4882	2042.565390016786	1
1	4888	2042.890286397923	0
1	5132	2133.920395641659	1
1	5135	2134.808477314028	2
1	5136	2134.923892797616	1
1	5139	2135.062511000482	0
1	5142	2135.49019828331	1
1	5146	2135.749892495284	0
1	5149	2135.922451126709	1
1	5159	2137.407345463563	2
1	5166	2139.11018242398	1
1	5172	2139.606512035846	2
1	5181	2142.034082143621	1
1	5184	2142.186572313561	0
1	5197	2144.059179531557	1
1	5199	2144.197709489362	0
1	5317	2182.497764749767	1
1	5319	2182.523596796947	0
1	5432	2198.641110825342	1
1	5434	2199.006190677661	0
1	5437	2199.316192839983	1
1	5439	2199.866357236226	0
1	7445	3004.339159003552	1
1	7446	3004.918920592399	0
1	7495	3020.679710595321	1
1	7496	3023.723514326907	0
1	7500	3024.506313927391	1
1	7501	3025.510660748436	0
1	7512	3027.111825057605	1
1	7514	3027.408665583967	0
1	7520	3028.515337245745	1
1	7521	3029.17336695307	0
1	7735	3092.275449106277	1
1	7736	3092.478556911827	0
1	7742	3093.358567470538	1
1	7750	3095.037122646416	2
1	7751	3095.22320059704	1
1	7754	3095.250050296253	0
1	8055	3195.1985428698	1
1	8056	3195.449220768482	0
1	8242	3261.814058301622	1
1	8244	3262.464855227633	0
1	8305	3276.075330617148	1
1	8310	3277.327973101147	2
1	8311	3277.595879821768	1
1	8315	3278.170725403549	2
1	8316	3278.286113539613	1
1	8324	3279.020256134211	2
1	8327	3279.945858488087	3
1	8329	3279.969892655983	2
1	8332	3280.400823383214	3
1	8336	3282.510775123395	2
1	8339	3282.57614894442	1
1	8341	3282.755132095534	0
1	8760	3439.554442450852	1
1	8781	3442.530603248766	0
1	9235	3605.121602447757	1
1	9236	3606.400282406727	0
1	9287	3630.291243124727	1
1	9294	3631.352582565383	0
1	9867	3885.598379989084	1
1	9870	3886.229784552543	2
1	9871	3886.979844714169	1
1	9876	3887.604900650328	0
1	9880	3888.566695776416	1
1	9881	3889.627480048401	0
1	9895	3892.301818681944	1
1	9896	3892.518523437478	0
1	9975	3904.432432154351	1
1	9976	3904.750762376958	0
1	10140	3981.328134880466	1
1	10141	3981.907570069573	0
1	10470	4067.505178274666	1
1	10471	4069.542743339626	0
1	10597	4100.131829719215	1
1	10604	4101.289991504567	0
1	10615	4103.031984194719	1
1	10616	4103.485738848243	0
1	10760	4147.466311071522	1
1	10761	4147.861107423264	0
1	10790	4155.144581751454	1
1	10794	4156.523986422011	0
1	10807	4158.529481485472	1
1	10809	4158.79258811804	0
1	11117	4295.542843463029	1
1	11126	4296.824450858021	0
1	11225	4324.829375024416	1
1	11226	4325.102430061671	0
1	11245	4328.13665389754	1
1	11256	4331.134205942488	0
1	11270	4333.746848618736	1
1	11271	4336.582965303558	0
1	11287	4338.590022558506	1
1	11289	4338.94933364456	0
1	11292	4339.450262393915	1
1	11296	4340.100913831356	0
1	11300	4340.832440395138	1
1	11301	4341.392356352202	0
1	11685	4530.69684029257	1
1	11686	4531.113083213907	0
1	13110	5120.093322809824	1
1	13111	5121.725364077027	0
1	13557	5271.862968226046	1
1	13566	5273.605362684034	0
1	13725	5339.389283802611	1
1	13726	5339.410538117136	0
1	13990	5432.398331176638	1
1	13991	5432.726707767665	0
1	14010	5435.665067157485	1
1	14011	5437.125680951942	0
1	14230	5518.774682812291	1
1	14231	5519.147632235108	0
1	14835	5698.581370059044	1
1	14836	5698.697335766317	0
1	14840	5699.376460475815	1
1	14841	5699.856960325852	0
1	15315	5827.430175340519	1
1	15319	5829.235917143195	0
1	15322	5829.714128692075	1
1	15326	5831.360335570436	0
1	15545	5945.749343145038	1
1	15551	5947.814915627118	0
1	15840	6076.721405714397	1
1	15841	6077.128524433118	0
1	15845	6077.832374712308	1
1	15846	6078.194909271156	0
1	15870	6083.308673577742	1
1	15874	6083.604800511258	0
1	15879	6084.074902156966	1
1	15881	6084.194134786037	0
1	15935	6094.025604243691	1
1	15939	6094.785023419748	0
1	15956	6096.28548686382	1
1	15960	6096.876256287146	0
1	16130	6145.607396374225	1
1	16131	6145.922073078735	0
1	16510	6316.215360973582	1
1	16511	6317.755140624636	0
1	16705	6355.805414220553	1
1	16706	6356.238768540987	0
1	16710	6356.852115108225	1
1	16711	6357.812932853452	0
1	16772	6366.675824478423	1
1	16781	6369.468976847385	0
1	17065	6440.746245078878	1
1	17069	6441.648655562621	0
1	17344	6524.584042522222	1
1	17346	6524.723413152275	0
1	17625	6631.049752981033	1
1	17626	6631.440149244123	0
1	17694	6649.280870706987	1
1	17699	6650.106756860905	0
1	17702	6650.294476477316	1
1	17706	6650.606293448888	0
1	17720	6652.862630285209	1
1	17721	6655.886055400341	0
1	17740	6658.171863766552	1
1	17741	6658.306586392518	0
1	17800	6676.920434495785	1
1	17801	6677.28397850413	0
1	17805	6677.687706668211	1
1	17806	6678.389135446152	0
1	17812	6678.952069311714	1
1	17814	6679.106643432635	0
1	17817	6679.77040364508	1
1	17819	6680.089884226781	0
1	18120	6765.456879603849	1
1	18121	6765.624802017887	0
1	18985	7108.885963435634	1
1	18986	7109.224788261884	0
1	18990	7109.709525419193	1
1	18991	7109.751764445834	0
1	18997	7110.432562212123	1
1	18999	7110.720241608205	0
1	19362	7291.387828210115	1
1	19366	7292.57958672869	0
1	20045	7574.911780366414	1
1	20046	7575.766824488495	0
1	20107	7595.477339567107	1
1	20112	7595.8796527606	2
1	20114	7595.88022410839	1
1	20121	7598.561845639161	0
1	20475	7746.267061662016	1
1	20482	7747.950147074331	2
1	20484	7748.244614411231	1
1	20490	7748.874904481611	2
1	20491	7749.226962186589	1
1	20494	7749.982718726483	0
1	20497	7750.049335539208	1
1	20499	7750.489443958825	0
1	20540	7761.688649468864	1
1	20541	7762.035214967612	0
1	20855	7920.650388192764	1
1	20856	7921.068154842629	0
1	20860	7921.796771721066	1
1	20861	7921.913620775267	0
1	20914	7932.76189785538	1
1	20919	7933.592613355927	0
1	20985	7951.907325995776	1
1	20986	7951.999488764746	0
1	21525	8139.516929231887	1
1	21526	8140.458054817351	0
1	21860	8294.267312151947	1
1	21861	8294.837725064533	0
1	22862	8668.389283240949	1
1	22864	8668.507195597429	0
1	22872	8669.878239158345	1
1	22875	8670.534080108013	2
1	22876	8671.109218796009	1
1	22880	8671.814218512682	2
1	22881	8672.069138741164	1
1	22886	8672.609693272439	0
1	22894	8673.247420690019	1
1	22897	8673.672231949862	2
1	22904	8674.395612673756	1
1	22906	8674.407278678411	0
1	23100	8753.208694891219	1
1	23101	8753.443998752706	0
1	23255	8830.65775075611	1
1	23256	8832.122541075684	0
1	23397	8907.286904966985	1
1	23399	8907.546168598434	0
1	23685	8995.466889631823	1
1	23686	9000.047814003038	0
1	25090	9680.190680734243	1
1	25091	9680.591582304192	0
1	25100	9682.217839266825	1
1	25101	9682.297176901848	0
1	25237	9736.056719179076	1
1	25241	9737.376348479461	0
1	25419	9845.171557094871	1
1	25421	9845.730177027052	0
1	25535	9888.175622263032	1
1	25536	9889.364060055993	0
1	26030	10077.287879880494	1
1	26031	10078.659503010446	0
1	26035	10079.409778248071	1
1	26036	10079.514055984495	0
1	26059	10082.495532103469	1
1	26061	10082.72529592195	0
1	26125	10095.663442184219	1
1	26126	10096.326848868537	0
1	26147	10099.61428901183	1
1	26149	10099.752236621155	0
1	26582	10292.740362450964	1
1	26586	10294.266999949161	0
1	27260	10485.106159681435	1
1	27261	10485.349648168273	0
1	29467	11433.768398515827	1
1	29470	11434.386006805853	2
1	29471	11434.399443583562	1
1	29475	11434.882186799682	2
1	29479	11435.444251152104	1
1	29481	11435.72371942385	0
1	29507	11439.477625909959	1
1	29510	11440.008459623576	2
1	29511	11440.03572620545	1
1	29516	11440.973636306696	0
1	29524	11441.616976597816	1
1	29526	11441.893158037362	0
1	29529	11442.391625418006	1
1	29531	11442.536732038081	0
1	29975	11596.848924141128	1
1	29976	11597.42035218608	0
1	30072	11628.968885909768	1
1	30075	11629.784380992318	2
1	30076	11630.000248451972	1
1	30079	11630.075893289078	0
1	30084	11630.514885984383	1
1	30086	11631.00483325194	0
1	30127	11637.464809210992	1
1	30129	11637.675342646388	0
1	31280	12112.43087902549	1
1	31281	12112.613868968068	0
1	31285	12113.180987134036	1
1	31286	12114.96700169899	0
1	31290	12115.395984925967	1
1	31295	12116.529221701358	2
1	31296	12116.620920306161	1
1	31299	12116.803574178456	0
1	31302	12117.355142727351	1
1	31304	12117.370120980702	0
1	31307	12117.884814865651	1
1	31309	12118.380620848802	0
1	31315	12119.62568517625	1
1	31316	12119.98743708788	0
1	31870	12333.392433883335	1
1	31871	12333.883835391693	0
1	31875	12334.85660308785	1
1	31876	12336.214905440584	0
1	32220	12504.027970398741	1
1	32221	12504.226493473059	0
1	32325	12541.039352381995	1
1	32326	12541.208981859915	0
1	32330	12541.639532819901	1
1	32331	12542.330877732871	0
1	32825	12734.092117753737	1
1	32826	12734.138659900358	0
1	33415	12987.572629279163	1
1	33416	12989.3318906609	0
1	33515	13013.951982202194	1
1	33516	13014.350874668521	0
1	33525	13016.110645545901	1
1	33526	13016.497220963874	0
1	33915	13168.784771634419	1
1	33916	13169.803883599521	0
1	33920	13170.497429052119	1
1	33921	13171.380421794236	0
1	33955	13180.071517866642	1
1	33959	13180.499077128253	0
1	35812	13845.027756975814	1
1	35815	13845.970670934757	2
1	35819	13846.739967917314	1
1	35823	13846.881191423648	0
1	35826	13847.056035804039	1
1	35828	13847.496572514419	0
1	36805	14279.519520189654	1
1	36806	14280.176416990719	0
1	36877	14312.98793725861	1
1	36879	14313.914735628603	0
1	36945	14329.077407317335	1
1	36946	14329.184649305442	0
1	36950	14330.098733974132	1
1	36951	14330.233338713302	0
1	37462	14578.326492944922	1
1	37464	14578.384296393983	0
1	37475	14580.022184291671	1
1	37476	14580.240902925669	0
1	37519	14609.305460762932	1
1	37531	14610.368736565135	0
1	37595	14634.368461029721	1
1	37596	14635.223308387996	0
1	37945	14802.575153712933	1
1	37946	14803.25359244295	0
1	37955	14804.80143781914	1
1	37956	14805.38064417919	0
1	38942	15218.589072457117	1
1	38944	15218.795231353865	0
1	38960	15221.11891796428	1
1	38961	15221.285269570227	0
1	38970	15222.620955149519	1
1	38971	15223.738170555353	0
1	39257	15333.101955908617	1
1	39269	15335.437133719653	0
1	40057	15677.53336023084	1
1	40059	15677.537660796185	0
1	40687	15924.902157939823	1
1	40689	15925.124086975963	0
1	41035	16056.280888755548	1
1	41036	16056.495520272832	0
1	41145	16080.953011809133	1
1	41146	16081.276893735393	0
1	41330	16140.625059219802	1
1	41331	16142.296036604487	0
1	41410	16158.229928888173	1
1	41411	16158.748356140926	0
1	41415	16159.655081732347	1
1	41416	16160.876162345339	0
1	41665	16302.33577769969	1
1	41669	16306.073239220346	0
1	41677	16306.798131428002	1
1	41681	16307.434258676824	0
1	41685	16307.863424823331	1
1	41686	16308.009236626612	0
1	41692	16308.513276457559	1
1	41694	16308.570466581508	0
1	41830	16335.034469752684	1
1	41831	16335.205527206802	0
1	41835	16335.776024555334	1
1	41836	16336.063928173739	0
1	41840	16336.506900340296	1
1	41841	16337.214421078768	0
1	42290	16507.121490079879	1
1	42291	16507.764565157865	0
1	42302	16509.133210553157	1
1	42306	16511.102039321911	0
1	42310	16511.690476654916	1
1	42311	16512.816561421015	0
1	42715	16671.399210618784	1
1	42716	16673.508937400458	0
1	42910	16768.501560350493	1
1	42911	16770.066376596718	0
1	42915	16770.741892911709	1
1	42916	16772.611118317212	0
1	42927	16773.939280944506	1
1	42932	16774.633777702462	2
1	42934	16775.281786466218	1
1	42936	16775.332659411139	0
1	42965	16778.987530087542	1
1	42966	16779.086022773595	0
1	42970	16780.04281363485	1
1	42974	16780.08789236819	0
1	42984	16781.318597820055	1
1	42987	16782.230084884426	2
1	42991	16783.916800873152	1
1	42994	16784.621607154247	0
1	44065	17257.713167562957	1
1	44069	17259.543225684003	0
1	44072	17259.932723830927	1
1	44076	17260.265075116545	0
1	44079	17260.398749288365	1
1	44091	17262.750775307994	0
1	44132	17272.159039914457	1
1	44134	17272.275865467841	0
1	44137	17272.682219531981	1
1	44144	17273.961121356645	0
1	44157	17275.697644066053	1
1	44159	17276.317171428001	0
1	44165	17277.271541975333	1
1	44166	17278.314338212985	0
1	44175	17279.183601679526	1
1	44176	17279.362831338103	0
1	44447	17361.355038781163	1
1	44449	17361.462728650404	0
1	44454	17362.053071034818	1
1	44459	17363.331452882504	0
1	44465	17364.198502843061	1
1	44466	17364.251619389083	0
1	44857	17524.626626142953	1
1	44859	17525.121900401325	0
1	44862	17525.255099244882	1
1	44864	17525.998601653421	0
1	44867	17526.100435421663	1
1	44871	17526.789540214559	0
1	44882	17528.272175114138	1
1	44884	17528.479916568783	0
1	45255	17695.78127853707	1
1	45256	17696.518386676633	0
1	45260	17697.34084982961	1
1	45261	17698.779006648836	0
1	45335	17726.659247679583	1
1	45336	17726.951315912803	0
1	45725	17871.460840116265	1
1	45726	17872.025821994447	0
1	45730	17872.841626002516	1
1	45731	17874.176011918197	0
1	45950	17945.165835994364	1
1	45951	17945.489894501214	0
1	46060	17992.267268736616	1
1	46061	17993.956074818617	0
1	46130	18037.101319001642	1
1	46131	18037.250038110565	0
1	46135	18037.880347526406	1
1	46140	18039.863089972542	2
1	46144	18040.821618520025	1
1	46146	18041.383282885103	0
1	46195	18049.554243267518	1
1	46196	18049.859968418663	0
1	46200	18050.298140125803	1
1	46201	18050.405729941241	0
1	46695	18313.752579265604	1
1	46696	18316.004748116032	0
1	46707	18317.293825882458	1
1	46709	18317.525340702692	0
1	46712	18317.738999216555	1
1	46714	18317.767817383276	0
1	46917	18361.350434281741	1
1	46919	18361.978578707473	0
1	46925	18362.906804155856	1
1	46926	18362.968379045978	0
1	46930	18363.550447533188	1
1	46931	18363.708201143817	0
1	47202	18474.693474146801	1
1	47204	18474.706216919864	0
1	47370	18545.096972771587	1
1	47371	18545.329970159357	0
1	47732	18700.710269929404	1
1	47734	18700.756050713204	0
1	48200	18931.974207906274	1
1	48201	18932.431980513095	0
1	48452	19031.155801170322	1
1	48454	19031.227123405599	0
1	48457	19031.70911426619	1
1	48459	19032.008051885136	0
1	48465	19033.250510126635	1
1	48466	19035.073666253597	0
1	48470	19035.688019994511	1
1	48471	19036.529867757983	0
1	48945	19226.633843630835	1
1	48946	19226.78163037314	0
1	49105	19263.227117634626	1
1	49109	19264.013271853185	0
1	49400	19402.427492674644	1
1	49411	19406.078855693312	0
1	49482	19434.027235168841	1
1	49484	19434.482591776404	0
1	49490	19435.266283658862	1
1	49495	19435.985311277707	2
1	49496	19437.331837488773	1
1	49499	19437.360945123496	0
1	49502	19438.22362993417	1
1	49504	19438.281337109129	0
1	49530	19443.570388504169	1
1	49534	19444.272146688165	0
1	50095	19646.274178860883	1
1	50096	19646.368112338	0
1	50370	19769.13817822346	1
1	50371	19770.065083509463	0
1	50480	19804.166661602695	1
1	50481	19804.171267764426	0
1	50490	19807.941261569174	1
1	50494	19809.14910280191	0
1	50775	19930.586125390286	1
1	50776	19934.573402157739	0
1	51080	20050.256686302773	1
1	51081	20051.018088498851	0
1	51090	20052.329078099643	1
1	51091	20054.706950722266	0
1	51120	20059.016896039339	1
1	51121	20059.380257002057	0
1	51265	20110.898709455731	1
1	51266	20111.96802220509	0
1	51460	20190.612995434503	1
1	51461	20192.126427866201	0
1	52275	20643.550370696095	1
1	52276	20643.597179590332	0
1	52280	20644.420594451836	1
1	52281	20645.091881480003	0
1	52297	20647.717513722358	1
1	52299	20647.791782026394	0
1	52675	20799.704386790548	1
1	52676	20800.133701856456	0
1	53305	21083.053271626249	1
1	53306	21083.832568704245	0
1	53505	21218.21558387929	1
1	53506	21219.197064889732	0
1	54067	21494.44439416207	1
1	54069	21495.127567496679	0
1	54075	21495.661737558484	1
1	54076	21496.51945557884	0
1	54142	21516.196868577067	1
1	54144	21516.573224778375	0
1	54147	21516.727655777687	1
1	54149	21517.089050742678	0
1	54152	21517.194887717327	1
1	54154	21517.496324253971	0
1	54465	21616.417561725695	1
1	54469	21617.794558338039	0
1	54479	21618.562635162284	1
1	54481	21619.357314553706	0
1	54675	21695.610538869592	1
1	54676	21695.745395566639	0
1	55095	21857.52417119046	1
1	55096	21858.561637946085	0
1	55190	21895.925157218428	1
1	55191	21896.256375073959	0
1	55252	21910.742366768329	1
1	55257	21911.448567712868	2
1	55259	21911.923241931569	1
1	55264	21912.457797908234	0
1	55267	21913.132870702215	1
1	55269	21913.182599000862	0
1	55280	21914.897431711203	1
1	55281	21915.529124913552	0
1	55300	21918.215354126785	1
1	55301	21919.014411274494	0
1	55995	22256.851996000854	1
1	56001	22259.491695798054	0
1	56310	22398.921641128229	1
1	56311	22399.298995759595	0
1	56405	22431.787269332027	1
1	56406	22432.684119980181	0
1	56420	22434.388026530393	1
1	56421	22435.192800692126	0
1	56550	22504.68781384219	1
1	56551	22506.763163130148	0
1	57290	22826.375006025842	1
1	57291	22827.05938686282	0
1	57295	22827.508948342415	1
1	57296	22828.403891459397	0
1	57600	22950.469587095591	1
1	57601	22951.754693450716	0
1	57607	22952.582336102829	1
1	57609	22952.628163139798	0
1	57635	22957.978591643125	1
1	57640	22958.725871182892	2
1	57641	22959.252333683352	1
1	57644	22959.374361201187	0
1	57649	22960.038077604462	1
1	57651	22960.276643587811	0
1	57705	22968.274194914584	1
1	57706	22968.695471649554	0
1	57715	22970.124677344255	1
1	57716	22971.628387855313	0
1	57770	22998.407534523275	1
1	57771	22999.734876897979	0
1	57775	23000.440138161323	1
1	57776	23000.458651733807	0
1	57885	23027.757577928259	1
1	57891	23029.486005807447	0
1	57894	23029.741911277774	1
1	57896	23030.534640179592	0
1	57899	23030.656100181298	1
1	57904	23031.346634026925	0
1	58490	23253.043098159399	1
1	58491	23254.08199826593	0
1	59142	23501.869474666657	1
1	59144	23501.957643660464	0
1	59187	23507.355637956455	1
1	59190	23507.890058688491	2
1	59194	23508.808556469762	1
1	59196	23509.032192108306	0
1	59199	23509.069668514138	1
1	59205	23510.491872585096	2
1	59206	23510.586292831286	1
1	59209	23511.135872569595	0
1	60465	24053.128497861868	1
1	60466	24053.223400827465	0
1	60470	24054.149506898658	1
1	60471	24055.636718476893	0
1	60475	24056.076502575961	1
1	60476	24056.1490135819	0
1	60495	24058.575159793748	1
1	60496	24058.684493691033	0
1	60585	24089.13272494816	1
1	60586	24090.905510352838	0
1	61070	24361.054230564266	1
1	61071	24361.414641642575	0
1	61110	24394.331339140629	1
1	61111	24395.530588883378	0
1	61155	24416.254432140191	1
1	61156	24416.365048849571	0
1	61206	24422.909996494173	1
1	61208	24423.169624563129	0
1	61492	24518.324034901928	1
1	61496	24519.273598406419	0
1	61650	24553.935786356238	1
1	61655	24554.635873373701	2
1	61656	24555.038134651905	1
1	61669	24556.865941350637	0
1	61672	24557.405085987774	1
1	61674	24557.721047223365	0
1	61677	24558.220227320622	1
1	61681	24559.356286436665	0
1	61930	24636.127968926986	1
1	61931	24637.404367523142	0
1	62320	24823.178221761606	1
1	62321	24823.939065846813	0
1	62565	24899.90697803045	1
1	62570	24901.073830229627	2
1	62571	24901.907871780147	1
1	62577	24902.562582343419	2
1	62581	24904.388923447398	1
1	62586	24906.293528633922	0
1	62945	25085.618986779128	1
1	62946	25085.739780637773	0
1	63362	25264.13168985088	1
1	63367	25264.952073503971	2
1	63369	25265.213569263527	1
1	63374	25265.949383222714	0
1	63855	25509.252252804913	1
1	63856	25510.263805975457	0
1	64365	25743.361804651253	1
1	64366	25744.407233943829	0
1	64739	25853.447976871037	1
1	64741	25853.507885504625	0
1	65032	25968.612723115176	1
1	65034	25968.726823529092	0
1	65535	26182.946066782359	1
1	65536	26183.14523475544	0
1	65659	26221.549321280303	1
1	65661	26221.846705584884	0
1	65825	26285.841669621049	1
1	65826	26286.547896456922	0
1	65835	26287.372248731431	1
1	65836	26288.123761068945	0
1	65850	26290.96607422385	1
1	65851	26292.270305584835	0
1	66961	26783.215981479651	1
1	66963	26783.415714456767	0
1	67335	26999.80776470546	1
1	67341	27002.321443294133	0
1	67345	27002.855675462964	1
1	67350	27003.859307931652	2
1	67351	27004.629327096101	1
1	67356	27006.032017421176	0
1	67360	27007.014514363383	1
1	67361	27007.022596174113	0
1	67365	27007.481768110448	1
1	67369	27008.739384663068	0
1	67372	27008.860364407143	1
1	67374	27008.873024198625	0
1	67430	27028.5114869752	1
1	67431	27028.663685681256	0
1	67460	27040.866924056069	1
1	67461	27041.877387807887	0
1	67492	27048.378752191158	1
1	67494	27048.682722776404	0
1	67520	27052.348636236208	1
1	67524	27053.075317021206	0
1	67595	27076.516531857758	1
1	67596	27076.539375728823	0
1	67600	27076.973481073545	1
1	67601	27077.205420337107	0
1	68022	27258.309522229249	1
1	68026	27258.777360913595	0
1	68265	27332.484392226757	1
1	68266	27332.593534136659	0
1	68275	27333.967553745073	1
1	68276	27334.051155988363	0
1	68500	27438.829655642253	1
1	68501	27438.971366324077	0
1	68770	27538.732640738053	1
1	68771	27539.998820040698	0
1	68842	27572.015650985791	1
1	68846	27573.892260642914	0
1	69000	27644.537613172175	1
1	69001	27644.968183342876	0
1	69010	27646.452983028345	1
1	69011	27647.364297693885	0
1	69180	27708.971755094833	1
1	69181	27709.711278908927	0
1	69185	27710.362496794755	1
1	69186	27710.43099099389	0
1	69375	27791.382258515499	1
1	69381	27793.424054875507	0
1	69384	27793.861275753788	1
1	69386	27793.87406493999	0
1	69411	27797.371119143197	1
1	69416	27798.541153565558	0
1	69472	27806.034991532972	1
1	69477	27806.733350803925	2
1	69480	27807.38419266179	3
1	69481	27807.728945122976	2
1	69484	27807.989939193133	1
1	69487	27808.420538536636	2
1	69489	27808.61175448209	1
1	69494	27808.971879056884	0
1	69956	28025.534321363036	1
1	69959	28025.991335274185	2
1	69961	28026.353535197996	1
1	69966	28027.536631011935	0
1	70150	28122.706237117343	1
1	70151	28122.955005085116	0
1	70487	28223.192403546634	1
1	70490	28223.875379835215	2
1	70494	28224.03461999111	1
1	70496	28224.515991506831	0
1	70499	28224.886861755094	1
1	70504	28225.592703409618	0
1	70507	28226.108715956938	1
1	70511	28227.347076966047	0
1	70667	28263.395412890286	1
1	70669	28263.595044860819	0
1	70672	28264.300210443091	1
1	70674	28264.992957193017	0
1	70890	28322.517942418286	1
1	70891	28323.476287282431	0
1	70895	28324.358614680483	1
1	70901	28326.258809216922	0
1	71575	28610.650025310518	1
1	71576	28611.160826707725	0
1	71580	28611.765141501744	1
1	71581	28614.65415628326	0
1	72772	29155.773235657371	1
1	72774	29155.858247638486	0
1	72821	29161.296204642278	1
1	72823	29161.504539696517	0
1	72826	29161.980970796455	1
1	72828	29162.423685734222	0
1	72831	29162.79119784881	1
1	72833	29163.233608789439	0
1	72839	29164.128402887775	1
1	72841	29164.16626469593	0
1	72851	29165.505338009611	1
1	72858	29166.455139537353	0
1	72861	29166.67258488217	1
1	72865	29167.277272551566	0
1	72868	29167.52352928545	1
1	72870	29167.839587896404	0
1	72884	29170.132537825756	1
1	72887	29170.622653554498	2
1	72891	29171.383046704433	1
1	72896	29171.563201854232	0
1	73130	29264.991112009611	1
1	73131	29265.410546696219	0
1	73135	29265.813402706231	1
1	73136	29266.470443376617	0
1	73240	29294.72064721881	1
1	73241	29295.212456946749	0
1	73250	29296.843875016807	1
1	73251	29299.01765313201	0
1	73492	29396.019781169435	1
1	73496	29397.048043858393	0
1	73800	29520.03832315178	1
1	73805	29520.881513999928	2
1	73806	29521.988270680624	1
1	73810	29522.70982181236	2
1	73811	29523.810096664207	1
1	73814	29523.88677297603	0
1	73897	29564.171245121265	1
1	73899	29564.317960584576	0
1	73905	29565.120425807413	1
1	73906	29566.142356208211	0
1	74285	29699.111520641159	1
1	74286	29699.716422739459	0
1	74630	29872.200143680263	1
1	74631	29872.79768938775	0
1	74650	29875.328416346608	1
1	74659	29876.967085981849	0
2	0	0	0
2	10	3.514932998717	1
2	11	3.901913157599	0
2	20	4.874644737542	1
2	21	5.166131745121	0
2	30	6.257908916306	1
2	33	6.629917593934	0
2	40	7.398937143858	1
2	41	7.862743746704	0
2	50	9.503536607684	1
2	51	9.608138787878	0
2	60	10.549274212834	1
2	61	11.497855127222	0
2	80	13.664463502205	1
2	81	14.15783745703	0
2	85	14.689259155999	1
2	86	14.690021180787	0
2	90	14.942306142913	1
2	91	15.310504002177	0
2	97	15.563455491871	1
2	98	16.094748038013	0
2	225	98.947652654141	1
2	226	99.77368439597	0
2	230	99.905421487553	1
2	234	100.123249868214	2
2	235	100.700664569185	1
2	239	101.284190391119	2
2	240	101.398908846293	1
2	243	102.047852346281	0
2	250	102.97864876067	1
2	251	103.436881081274	0
2	260	104.35018268845	1
2	261	104.822291190868	0
2	355	171.367857627039	1
2	356	171.849660862439	0
2	365	172.382403814083	1
2	368	172.781956395365	0
2	372	173.154290303005	1
2	373	173.35220987899	0
2	380	174.178588889222	1
2	381	174.339402606103	0
2	440	192.198175968058	1
2	441	192.423031187849	0
2	452	192.846757832972	1
2	453	193.760182137415	0
2	480	198.182030296147	1
2	481	198.583297740045	0
2	490	199.305210473064	1
2	491	200.129079066153	0
2	510	204.449102247062	1
2	511	205.314740744093	0
2	670	314.655822882069	1
2	671	314.861056208453	0
2	730	355.357122157377	1
2	733	355.777204394497	0
2	737	356.048864347239	1
2	738	356.387638518604	0
2	744	356.551604297862	1
2	745	357.215631456178	0
2	757	358.848717247645	1
2	758	358.856725939566	0
2	875	399.901085531048	1
2	876	400.675677340807	0
2	920	424.546858071396	1
2	921	424.982329342561	0
2	940	428.386677595058	1
2	941	428.499209518385	0
2	955	430.803907165411	1
2	956	431.336597097812	0
2	970	433.669053209791	1
2	971	433.777206846946	0
2	975	433.797098332455	1
2	976	434.563922558366	0
2	1045	468.111404033627	1
2	1046	468.261216949003	0
2	1140	496.031519208589	1
2	1141	496.485938017888	0
2	1170	504.332504962162	1
2	1171	504.512159660581	0
2	1190	507.415269445477	1
2	1191	508.127430209563	0
2	1270	544.394016132046	1
2	1271	544.763364401105	0
2	1275	545.3266655137	1
2	1276	545.403451125109	0
2	1280	545.488828495175	1
2	1281	546.201032249135	0
2	1285	546.226273675638	1
2	1286	547.128573010461	0
2	1295	547.911633973612	1
2	1296	548.507573444611	0
2	1300	549.250557936369	1
2	1301	549.388790845387	0
2	1305	549.456909329088	1
2	1306	550.04984630107	0
2	1365	599.605225900044	1
2	1366	599.618056419065	0
2	1375	600.880374935091	1
2	1376	601.305503820154	0
2	1410	629.517433789972	1
2	1411	629.542081769392	0
2	1425	631.843881593381	1
2	1426	631.978963414248	0
2	1520	675.070092414274	1
2	1521	675.349272265886	0
2	1527	675.503772192721	1
2	1528	675.923547227955	0
2	1532	676.034882422855	1
2	1533	676.365965449758	0
2	1542	677.36224233883	1
2	1543	678.007883947197	0
2	1580	685.648919154186	1
2	1581	686.185432933916	0
2	1600	690.166005999273	1
2	1601	690.587246933056	0
2	1605	690.71734682933	1
2	1606	691.332194128295	0
2	1610	691.401385754626	1
2	1611	691.999003219174	0
2	1625	697.189313289153	1
2	1626	697.326688223072	0
2	1645	701.93043103617	1
2	1646	702.173651651853	0
2	1715	723.961141529805	1
2	1716	724.528537307834	0
2	1720	724.575155710372	1
2	1721	725.183439051281	0
2	1725	725.205115873122	1
2	1728	725.870109500657	0
2	1737	726.697288313194	1
2	1738	727.492891048654	0
2	1850	781.557222061418	1
2	1851	782.028000624746	0
2	1860	783.890917284093	1
2	1861	784.173391443668	0
2	1865	784.920426765905	1
2	1866	785.050390352858	0
2	1870	785.304881440504	1
2	1871	785.456221990743	0
2	1875	785.457047739008	1
2	1876	785.919455912466	0
2	1880	786.693365209084	1
2	1881	786.900343420719	0
2	1885	787.116646009922	1
2	1886	787.581904090232	0
2	1940	809.980525053825	1
2	1941	810.606310743347	0
2	1980	835.275644197452	1
2	1981	835.64252683849	0
2	1990	836.5512781644	1
2	1992	836.556526086097	2
2	1993	836.958321450492	1
2	1996	837.645726400874	0
2	2030	846.241390419958	1
2	2031	846.958235176076	0
2	2035	847.020680155778	1
2	2036	847.503895900846	0
2	2040	847.546303904521	1
2	2041	848.391248351969	0
2	2055	850.002996321618	1
2	2056	850.716862591509	0
2	2080	870.541020437822	1
2	2081	871.25418861021	0
2	2100	878.746416565082	1
2	2101	879.295617778407	0
2	2110	881.296480720927	1
2	2111	881.854128339138	0
2	2120	882.838327155294	1
2	2123	883.582916785075	0
2	2130	884.506720614696	1
2	2131	884.770038705316	0
2	2175	907.178763455741	1
2	2176	907.622677409995	0
2	2267	967.777872340439	1
2	2268	967.845115717266	0
2	2290	971.226119265286	1
2	2291	971.300521666276	0
2	2425	1018.124542810375	1
2	2426	1018.162228700766	0
2	2440	1028.258693880489	1
2	2441	1029.036614160781	0
2	2445	1029.234990255879	1
2	2446	1029.446047433169	0
2	2460	1030.947109606741	1
2	2461	1031.312894374889	0
2	2470	1033.303709022055	1
2	2471	1033.787894635274	0
2	2475	1033.870517758383	1
2	2476	1034.333804119144	0
2	2480	1034.39277312368	1
2	2481	1034.772553773875	0
2	2565	1063.100204795635	1
2	2566	1063.858374011405	0
2	2615	1076.168878213383	1
2	2616	1076.396472593159	0
2	2640	1090.547140277395	1
2	2641	1090.926673807882	0
2	2745	1160.224357064765	1
2	2746	1160.437004296813	0
2	2750	1160.627146945226	1
2	2751	1160.944573081104	0
2	2755	1161.29012115699	1
2	2758	1161.719241477229	0
2	2765	1162.854446262715	1
2	2766	1163.112617868238	0
2	2785	1172.730785146953	1
2	2786	1172.915986112899	0
2	2795	1173.616495567998	1
2	2797	1173.669097864891	2
2	2798	1173.792465396014	1
2	2803	1174.237212139296	0
2	2810	1175.012879978433	1
2	2811	1175.473731355809	0
2	2960	1266.059435681279	1
2	2961	1266.062517372239	0
2	2980	1268.570543084467	1
2	2982	1268.902006730631	2
2	2983	1269.428696535224	1
2	2986	1270.245253222551	0
2	2990	1270.371698239337	1
2	2991	1271.047671524597	0
2	3020	1284.826643112363	1
2	3022	1284.912009788365	2
2	3023	1285.296977470501	1
2	3027	1285.445338809935	2
2	3028	1286.165019464272	1
2	3031	1286.576142563823	0
2	3035	1286.923002683843	1
2	3036	1286.991832038028	0
2	3040	1287.125947740981	1
2	3043	1287.677779149277	0
2	3047	1288.075367689318	1
2	3048	1288.348629275815	0
2	3052	1288.779220509002	1
2	3053	1288.871872885119	0
2	3057	1289.632475123817	1
2	3058	1289.688330344543	0
2	3105	1309.29228612813	1
2	3106	1310.235659583227	0
2	3115	1310.867520044492	1
2	3116	1311.446751737329	0
2	3315	1454.112866258466	1
2	3316	1454.574194937714	0
2	3352	1473.394543631208	1
2	3353	1473.512230214008	0
2	3362	1474.755136533641	1
2	3363	1475.171526950967	0
2	3390	1487.081470297151	1
2	3393	1487.677114299584	0
2	3442	1518.756851786052	1
2	3443	1518.90390770098	0
2	3450	1519.798821717345	1
2	3451	1520.469345962841	0
2	3485	1542.097993165122	1
2	3487	1542.238715151363	2
2	3488	1542.78608280743	1
2	3491	1543.671662136088	0
2	3500	1544.637114972731	1
2	3501	1545.023901856239	0
2	3515	1546.804029006802	1
2	3516	1547.100575505701	0
2	3580	1607.642137199292	1
2	3581	1607.748033410258	0
2	3585	1608.481000623046	1
2	3586	1608.662925473455	0
2	3635	1636.625266696999	1
2	3636	1636.81637534588	0
2	3685	1647.704940506316	1
2	3686	1647.831805309482	0
2	3720	1658.311934821385	1
2	3721	1658.544897259961	0
2	3727	1659.282974920146	1
2	3728	1659.470486814532	0
2	3732	1660.219717374274	1
2	3733	1660.468768036276	0
2	3770	1667.417698336047	1
2	3775	1668.076976633982	0
2	3781	1668.432442510155	1
2	3782	1668.900686453401	0
2	3786	1669.120826175913	1
2	3787	1669.845433134471	0
2	3791	1670.223117880964	1
2	3792	1670.387525744528	0
2	3865	1682.93380193232	1
2	3866	1683.065415506551	0
2	3870	1683.211727668308	1
2	3871	1683.59511217924	0
2	3880	1685.245733262828	1
2	3881	1685.311166325555	0
2	3920	1701.170338903545	1
2	3921	1701.473562889083	0
2	4005	1743.969302275554	1
2	4006	1744.612608409112	0
2	4020	1747.666924086888	1
2	4021	1747.876048733834	0
2	4065	1764.398545396821	1
2	4066	1764.515743408835	0
2	4112	1776.445835614798	1
2	4113	1776.472381280391	0
2	4122	1777.722481936571	1
2	4123	1778.179202230397	0
2	4135	1780.374931585456	1
2	4136	1780.798446464661	0
2	4165	1804.176667219213	1
2	4166	1804.674043883741	0
2	4175	1805.928138525871	1
2	4176	1806.346008916745	0
2	4215	1814.465155564414	1
2	4216	1814.986999751385	0
2	4230	1830.23190161417	1
2	4231	1830.299696026817	0
2	4240	1832.049664432967	1
2	4241	1832.098895909209	0
2	4250	1833.027429219727	1
2	4251	1833.919307486426	0
2	4290	1860.646930609889	1
2	4291	1860.663261608692	0
2	4320	1866.160492645018	1
2	4321	1866.726179771882	0
2	4370	1886.275690645522	1
2	4371	1886.560919496072	0
2	4387	1888.221426192972	1
2	4388	1888.63168462215	0
2	4394	1888.835343918632	1
2	4395	1889.466952770883	0
2	4402	1890.696956103759	1
2	4403	1890.946914263144	0
2	4414	1891.959871319812	1
2	4415	1892.619005722999	0
2	4424	1893.524743871743	1
2	4425	1894.268986865998	0
2	4432	1895.449197640603	1
2	4433	1895.643781794727	0
2	4447	1897.362890153929	1
2	4449	1897.812446671028	2
2	4450	1898.214005258006	1
2	4455	1898.767280174584	0
2	4462	1900.014169683831	1
2	4463	1900.265391913314	0
2	4467	1900.538241943698	1
2	4468	1900.682456203621	0
2	4472	1900.829562277383	1
2	4475	1901.166768427497	0
2	4510	1909.739413088883	1
2	4513	1910.191398046664	0
2	4525	1911.98689594249	1
2	4526	1912.748106980775	0
2	4690	1999.8337479399	1
2	4691	2000.296138679937	0
2	4695	2000.408354779834	1
2	4696	2001.008613417393	0
2	4765	2016.731385829978	1
2	4766	2017.159874838635	0
2	4805	2030.990984546994	1
2	4806	2031.376439020202	0
2	4822	2033.5913413252	1
2	4823	2033.990402373204	0
2	4830	2034.975804593433	1
2	4833	2035.562402518045	0
2	4844	2036.458157934438	1
2	4846	2036.554224705878	2
2	4847	2037.107356751475	1
2	4852	2037.703358235487	0
2	4856	2037.965098116642	1
2	4857	2038.594579156625	0
2	4861	2038.72926201236	1
2	4862	2039.067148617186	0
2	4866	2039.115851031884	1
2	4867	2039.655407413697	0
2	4874	2040.934730376805	1
2	4875	2041.390178736947	0
2	4885	2042.679382749261	1
2	4892	2043.30937286275	0
2	4904	2045.782699134057	1
2	4905	2045.905451031676	0
2	4912	2046.887193162662	1
2	4913	2046.987996647455	0
2	4919	2047.27201655759	1
2	4921	2047.889232670314	2
2	4922	2047.907498802519	1
2	4926	2048.068690080575	2
2	4927	2048.507748907148	1
2	4930	2049.14814292667	0
2	4940	2050.855643111933	1
2	4941	2051.23125661015	0
2	4965	2068.221602220123	1
2	4966	2068.535215623274	0
2	4975	2069.468850164047	1
2	4976	2069.951158339512	0
2	4985	2071.507484356734	1
2	4986	2071.636868749908	0
2	4990	2071.829564770749	1
2	4991	2072.326061457698	0
2	5040	2089.784511987619	1
2	5041	2090.479768540165	0
2	5100	2127.94712636143	1
2	5101	2128.661633170985	0
2	5270	2173.907923391385	1
2	5271	2174.329712352473	0
2	5277	2174.916413649075	1
2	5280	2175.119403691068	0
2	5322	2182.870150264965	1
2	5325	2183.235072590446	0
2	5336	2184.263602819802	1
2	5339	2184.806013539888	0
2	5346	2186.022276906811	1
2	5347	2186.270743481012	0
2	5351	2186.734014437446	1
2	5352	2187.07563742901	0
2	5361	2188.095180635828	1
2	5363	2188.964511845247	2
2	5364	2189.036780687923	1
2	5367	2189.753153657716	0
2	5371	2189.791470226911	1
2	5374	2190.497397025245	0
2	5381	2191.32919750605	1
2	5382	2192.031824127807	0
2	5391	2192.788620894217	1
2	5392	2192.944948570094	0
2	5404	2194.542645481621	1
2	5405	2194.88671951428	0
2	5455	2201.923110366237	1
2	5456	2201.983118267044	0
2	5460	2202.54331105021	1
2	5461	2202.862595957437	0
2	5480	2206.833589915282	1
2	5481	2207.227162880417	0
2	5485	2207.747857627085	1
2	5486	2208.058496412089	0
2	5505	2214.610315397206	1
2	5508	2215.167835981384	0
2	5610	2262.301333145619	1
2	5611	2262.678592401178	0
2	5620	2263.356661663641	1
2	5621	2263.801472066663	0
2	5625	2264.03272952179	1
2	5626	2264.258844962152	0
2	5635	2265.122709150765	1
2	5636	2265.492232662491	0
2	5640	2265.664252455218	1
2	5641	2266.065826288849	0
2	5645	2266.430384700076	1
2	5646	2267.05977699068	0
2	5650	2267.365649710092	1
2	5651	2267.772160592541	0
2	5655	2268.006034346095	1
2	5656	2268.184892398078	0
2	5660	2268.733120947208	1
2	5661	2268.921039598022	0
2	5665	2269.392535938504	1
2	5666	2269.850785341632	0
2	5670	2270.266645892223	1
2	5671	2270.269887281821	0
2	5675	2270.407062391878	1
2	5676	2271.14957318763	0
2	5680	2271.376970801518	1
2	5681	2272.063445980528	0
2	5830	2323.525268406315	1
2	5831	2323.556978564482	0
2	5835	2323.718584135657	1
2	5836	2324.459154132386	0
2	5840	2324.707141031371	1
2	5841	2325.308103720383	0
2	5965	2367.843767690859	1
2	5966	2368.046099356603	0
2	5975	2369.28163321724	1
2	5976	2369.551329628634	0
2	5980	2369.777143593692	1
2	5981	2370.198852576385	0
2	5985	2370.313926484832	1
2	5986	2370.697226496995	0
2	6045	2387.154808500774	1
2	6046	2387.206058499584	0
2	6115	2422.332802576272	1
2	6116	2422.708749539982	0
2	6125	2423.621878784363	1
2	6126	2424.010420547211	0
2	6275	2518.469238222727	1
2	6276	2518.594646923618	0
2	6300	2524.697490882883	1
2	6301	2524.714551513517	0
2	6335	2542.210428529667	1
2	6336	2542.493568663998	0
2	6345	2544.394994140783	1
2	6346	2544.533099329477	0
2	6360	2547.466910853573	1
2	6361	2547.88613090677	0
2	6380	2559.204999749603	1
2	6381	2559.377802780586	0
2	6390	2560.215403423776	1
2	6391	2560.908341317799	0
2	6425	2586.656520788035	1
2	6426	2586.845548077822	0
2	6475	2613.839197868969	1
2	6476	2614.294737577631	0
2	6485	2615.528605334571	1
2	6486	2616.017588763364	0
2	6525	2639.509057054071	1
2	6526	2639.674919011323	0
2	6595	2666.049275560309	1
2	6596	2666.464976756212	0
2	6695	2695.65141814357	1
2	6696	2695.78627139669	0
2	6700	2695.874792892331	1
2	6701	2696.220020511785	0
2	6705	2696.280072857948	1
2	6706	2696.663607203999	0
2	6715	2697.822789598623	1
2	6718	2697.937560259776	0
2	6722	2698.355421512793	1
2	6723	2698.567634863864	0
2	6727	2698.593686669609	1
2	6728	2699.431314638063	0
2	6732	2699.623728828768	1
2	6733	2700.118557160852	0
2	6767	2710.260030498574	1
2	6768	2710.370480248449	0
2	6777	2710.987485020403	1
2	6778	2711.749420140335	0
2	6790	2714.15131846776	1
2	6791	2714.454597196146	0
2	6820	2718.281486106089	1
2	6821	2718.814279715878	0
2	6830	2719.692912018042	1
2	6832	2720.435256078929	2
2	6833	2720.512432920954	1
2	6836	2721.117660145483	0
2	6900	2737.620881081861	1
2	6901	2738.457054462065	0
2	6930	2755.751810787021	1
2	6931	2756.374249988854	0
2	6945	2760.677622083219	1
2	6946	2760.944635440142	0
2	6982	2766.890681340864	1
2	6983	2767.183640547858	0
2	6992	2768.406266700837	1
2	6993	2768.780897480871	0
2	7000	2769.495114776422	1
2	7001	2770.145162971195	0
2	7115	2830.517521981598	1
2	7116	2831.102265733652	0
2	7120	2831.506673226212	1
2	7121	2831.867905166311	0
2	7200	2864.557729377648	1
2	7201	2865.032339858108	0
2	7205	2865.493839537528	1
2	7206	2865.608770245996	0
2	7212	2866.240791819964	1
2	7213	2866.528015593237	0
2	7220	2867.053849182418	1
2	7221	2867.718057004533	0
2	7260	2895.437787214955	1
2	7261	2895.510260629037	0
2	7305	2911.101415754945	1
2	7306	2911.56087072881	0
2	7345	2942.491262815067	1
2	7346	2942.890899251675	0
2	7350	2943.011497270552	1
2	7351	2943.721911683393	0
2	7355	2944.079778780922	1
2	7356	2944.355981484748	0
2	7415	2999.363332436213	1
2	7416	2999.932434328133	0
2	7427	3001.086920934788	1
2	7428	3001.709626015741	0
2	7432	3002.126365587782	1
2	7435	3002.406356677599	0
2	7470	3008.546826842935	1
2	7471	3009.179847545866	0
2	7475	3009.187349923501	1
2	7476	3009.756596495668	0
2	7480	3010.34147728948	1
2	7481	3010.38659770893	0
2	7535	3031.031050805893	1
2	7536	3031.518361103684	0
2	7545	3032.424421835831	1
2	7547	3032.578641742654	2
2	7548	3032.648571887343	1
2	7551	3033.239886616646	0
2	7555	3033.346182157486	1
2	7556	3034.096504853815	0
2	7570	3035.971125305128	1
2	7571	3036.219161985763	0
2	7590	3040.620988762951	1
2	7591	3041.137968468131	0
2	7715	3088.140228488756	1
2	7716	3088.626720347621	0
2	7740	3092.644088251372	1
2	7741	3093.358567470538	0
2	7795	3103.019792762961	1
2	7797	3103.095828503807	2
2	7798	3103.60407726282	1
2	7801	3104.109157136937	0
2	7805	3104.116270808067	1
2	7806	3104.871894192712	0
2	7810	3105.073154159964	1
2	7811	3105.562636276304	0
2	7820	3106.883099005039	1
2	7821	3107.522419050319	0
2	7845	3117.355624284005	1
2	7847	3117.475777011117	2
2	7848	3118.092266567992	1
2	7851	3118.705678873379	0
2	7857	3119.226291359848	1
2	7858	3119.652062496133	0
2	7865	3120.854592438284	1
2	7866	3120.906395843681	0
2	7925	3154.556291410978	1
2	7926	3154.746964151425	0
2	7950	3157.798625087849	1
2	7952	3158.008095144181	2
2	7953	3158.410515799992	1
2	7958	3159.33691952458	0
2	7970	3161.411231498776	1
2	7971	3161.879855024311	0
2	7980	3163.111148810998	1
2	7981	3163.252383957765	0
2	7995	3165.695495148317	1
2	7996	3166.117632776659	0
2	8090	3201.432942939177	1
2	8091	3201.705988087665	0
2	8100	3202.432436500721	1
2	8103	3203.03773497424	0
2	8112	3204.329853855908	1
2	8113	3204.398550664465	0
2	8124	3204.927015559988	1
2	8125	3205.792732755718	0
2	8139	3208.143774919125	1
2	8140	3208.343028869358	0
2	8205	3250.905086292224	1
2	8206	3251.526773422195	0
2	8240	3261.094262676499	1
2	8241	3261.814058301622	0
2	8290	3273.24758949356	1
2	8291	3273.626677557702	0
2	8420	3315.46152324012	1
2	8422	3316.1115058265	2
2	8423	3316.352657398906	1
2	8427	3316.992585497364	2
2	8428	3317.191782676939	1
2	8431	3318.186619781794	0
2	8450	3341.471905429042	1
2	8451	3342.154894965969	0
2	8460	3342.941957988785	1
2	8461	3343.702866886291	0
2	8472	3344.85221018336	1
2	8473	3345.333068312346	0
2	8595	3381.877071973861	1
2	8596	3382.268240973082	0
2	8645	3393.473684667009	1
2	8646	3394.113773893336	0
2	8655	3395.50585973523	1
2	8656	3395.97346468503	0
2	8700	3419.677112026352	1
2	8701	3420.133660655276	0
2	8767	3441.064336992917	1
2	8768	3441.336445638635	0
2	8772	3441.782618605718	1
2	8773	3442.089760218612	0
2	8777	3442.34106229271	1
2	8778	3442.490149701764	0
2	8784	3442.907767080757	1
2	8785	3443.315257171127	0
2	8794	3443.879155446386	1
2	8795	3444.635961260791	0
2	8890	3480.043365762639	1
2	8891	3480.060773059677	0
2	8935	3490.549626941162	1
2	8936	3491.416455890921	0
2	8955	3510.627705847216	1
2	8956	3510.993133046995	0
2	8985	3519.396749801484	1
2	8986	3520.259082442806	0
2	9045	3536.198116329428	1
2	9046	3537.005786026837	0
2	9065	3540.819396497825	1
2	9066	3541.717636334437	0
2	9145	3566.751315658804	1
2	9146	3566.755251086806	0
2	9180	3580.423687833304	1
2	9181	3580.72354310308	0
2	9185	3580.876036017158	1
2	9190	3581.524141723284	0
2	9197	3582.906764733878	1
2	9198	3583.017351106874	0
2	9275	3628.356727471926	1
2	9276	3628.537263047762	0
2	9285	3629.599159582172	1
2	9286	3630.291243124727	0
2	9330	3656.590517353511	1
2	9331	3657.161468100454	0
2	9430	3697.614378120652	1
2	9433	3697.939699083619	0
2	9437	3698.256539233414	1
2	9439	3698.345667166267	2
2	9440	3698.82282335661	1
2	9443	3699.492946881388	0
2	9447	3699.562680052942	1
2	9449	3699.687288237961	2
2	9450	3700.340838382912	1
2	9453	3700.786055950548	0
2	9457	3701.640671118534	1
2	9458	3701.730392216479	0
2	9462	3702.047816488051	1
2	9463	3702.226871433302	0
2	9495	3718.499518675749	1
2	9496	3719.099947554334	0
2	9500	3719.61712942376	1
2	9501	3720.062351146662	0
2	9525	3741.493492746418	1
2	9526	3742.17806223205	0
2	9565	3763.020003409327	1
2	9566	3763.54542004249	0
2	9605	3781.362737413566	1
2	9606	3782.03799793142	0
2	9610	3782.13719596896	1
2	9611	3782.470312961136	0
2	9617	3783.093668648841	1
2	9618	3783.452728746125	0
2	9740	3837.002162880577	1
2	9741	3837.848412496198	0
2	9775	3846.138079520126	1
2	9776	3846.914374001029	0
2	9785	3847.667240140507	1
2	9786	3848.359206925923	0
2	9820	3867.740682205044	1
2	9821	3868.360399300595	0
2	9912	3894.298588526314	1
2	9913	3894.650738018466	0
2	9930	3898.209671977457	1
2	9932	3898.212208963184	2
2	9933	3898.324527816212	1
2	9938	3898.78970017081	0
2	9942	3899.162010235299	1
2	9945	3899.734888656827	0
2	9949	3900.201629619372	1
2	9950	3900.275504611776	0
2	9954	3900.449899551104	1
2	9956	3900.801570704093	2
2	9957	3901.155242880032	1
2	9961	3901.184332826217	2
2	9962	3901.937535779382	1
2	9965	3902.390142510011	0
2	10047	3952.344002591013	1
2	10048	3953.097581326522	0
2	10062	3954.98790994137	1
2	10063	3955.564208147654	0
2	10092	3959.440129521497	1
2	10095	3960.251456607659	0
2	10195	3991.980721595339	1
2	10197	3992.605510024077	2
2	10198	3992.90145187012	1
2	10201	3993.344469022631	0
2	10205	3993.352864949569	1
2	10206	3994.049069179428	0
2	10212	3994.09749905158	1
2	10213	3994.646608551006	0
2	10220	3995.289652242166	1
2	10221	3995.907902755096	0
2	10227	3996.324699164702	1
2	10228	3996.803115280877	0
2	10272	4007.031934850022	1
2	10273	4007.379213366745	0
2	10305	4022.946587309018	1
2	10306	4023.316613408927	0
2	10335	4042.75873951792	1
2	10336	4042.998315082126	0
2	10375	4054.866285673112	1
2	10376	4055.039374357494	0
2	10385	4055.598761712617	1
2	10387	4055.798675297976	2
2	10390	4055.99698501172	1
2	10397	4056.712983415355	0
2	10401	4056.840002802208	1
2	10402	4057.229895687602	0
2	10406	4057.601868354145	1
2	10408	4058.095162724225	2
2	10409	4058.097509168867	1
2	10413	4058.252656708737	2
2	10414	4058.868628570098	1
2	10418	4059.055795279638	2
2	10421	4059.533567984016	1
2	10425	4060.228936286943	2
2	10426	4060.407154126731	1
2	10430	4060.6539028738	2
2	10431	4060.865210259785	1
2	10435	4060.87692109918	2
2	10436	4061.57938289925	1
2	10439	4062.000589984874	0
2	10443	4062.004005720817	1
2	10444	4062.507572936299	0
2	10520	4083.047671582596	1
2	10521	4083.704099785892	0
2	10525	4083.77259337285	1
2	10528	4084.604390744475	0
2	10535	4085.779794424499	1
2	10536	4086.43928378013	0
2	10565	4095.561250736734	1
2	10566	4095.682007874666	0
2	10577	4096.523330316115	1
2	10578	4096.866241376267	0
2	10595	4099.534826558161	1
2	10596	4100.131829719215	0
2	10655	4113.250696766305	1
2	10656	4113.941273129298	0
2	10665	4115.148133646664	1
2	10667	4115.29450170386	2
2	10668	4115.897968030399	1
2	10671	4116.708097912189	0
2	10880	4179.631891299772	1
2	10881	4180.111781545422	0
2	10890	4181.061524946957	1
2	10891	4181.587519610274	0
2	10922	4186.930320664712	1
2	10923	4187.055272670808	0
2	10947	4190.251825785827	1
2	10948	4190.874494115658	0
2	10952	4191.780416117995	1
2	10953	4191.805327548528	0
2	10957	4191.838253168128	1
2	10958	4192.556370873865	0
2	10965	4193.577297009189	1
2	10966	4194.018917713803	0
2	11065	4273.265004622535	1
2	11066	4273.781757762881	0
2	11105	4293.792343868751	1
2	11108	4294.233680032649	0
2	11115	4295.308563212687	1
2	11116	4295.542843463029	0
2	11150	4301.650535392352	1
2	11151	4301.816782066124	0
2	11330	4348.123520923779	1
2	11331	4348.669842271087	0
2	11335	4348.780565170513	1
2	11336	4349.149683820968	0
2	11340	4349.241330781867	1
2	11341	4349.932993999356	0
2	11345	4350.105935271433	1
2	11346	4350.440387668507	0
2	11350	4350.447153778239	1
2	11351	4351.064668956911	0
2	11355	4351.673254297739	1
2	11356	4351.959010225488	0
2	11360	4351.987390669207	1
2	11361	4352.743747966457	0
2	11405	4369.720228047851	1
2	11406	4370.211586763483	0
2	11410	4370.401994748185	1
2	11411	4371.165407230944	0
2	11425	4372.799958153272	1
2	11426	4372.950069252591	0
2	11515	4435.877830418565	1
2	11516	4436.195814272262	0
2	11555	4479.967323851281	1
2	11556	4480.549713189012	0
2	11570	4483.304037639086	1
2	11571	4483.694005686235	0
2	11585	4485.930270910947	1
2	11586	4486.581444035678	0
2	11600	4489.358890361298	1
2	11601	4489.470478570008	0
2	11640	4511.151456577325	1
2	11641	4511.469603305849	0
2	11730	4552.04154760744	1
2	11731	4552.185829526792	0
2	11745	4553.906067611655	1
2	11746	4554.220391627638	0
2	11885	4627.49424895021	1
2	11886	4627.7129095534	0
2	11945	4640.993477674653	1
2	11946	4641.187700353802	0
2	11980	4648.46379132711	1
2	11981	4648.836551027896	0
2	11990	4649.353129848738	1
2	11991	4649.689567348885	0
2	12032	4664.725443480017	1
2	12033	4665.383754986178	0
2	12037	4665.538735981824	1
2	12038	4666.019951509943	0
2	12042	4666.192986933035	1
2	12043	4666.789102263914	0
2	12145	4732.780568437101	1
2	12146	4732.918166909399	0
2	12175	4741.972381800632	1
2	12176	4742.584263970749	0
2	12185	4743.754821460761	1
2	12186	4743.768373242765	0
2	12210	4747.411994375445	1
2	12211	4747.807119385445	0
2	12315	4774.062901106099	1
2	12316	4774.646360082933	0
2	12320	4774.797884265924	1
2	12321	4775.330908310981	0
2	12355	4788.335964142686	1
2	12356	4788.599294317866	0
2	12370	4790.86308260989	1
2	12371	4791.350778878269	0
2	12450	4833.430362943834	1
2	12451	4833.802214248742	0
2	12550	4881.490656937234	1
2	12551	4881.775514596348	0
2	12590	4903.672476911563	1
2	12591	4904.299148130786	0
2	12600	4905.114879369591	1
2	12601	4905.804421345653	0
2	12610	4907.285529216011	1
2	12611	4907.603013400125	0
2	12635	4913.867207213559	1
2	12636	4913.98336974586	0
2	12655	4926.697683903523	1
2	12656	4927.274772285156	0
2	12845	5036.336417669745	1
2	12847	5036.815061304579	2
2	12848	5036.903780395107	1
2	12851	5037.434665725881	0
2	12855	5037.957405580905	1
2	12856	5038.1895247904	0
2	12865	5038.989606215052	1
2	12866	5039.471789409395	0
2	12875	5040.320377692036	1
2	12876	5041.127969342505	0
2	12972	5068.053549557014	1
2	12973	5068.507722322225	0
2	13040	5105.173243689879	1
2	13041	5105.362170553251	0
2	13070	5112.608432711459	1
2	13071	5112.811921079062	0
2	13100	5118.827604012518	1
2	13101	5119.129510530728	0
2	13124	5123.061466878651	1
2	13125	5123.119945120887	0
2	13155	5138.326077463012	1
2	13156	5138.650455106319	0
2	13195	5147.256603297086	1
2	13196	5147.867840723699	0
2	13265	5180.445708779932	1
2	13266	5180.841554802661	0
2	13270	5180.849956934472	1
2	13271	5181.35777595025	0
2	13285	5183.709382311947	1
2	13286	5183.793939973269	0
2	13295	5184.620310049784	1
2	13297	5184.688945273789	2
2	13298	5184.783742854506	1
2	13301	5185.645666236378	0
2	13305	5185.971230689317	1
2	13306	5186.233851344645	0
2	13390	5217.906785928567	1
2	13391	5218.176908858919	0
2	13397	5218.648493694848	1
2	13398	5218.961476036261	0
2	13402	5219.11097255129	1
2	13403	5219.652234181536	0
2	13410	5220.707236590598	1
2	13411	5221.037100679807	0
2	13465	5249.70237212052	1
2	13466	5249.843544941219	0
2	13475	5250.881249026706	1
2	13480	5251.60386254346	0
2	13510	5258.606866717651	1
2	13511	5258.754115220686	0
2	13535	5269.365458971153	1
2	13536	5269.403972259013	0
2	13572	5274.440902463732	1
2	13573	5274.503645831613	0
2	13580	5275.360355824105	1
2	13581	5276.187519874411	0
2	13605	5281.205962895934	1
2	13606	5281.459208183989	0
2	13680	5333.114188125115	1
2	13683	5333.346067810402	0
2	13687	5333.491795274175	1
2	13688	5333.920796865289	0
2	13694	5334.330305193368	1
2	13695	5334.512085252506	0
2	13699	5334.553363680139	1
2	13704	5335.377547559533	0
2	13730	5339.471173770291	1
2	13733	5340.358319865507	0
2	13797	5361.88027149592	1
2	13798	5362.065838888446	0
2	13850	5379.790071395657	1
2	13851	5380.438842746006	0
2	13900	5401.876574949547	1
2	13901	5402.193980731699	0
2	13925	5407.449794030303	1
2	13928	5408.165309152757	0
2	13935	5408.852584509176	1
2	13936	5409.439033130421	0
2	13940	5409.692798338036	1
2	13941	5410.152328484417	0
2	13970	5423.012909728559	1
2	13971	5423.785549907637	0
2	14165	5504.065736505611	1
2	14166	5504.66190522952	0
2	14177	5505.20713358714	1
2	14178	5505.713517952161	0
2	14250	5525.521007433743	1
2	14251	5525.703640801161	0
2	14255	5525.742231493749	1
2	14260	5526.486032382892	0
2	14267	5528.03436982668	1
2	14268	5528.345365970562	0
2	14277	5529.277446664695	1
2	14278	5529.393517613717	0
2	14312	5544.812972000012	1
2	14313	5545.032611153734	0
2	14319	5545.283847825499	1
2	14320	5545.557715750619	0
2	14327	5546.609537712649	1
2	14328	5546.84718254939	0
2	14335	5548.046809667016	1
2	14336	5548.55754868178	0
2	14345	5549.658817822053	1
2	14346	5549.817283915236	0
2	14400	5560.798374576826	1
2	14401	5561.039497168395	0
2	14415	5562.880467280469	1
2	14416	5563.06836000222	0
2	14440	5566.543526794478	1
2	14441	5566.88653746767	0
2	14505	5589.152688123759	1
2	14506	5589.691932250997	0
2	14510	5590.185289616871	1
2	14511	5590.256023411239	0
2	14540	5593.902083785734	1
2	14541	5594.608750006312	0
2	14567	5598.455660980039	1
2	14568	5599.018404346725	0
2	14577	5600.544917873978	1
2	14578	5600.629008428168	0
2	14590	5602.401233886527	1
2	14591	5603.244806439171	0
2	14745	5656.157544125475	1
2	14746	5656.258021154742	0
2	14805	5690.96864144264	1
2	14806	5691.717186314798	0
2	14870	5707.814318205927	1
2	14871	5707.91515177053	0
2	14880	5708.523502848553	1
2	14881	5709.323731627712	0
2	14890	5710.619807752318	1
2	14891	5711.140080190847	0
2	14935	5726.666832779006	1
2	14940	5727.475915788517	0
2	14949	5728.420861694192	1
2	14950	5728.712817372366	0
2	14966	5731.194934992317	1
2	14967	5731.470916859976	0
2	15100	5765.452885455806	1
2	15101	5766.046101119612	0
2	15135	5775.967048511834	1
2	15136	5776.064772475981	0
2	15157	5779.681928404475	1
2	15158	5780.017028564139	0
2	15162	5780.161062080331	1
2	15163	5780.471965828881	0
2	15195	5786.194925137603	1
2	15196	5786.616368163774	0
2	15210	5789.032506826035	1
2	15212	5789.077461080013	2
2	15213	5789.337015923512	1
2	15216	5790.203326811063	0
2	15220	5790.25570947907	1
2	15221	5790.774852242767	0
2	15245	5798.196600995754	1
2	15246	5798.645807152706	0
2	15275	5821.512986634158	1
2	15276	5821.796598630417	0
2	15280	5822.293408509613	1
2	15281	5822.356402788469	0
2	15285	5822.374557326555	1
2	15286	5823.355322653399	0
2	15292	5823.508142993493	1
2	15293	5824.106942847156	0
2	15302	5825.441570850784	1
2	15303	5825.531496150716	0
2	15425	5870.474790445812	1
2	15426	5870.843935183912	0
2	15445	5889.617521757298	1
2	15446	5890.275874207408	0
2	15480	5901.219451129194	1
2	15481	5901.259287095396	0
2	15492	5902.448159025952	1
2	15493	5902.934487635736	0
2	15500	5903.725754358179	1
2	15501	5903.834721789416	0
2	15515	5914.247879963914	1
2	15516	5914.876173788093	0
2	15595	5965.674116260499	1
2	15596	5966.283316990881	0
2	15650	5988.33845828556	1
2	15651	5989.060768862856	0
2	15670	5997.976566542221	1
2	15672	5998.317899437532	2
2	15673	5998.368447063787	1
2	15678	5998.93262560509	0
2	15682	5999.359528382593	1
2	15683	5999.484917227475	0
2	15687	5999.525854660574	1
2	15688	6000.049520399205	0
2	15795	6038.909825048094	1
2	15796	6038.96927966084	0
2	15950	6095.743562812609	1
2	15954	6095.923666401396	2
2	15955	6096.28548686382	1
2	15962	6097.213176895246	0
2	15966	6097.777184642759	1
2	15967	6098.066544625616	0
2	15974	6099.16536506383	1
2	15977	6100.012787943833	0
2	16020	6119.602694628043	1
2	16021	6119.905366549179	0
2	16047	6126.994838809962	1
2	16048	6127.155097107508	0
2	16052	6127.206595094557	1
2	16053	6127.938608224283	0
2	16057	6128.352845507793	1
2	16058	6128.835035551724	0
2	16062	6129.244784958672	1
2	16065	6129.771967645188	0
2	16069	6130.100241156565	1
2	16072	6130.633057898435	0
2	16100	6141.378873450633	1
2	16101	6141.523410195332	0
2	16115	6143.666216231095	1
2	16116	6143.868378638197	0
2	16142	6146.754381291544	1
2	16143	6147.40133565047	0
2	16152	6149.065163904095	1
2	16153	6149.073847278507	0
2	16162	6149.628912571724	1
2	16163	6150.435674915483	0
2	16177	6151.942743879994	1
2	16178	6152.357582869634	0
2	16187	6153.307732565487	1
2	16188	6153.854762550511	0
2	16250	6170.042389045627	1
2	16251	6170.773238562699	0
2	16375	6257.552734116282	1
2	16376	6257.989313828039	0
2	16497	6314.022157871043	1
2	16498	6314.295998867595	0
2	16515	6317.892759508596	1
2	16516	6318.168439442174	0
2	16537	6321.009277292403	1
2	16540	6321.677046452854	0
2	16580	6332.767673080472	1
2	16581	6333.505304728081	0
2	16590	6334.788169290621	1
2	16591	6334.947291812026	0
2	16620	6339.352799727711	1
2	16622	6339.49053042569	2
2	16623	6339.981619241728	1
2	16628	6340.567882823978	0
2	16655	6347.589721755722	1
2	16656	6347.646216930431	0
2	16665	6349.836802395066	1
2	16667	6349.873751373749	2
2	16668	6350.204083040585	1
2	16671	6350.683646878316	0
2	16675	6350.811115269199	1
2	16678	6351.488338043629	0
2	16695	6353.979395118393	1
2	16696	6354.290903643348	0
2	16717	6358.24500939867	1
2	16718	6358.440482377079	0
2	16724	6359.273569537987	1
2	16725	6359.327960168947	0
2	16732	6359.99966681911	1
2	16734	6360.407390546624	2
2	16735	6360.814380526686	1
2	16740	6361.790325580774	0
2	16747	6362.615668893677	1
2	16748	6363.157249829782	0
2	16790	6370.488022648505	1
2	16791	6370.728803206305	0
2	16805	6372.955671093675	1
2	16806	6373.522123336298	0
2	16815	6374.074999123285	1
2	16816	6374.854566981189	0
2	16835	6379.142569041831	1
2	16836	6379.160534331081	0
2	16845	6380.369625245539	1
2	16846	6380.57444917799	0
2	16867	6390.732156531983	1
2	16872	6391.507993955217	0
2	16879	6393.116784732066	1
2	16880	6393.1294816732	0
2	16884	6393.174914800737	1
2	16887	6393.567836620059	0
2	16894	6394.273548895856	1
2	16896	6394.440855475819	2
2	16897	6394.86093991297	1
2	16900	6395.509778891603	0
2	16907	6396.039781066158	1
2	16908	6396.891284381092	0
2	16925	6398.622522912681	1
2	16928	6399.159994659625	0
2	16935	6399.764085518711	1
2	16936	6400.118363039294	0
2	17000	6423.864164880516	1
2	17001	6424.526889294516	0
2	17012	6425.154991028826	1
2	17013	6425.817550587691	0
2	17020	6426.367637148354	1
2	17021	6426.816476017879	0
2	17080	6445.416006902902	1
2	17081	6445.427826282027	0
2	17090	6446.392079851208	1
2	17091	6447.024877836759	0
2	17125	6462.035129676872	1
2	17126	6462.084838755833	0
2	17150	6467.06266026482	1
2	17151	6467.084054571343	0
2	17160	6467.684307272127	1
2	17161	6468.329847903549	0
2	17175	6472.968495199227	1
2	17176	6473.651262998821	0
2	17230	6501.97668839201	1
2	17231	6502.156669447229	0
2	17240	6503.131679162851	1
2	17241	6503.503747261578	0
2	17255	6505.954820019377	1
2	17256	6506.263938008814	0
2	17265	6507.572895781878	1
2	17266	6507.576517403643	0
2	17302	6517.962050322	1
2	17303	6518.624703038626	0
2	17312	6519.690200595311	1
2	17313	6520.118406811453	0
2	17317	6520.268198229128	1
2	17320	6520.697582817873	0
2	17440	6572.173581705151	1
2	17441	6572.653831069865	0
2	17450	6573.551535203433	1
2	17451	6574.125642323582	0
2	17485	6588.984735024028	1
2	17486	6589.21728511989	0
2	17497	6590.726940250508	1
2	17499	6590.864991131177	2
2	17500	6590.892711810124	1
2	17503	6591.704557203882	0
2	17507	6591.71982979447	1
2	17510	6592.178087255134	0
2	17514	6592.405652975867	1
2	17515	6592.772498233485	0
2	17519	6593.182144880896	1
2	17520	6593.389665538034	0
2	17524	6593.481947652003	1
2	17525	6593.908947167134	0
2	17529	6594.299027191951	1
2	17530	6594.522587750999	0
2	17537	6595.210574739928	1
2	17538	6595.571604026861	0
2	17545	6596.282236912512	1
2	17546	6597.147405818391	0
2	17555	6598.698766155716	1
2	17556	6599.216798454422	0
2	17565	6600.72097680855	1
2	17566	6600.824185905839	0
2	17594	6626.166275041471	1
2	17596	6626.477796202561	2
2	17597	6626.538539890928	1
2	17602	6627.212755378412	0
2	17609	6627.97019310717	1
2	17610	6628.234038635653	0
2	17705	6650.418635338247	1
2	17710	6650.988820140509	0
2	17865	6691.960312968797	1
2	17866	6692.586434674787	0
2	17912	6712.3390343722	1
2	17913	6712.971940945595	0
2	17917	6713.570859031741	1
2	17918	6713.95462638018	0
2	17945	6725.027546629587	1
2	17946	6725.337139975637	0
2	17985	6740.331980060855	1
2	17986	6740.640882231159	0
2	18025	6749.714666790964	1
2	18026	6749.746705250976	0
2	18035	6751.134271445875	1
2	18036	6751.434868740405	0
2	18060	6755.423292453872	1
2	18061	6756.220650116237	0
2	18070	6756.99129298718	1
2	18072	6757.38796809367	2
2	18073	6757.401034983233	1
2	18077	6757.926788117788	2
2	18078	6758.358252745433	1
2	18081	6759.162558080148	0
2	18085	6759.18061228621	1
2	18089	6759.787940086453	2
2	18090	6760.053632562174	1
2	18093	6760.832337357369	0
2	18097	6761.303514839729	1
2	18099	6761.348151367046	2
2	18102	6761.652476793513	1
2	18105	6762.443259740467	0
2	18112	6763.540533078007	1
2	18113	6763.823633265947	0
2	18140	6769.625411722398	1
2	18141	6769.711662506308	0
2	18185	6785.714073504578	1
2	18186	6786.369496705503	0
2	18205	6789.669663177621	1
2	18206	6789.999391993809	0
2	18215	6791.076509345089	1
2	18216	6791.816889270428	0
2	18225	6792.630561670644	1
2	18226	6792.728731220341	0
2	18370	6871.800133723767	1
2	18371	6872.321798105011	0
2	18380	6879.452859756312	1
2	18381	6879.637601488546	0
2	18430	6894.223261854336	1
2	18431	6895.026857385759	0
2	18475	6916.598386937775	1
2	18476	6917.479032734229	0
2	18485	6918.488951130248	1
2	18486	6918.815508074599	0
2	18505	6923.746149387243	1
2	18506	6924.142235929774	0
2	18705	7026.11859295947	1
2	18706	7026.716101527072	0
2	18760	7054.392196375103	1
2	18761	7054.618020741032	0
2	18775	7057.225896280736	1
2	18776	7057.273963333783	0
2	18790	7059.05531280169	1
2	18793	7059.607353811308	0
2	18797	7060.055902638476	1
2	18798	7060.222176594024	0
2	18820	7064.085527557413	1
2	18821	7064.493666238478	0
2	18835	7066.733161008985	1
2	18836	7067.244614724018	0
2	18930	7097.314790985033	1
2	18933	7097.93286721434	0
2	18940	7098.682010509239	1
2	18941	7098.896461420623	0
2	18965	7105.252159637951	1
2	18968	7106.045181340236	0
2	18975	7106.774541307344	1
2	18978	7107.321348597273	0
2	18995	7110.12397078745	1
2	18996	7110.432562212123	0
2	19007	7111.56479624367	1
2	19008	7111.663966786431	0
2	19020	7112.720484437462	1
2	19021	7113.182876047899	0
2	19030	7114.105973274992	1
2	19031	7114.911578002653	0
2	19055	7122.418953410655	1
2	19056	7122.97776742488	0
2	19135	7171.573128915178	1
2	19136	7172.150931039943	0
2	19220	7225.14214105461	1
2	19221	7225.354376315524	0
2	19290	7261.883691216546	1
2	19291	7262.171509857127	0
2	19310	7270.509529856244	1
2	19311	7270.565798091951	0
2	19317	7271.099963685737	1
2	19318	7271.214019867468	0
2	19385	7295.692525192298	1
2	19386	7296.370603572396	0
2	19405	7298.599306900236	1
2	19408	7299.038002906791	0
2	19415	7300.264310416847	1
2	19416	7300.359012219548	0
2	19485	7344.798443860046	1
2	19486	7344.870413004102	0
2	19655	7441.483611985965	1
2	19656	7442.199075138938	0
2	19667	7442.907094076725	1
2	19668	7443.30364913358	0
2	19677	7443.995315205216	1
2	19678	7444.745901196726	0
2	19685	7445.703291067961	1
2	19687	7446.316962386883	2
2	19688	7446.384112527031	1
2	19691	7447.023069413095	0
2	19715	7456.25029360642	1
2	19716	7456.660769658737	0
2	19725	7457.791317372443	1
2	19726	7458.065459201407	0
2	19735	7459.087381506309	1
2	19736	7459.216719668746	0
2	19740	7459.735682740388	1
2	19741	7459.811456532698	0
2	19755	7463.39783914969	1
2	19756	7463.499575108402	0
2	19765	7464.608812550109	1
2	19767	7464.901012457808	2
2	19768	7465.136130274902	1
2	19771	7465.564671516721	0
2	19777	7465.77553389033	1
2	19778	7466.460453732381	0
2	19785	7467.488890223142	1
2	19786	7468.206192135833	0
2	19795	7468.942783324038	1
2	19796	7469.341400991775	0
2	19840	7482.211469132375	1
2	19841	7482.628398218691	0
2	20250	7654.011146925817	1
2	20251	7654.122974534529	0
2	20295	7692.404442372949	1
2	20296	7692.733907836003	0
2	20305	7693.773132824253	1
2	20307	7694.060609724466	2
2	20308	7694.388331552388	1
2	20311	7694.832345144709	0
2	20315	7694.870879233901	1
2	20316	7695.388274193022	0
2	20335	7698.299546844801	1
2	20336	7698.572618719006	0
2	20407	7731.702413393542	1
2	20408	7731.769249231677	0
2	20412	7732.009656544185	1
2	20413	7732.223755035858	0
2	20635	7832.878067086121	1
2	20636	7832.923623676189	0
2	20642	7833.306562169345	1
2	20643	7833.74683910735	0
2	20650	7834.423629072268	1
2	20651	7834.808667839422	0
2	20655	7834.848847102866	1
2	20656	7835.706130262614	0
2	20660	7836.568441444986	1
2	20661	7836.676571102218	0
2	20670	7837.366192207622	1
2	20671	7837.880920656362	0
2	20695	7842.812549187528	1
2	20696	7843.093540094148	0
2	20765	7890.874835463884	1
2	20766	7890.954735780931	0
2	20775	7892.288366275324	1
2	20776	7892.664549193024	0
2	20805	7898.743581714527	1
2	20806	7899.001413684864	0
2	20890	7930.135499753879	1
2	20893	7930.500689751084	0
2	20902	7931.508457059334	1
2	20903	7931.868003659823	0
2	20910	7932.435106943092	1
2	20913	7932.76189785538	0
2	20945	7942.034414714708	1
2	20946	7942.298621439513	0
2	20990	7952.182604591734	1
2	20991	7952.790369637893	0
2	21000	7954.444507139095	1
2	21001	7954.524555365066	0
2	21015	7959.93538789823	1
2	21016	7960.295844900665	0
2	21025	7961.475190489509	1
2	21026	7961.84817385479	0
2	21035	7962.897416561377	1
2	21036	7963.243994060635	0
2	21045	7964.072945646209	1
2	21046	7964.564578574627	0
2	21055	7965.510871920295	1
2	21056	7965.988021293339	0
2	21065	7966.615940842984	1
2	21066	7967.149659556905	0
2	21280	8071.075697051628	1
2	21281	8071.133383883984	0
2	21315	8078.587593741057	1
2	21316	8078.661487356277	0
2	21320	8079.171458889108	1
2	21321	8079.54439060393	0
2	21325	8079.759645430423	1
2	21327	8079.871435305376	2
2	21330	8080.360521907576	1
2	21333	8080.940124657222	0
2	21342	8082.238993632409	1
2	21345	8082.865876296845	0
2	21349	8083.600074308121	1
2	21350	8083.65078149413	0
2	21357	8084.729173385608	1
2	21358	8085.158292120865	0
2	21367	8085.725263244612	1
2	21368	8086.232833598305	0
2	21375	8086.917227866574	1
2	21378	8087.809673461721	0
2	21384	8087.881282603192	1
2	21385	8088.66118723078	0
2	21389	8089.139921695607	1
2	21390	8089.225045488107	0
2	21394	8089.495266457204	1
2	21396	8089.600368531874	2
2	21397	8090.123024736795	1
2	21400	8090.605630206115	0
2	21404	8090.66820365339	1
2	21405	8091.512206352394	0
2	21409	8091.704912533053	1
2	21410	8091.95368570954	0
2	21532	8140.651942696098	1
2	21533	8141.049968380411	0
2	21544	8141.99481343795	1
2	21545	8142.636797884456	0
2	21552	8143.769976826855	1
2	21553	8143.811190936459	0
2	21605	8161.293739025719	1
2	21606	8161.595795399459	0
2	21620	8195.65200890219	1
2	21621	8196.376963646687	0
2	21625	8196.428243732652	1
2	21628	8196.819877002458	0
2	21636	8197.228997707666	1
2	21637	8197.234755275934	0
2	21641	8197.543241741077	1
2	21642	8197.691650289367	0
2	21820	8289.29511580413	1
2	21821	8289.898187662296	0
2	21825	8289.936214156209	1
2	21826	8290.537010226825	0
2	21835	8291.496321884439	1
2	21836	8291.651232243942	0
2	21840	8291.80937215806	1
2	21841	8292.108323535703	0
2	22020	8353.09802851051	1
2	22021	8353.72654559926	0
2	22025	8353.921635594472	1
2	22026	8354.210434505454	0
2	22045	8357.328269528242	1
2	22046	8357.769813619947	0
2	22065	8361.026609115133	1
2	22066	8361.415218457031	0
2	22135	8399.849860002589	1
2	22136	8399.862222587681	0
2	22155	8404.15055943729	1
2	22160	8404.535143231076	0
2	22190	8410.961869509786	1
2	22191	8411.214339296481	0
2	22200	8412.444127594561	1
2	22201	8412.672855376414	0
2	22230	8421.165466023353	1
2	22233	8421.5251650722	0
2	22252	8424.29695779378	1
2	22253	8424.499031004461	0
2	22257	8424.551841245687	1
2	22258	8425.000000130211	0
2	22265	8426.44637016456	1
2	22266	8426.534621222143	0
2	22295	8436.037110287292	1
2	22296	8436.502821297801	0
2	22300	8436.771532897569	1
2	22303	8437.418710738045	0
2	22307	8437.656531893725	1
2	22308	8438.405459200029	0
2	22340	8445.248293196649	1
2	22341	8445.333188152395	0
2	22370	8457.631187319159	1
2	22371	8458.109209391946	0
2	22445	8491.463882842268	1
2	22446	8491.811996672542	0
2	22455	8492.861051792893	1
2	22456	8493.205212798052	0
2	22460	8493.46186037582	1
2	22461	8493.991349629255	0
2	22465	8494.602786744503	1
2	22466	8494.658159214666	0
2	22575	8540.959209442612	1
2	22576	8541.515743980537	0
2	22585	8542.407234165385	1
2	22586	8543.006036784806	0
2	22592	8543.485143144729	1
2	22593	8543.603593227527	0
2	22597	8543.654790464827	1
2	22598	8544.349684856673	0
2	22605	8545.448250168094	1
2	22606	8546.172833091513	0
2	22620	8554.370739214815	1
2	22621	8554.653680561333	0
2	22630	8555.721074722883	1
2	22631	8555.85585951534	0
2	22677	8568.154009756884	1
2	22678	8568.519542011442	0
2	22690	8569.89965225881	1
2	22692	8570.058213664384	2
2	22693	8570.298244660691	1
2	22698	8571.2131166998	0
2	22795	8648.646415240936	1
2	22796	8648.700520009241	0
2	22800	8649.449527492968	1
2	22801	8649.66898313013	0
2	22830	8663.395528363018	1
2	22831	8663.585011167949	0
2	22914	8675.465220914109	1
2	22915	8675.641498724367	0
2	22970	8689.33965937816	1
2	22971	8689.875191036101	0
2	22980	8690.540947932708	1
2	22981	8690.80906464779	0
2	23005	8701.545842209092	1
2	23006	8702.22576133356	0
2	23110	8754.436964072547	1
2	23111	8754.796844536424	0
2	23145	8785.005497832935	1
2	23146	8785.434645721529	0
2	23160	8791.321292553754	1
2	23161	8792.093677469241	0
2	23225	8826.093229729275	1
2	23227	8826.353641709497	2
2	23228	8826.876599291575	1
2	23233	8827.584115713372	0
2	23237	8827.674865136454	1
2	23238	8828.308563728494	0
2	23244	8828.675705997841	1
2	23245	8828.776809763166	0
2	23280	8842.627944854831	1
2	23281	8842.783259656595	0
2	23290	8844.05065752491	1
2	23291	8844.183619912192	0
2	23305	8846.002191905845	1
2	23306	8846.28100687984	0
2	23315	8847.518232146607	1
2	23316	8848.045484638219	0
2	23375	8902.145517959602	1
2	23376	8902.740897610428	0
2	23425	8911.878124343218	1
2	23426	8912.325919494246	0
2	23445	8915.806910033593	1
2	23446	8916.028202833731	0
2	23455	8917.091822001427	1
2	23456	8917.622008758571	0
2	23460	8918.007215008922	1
2	23463	8918.211382853912	0
2	23495	8938.160576744309	1
2	23496	8938.373123322203	0
2	23517	8947.085475719428	1
2	23518	8947.543722278372	0
2	23525	8948.390176572715	1
2	23526	8948.882139627337	0
2	23580	8959.356303113472	1
2	23581	8960.153384615881	0
2	23585	8960.16568775625	1
2	23586	8960.712171141877	0
2	23595	8963.483879506334	1
2	23596	8963.686189074682	0
2	23625	8973.366192803555	1
2	23627	8973.660033277217	2
2	23628	8973.973151826481	1
2	23631	8974.841695942073	0
2	23645	8976.896068756086	1
2	23646	8977.426248205647	0
2	23660	8991.648910711788	1
2	23661	8991.866249567438	0
2	23667	8992.403152327314	1
2	23668	8992.533121876307	0
2	23740	9026.153502862184	1
2	23741	9026.301189249504	0
2	23785	9042.152480152114	1
2	23786	9042.156290914094	0
2	23790	9042.682982745793	1
2	23791	9042.748584811738	0
2	23850	9066.290497737814	1
2	23851	9067.041701427486	0
2	23860	9068.454493981046	1
2	23861	9068.728646298291	0
2	23890	9079.488486573414	1
2	23892	9079.574353870058	2
2	23893	9079.94039473888	1
2	23896	9080.458729653391	0
2	24070	9198.692587420871	1
2	24071	9198.784449406666	0
2	24075	9199.211402360131	1
2	24076	9199.431648756516	0
2	24085	9200.471874222128	1
2	24088	9200.985142383211	0
2	24095	9201.759617359397	1
2	24096	9202.135997452958	0
2	24105	9208.216320376812	1
2	24106	9209.067490977052	0
2	24135	9227.247616350141	1
2	24136	9227.454754733066	0
2	24145	9228.278962956482	1
2	24146	9229.106227353872	0
2	24195	9247.1916995783	1
2	24196	9247.203422329577	0
2	24355	9330.940181908993	1
2	24356	9331.689847299483	0
2	24365	9332.861675630922	1
2	24366	9333.325873732919	0
2	24435	9356.544954604181	1
2	24436	9357.022881668921	0
2	24460	9370.089340539095	1
2	24461	9370.272542766542	0
2	24570	9429.127113883666	1
2	24571	9429.934262470682	0
2	24600	9446.112366562833	1
2	24601	9446.349034007735	0
2	24650	9473.279788394574	1
2	24651	9473.339344560784	0
2	24655	9473.669374053233	1
2	24656	9474.263767296738	0
2	24672	9476.289350147196	1
2	24673	9476.52386017509	0
2	24677	9476.627893689183	1
2	24678	9477.386819017327	0
2	24682	9477.524703460829	1
2	24683	9477.906639564245	0
2	24687	9477.970775284201	1
2	24688	9478.728692387438	0
2	24692	9478.908455535282	1
2	24693	9479.195397969124	0
2	24700	9479.9441699804	1
2	24701	9480.498937766508	0
2	24710	9481.500314276361	1
2	24711	9481.808940537062	0
2	24720	9482.687225234308	1
2	24721	9483.343493899585	0
2	24735	9485.296422027638	1
2	24736	9485.516135405843	0
2	24755	9488.011841375136	1
2	24756	9488.367122556708	0
2	24765	9489.477449626107	1
2	24766	9490.082635093547	0
2	24840	9518.577160104379	1
2	24841	9519.316766763457	0
2	24900	9564.765640222255	1
2	24901	9564.882488111642	0
2	24905	9565.318516818753	1
2	24906	9565.561986175136	0
2	24940	9579.167057118973	1
2	24941	9580.088271551178	0
2	24960	9583.707731613813	1
2	24961	9584.303079929398	0
2	25140	9691.236956686735	1
2	25143	9691.483829327298	0
2	25147	9692.029576611392	1
2	25148	9692.231862196697	0
2	25157	9693.684125348957	1
2	25158	9694.019445016559	0
2	25165	9694.757602469699	1
2	25166	9695.049179672168	0
2	25235	9735.597808441117	1
2	25236	9736.056719179076	0
2	25250	9738.208911870181	1
2	25251	9738.393530401211	0
2	25360	9807.753197999863	1
2	25361	9808.215173760317	0
2	25400	9843.170795281052	1
2	25401	9843.526352538697	0
2	25415	9844.991908534496	1
2	25417	9845.07617209527	2
2	25418	9845.171557094871	1
2	25425	9846.069731760506	0
2	25432	9846.854215415184	1
2	25433	9847.182716741987	0
2	25472	9871.644650761832	1
2	25473	9871.831056944953	0
2	25485	9873.707158238392	1
2	25486	9873.866701483095	0
2	25510	9879.642257575153	1
2	25511	9880.053304984557	0
2	25560	9895.263136104053	1
2	25561	9895.914076608293	0
2	25565	9896.091566766827	1
2	25566	9896.396634069983	0
2	25570	9896.580250788	1
2	25571	9897.146915268539	0
2	25580	9898.129459599772	1
2	25582	9898.427871563518	2
2	25583	9898.550897643818	1
2	25586	9898.959704091642	0
2	25590	9899.432510371373	1
2	25592	9899.500948715958	2
2	25593	9899.943498061001	1
2	25597	9900.242132398492	2
2	25598	9900.612094878414	1
2	25601	9901.52738401723	0
2	25630	9917.205527863338	1
2	25631	9917.894910547153	0
2	25645	9921.069999902053	1
2	25647	9921.429003584261	2
2	25648	9921.610094575992	1
2	25653	9922.552481257765	0
2	25657	9922.675505519104	1
2	25658	9923.222414557625	0
2	25885	10022.664791342956	1
2	25886	10023.20965833484	0
2	25895	10024.478827327824	1
2	25896	10024.576402852096	0
2	25905	10025.210830687067	1
2	25908	10025.741970964259	0
2	25980	10064.754725514504	1
2	25981	10065.274553320586	0
2	26145	10098.797581136376	1
2	26146	10099.61428901183	0
2	26155	10100.514077161063	1
2	26156	10100.989239310031	0
2	26165	10101.961915476678	1
2	26166	10102.438032571995	0
2	26225	10139.775567691976	1
2	26226	10140.386916602835	0
2	26235	10141.407514816238	1
2	26236	10141.80195720951	0
2	26360	10207.057464361401	1
2	26361	10207.35414948333	0
2	26370	10208.863261707817	1
2	26373	10209.152742656818	0
2	26377	10209.276128115076	1
2	26378	10209.921375416996	0
2	26385	10211.102457705663	1
2	26386	10211.773330519101	0
2	26395	10212.550258764633	1
2	26396	10213.268500938625	0
2	26420	10217.056949039439	1
2	26421	10217.440476071767	0
2	26430	10218.15623650644	1
2	26431	10219.0080904939	0
2	26440	10220.008779885302	1
2	26441	10220.505113573165	0
2	26475	10239.285736979711	1
2	26476	10239.577633019667	0
2	26485	10240.889940667166	1
2	26486	10241.132884105257	0
2	26520	10264.933428078391	1
2	26521	10265.34179169291	0
2	26580	10292.519390377332	1
2	26581	10292.740362450964	0
2	26607	10296.345330686881	1
2	26608	10296.737399237715	0
2	26635	10316.840193046861	1
2	26636	10317.469919804208	0
2	26655	10321.829686894388	1
2	26656	10322.03361040311	0
2	26665	10322.903429788431	1
2	26666	10323.718999923198	0
2	26684	10326.388764918267	1
2	26685	10326.654319241786	0
2	26720	10332.584616406152	1
2	26723	10333.182155950836	0
2	26732	10333.759372045166	1
2	26733	10334.273643369184	0
2	26755	10337.686386859241	1
2	26758	10338.535020074533	0
2	26880	10393.4494899954	1
2	26881	10393.815424895496	0
2	26890	10394.870884449656	1
2	26891	10394.958669420402	0
2	26905	10396.819977808153	1
2	26906	10396.933471127724	0
2	26920	10398.195903924923	1
2	26921	10399.163194181507	0
2	26930	10400.119373420135	1
2	26931	10400.269030765694	0
2	26945	10403.643082852823	1
2	26946	10404.057429250726	0
2	26955	10405.035224349806	1
2	26956	10405.216545011406	0
2	27040	10442.124377193693	1
2	27043	10442.788456266365	0
2	27047	10443.424669801004	1
2	27048	10443.435372516877	0
2	27067	10446.610017306971	1
2	27068	10446.750148174128	0
2	27075	10447.822027332219	1
2	27076	10447.947782249989	0
2	27080	10448.756121364305	1
2	27083	10448.883981519386	0
2	27090	10449.458061658313	1
2	27091	10450.006108536346	0
2	27135	10463.924851420088	1
2	27136	10464.524736084156	0
2	27162	10468.216747056882	1
2	27166	10468.332440501511	2
2	27167	10468.393375733599	1
2	27170	10468.841066131985	0
2	27176	10468.853972821299	1
[...]
6	63811	25474.012199356344	0.90369773411
6	63814	25474.882699448273	3.197531450566
6	63825	25476.96860994234	3.253104968163
6	63905	25518.77577745442	2.199835172705
6	63920	25526.349985743968	1.489606608887
6	63942	25530.621254514814	3.221841361958
6	63977	25549.757766824405	3.729846015122
6	64005	25566.156533899396	3.647601528618
6	64029	25573.149569427758	0.474556786614
6	64047	25575.73892757271	4.759483947083
6	64055	25577.649264403091	4.739189187704
6	64080	25598.612014711693	5.673858690714
6	64117	25619.156759752474	2.66652515052
6	64175	25648.300549577665	0.476317539206
6	64200	25656.77515400664	1.820508621074
6	64207	25666.108117520776	0.504057812784
6	64222	25668.487163408212	0.803339940077
6	64262	25693.87894290068	0.779777125455
6	64265	25694.641360364545	3.009296333745
6	64305	25711.611255440958	3.025459043736
6	64310	25712.502067769561	2.029304603586
6	64335	25729.271646310008	5.327659320782
6	64340	25732.098473003926	0.471647958737
6	64350	25740.85801407974	2.898471317147
6	64385	25752.94980874606	1.638125861121
6	64392	25754.399746111224	0.941377423098
6	64417	25760.276199639496	0.805086093672
6	64429	25761.933191459393	2.960516728786
6	64434	25762.561604170827	1.389772414323
6	64450	25772.1483125423	0.990471275477
6	64517	25805.873908211209	5.254967904704
6	64555	25811.360822013195	6.093932723195
6	64572	25817.48774161915	1.324430498636
6	64599	25821.746750540903	1.102843744156
6	64618	25823.791223399585	1.155991656091
6	64623	25824.699622264888	1.988762697962
6	64636	25826.819665281579	7.90825542342
6	64639	25827.510220455157	5.701615735298
6	64705	25849.14617056384	6.431468265972
6	64731	25852.013561989057	1.093515000374
6	64792	25861.169502431791	3.017373728986
6	64802	25863.898255313276	10.891076990032
6	64805	25864.427379922191	0.758083785461
6	64815	25868.404784280324	1.594370152017
6	64845	25875.608863355192	4.248460059574
6	64875	25897.227637685263	3.832553957123
6	64895	25901.603714878444	2.12249771699
6	64915	25915.785949822346	2.515031966707
6	64925	25922.128580670718	0.632330658147
6	64930	25923.339832082734	0.583587994101
6	64945	25931.879037835599	2.673171090543
6	64957	25933.505617386533	1.139791881694
6	64965	25946.160503920809	0.420243665762
6	64985	25948.919356890768	1.84415201993
6	64995	25958.949743103464	0.732943666028
6	65000	25959.896520365526	0.482346945582
6	65005	25962.170824614927	0.767983751791
6	65015	25964.959126378276	0.798843980534
6	65064	25972.935410835683	3.606840512084
6	65087	25985.782260701419	0.471804701444
6	65104	25987.706134586255	2.209118971282
6	65128	25990.978556395447	1.480693633972
6	65131	25991.646649012048	3.94383539169
6	65136	25992.568833624091	2.780069603863
6	65139	25993.059027684372	5.823300865066
6	65165	25998.682647771069	0.814588367597
6	65179	26008.226616749704	0.906664428184
6	65200	26033.601146482737	1.958858161358
6	65229	26046.372656632255	3.929179737683
6	65250	26050.096263015125	6.081728877873
6	65280	26059.36595781611	3.389952472363
6	65285	26064.737549965411	0.47357868487
6	65292	26085.866400393555	0.484614577424
6	65304	26087.516141855335	1.423999776822
6	65354	26108.199467731514	4.168932184015
6	65362	26109.763490992751	4.96265296433
6	65365	26110.182971428953	4.869446924331
6	65385	26122.553638420354	0.950517427223
6	65430	26157.48611794145	0.886424042052
6	65435	26158.358654669294	0.478030983219
6	65455	26166.684815744694	2.917101447765
6	65465	26169.082711071162	1.550496379054
6	65485	26173.255309860305	2.912234063942
6	65521	26180.940631816876	3.636120240855
6	65524	26181.652118525063	1.085802292602
6	65575	26191.36836517357	1.817795151284
6	65580	26196.364660405332	0.763709852053
6	65587	26199.473609180653	0.960926039377
6	65602	26202.40568354417	3.108119487426
6	65607	26203.371728736753	1.103024273228
6	65639	26218.310533897741	2.322137728903
6	65686	26224.982514077402	5.146141578556
6	65747	26257.72292865718	1.827325080578
6	65772	26261.628774906866	4.002648372466
6	65775	26262.368620084584	1.937691306649
6	65795	26273.014960872896	2.793126351612
6	65815	26283.237999040721	0.466358590592
6	65885	26301.894987547751	1.447445098507
6	65905	26307.932267140612	5.205197473607
6	65930	26317.004655780644	4.130209686242
6	65950	26342.473968684542	0.499249744834
6	65959	26349.167932934353	0.730667679245
6	66004	26355.469524725099	6.329702957551
6	66030	26373.633994689077	0.597299834108
6	66062	26387.153966332985	0.690687322615
6	66090	26405.186421697293	0.578837450454
6	66124	26428.671209430666	1.853424563377
6	66132	26430.343064622413	4.690925092585
6	66174	26436.577360931759	4.746423130118
6	66214	26442.729963899006	8.921347358008
6	66217	26443.522293988404	17.136805909084
6	66227	26445.2835955648	5.227799500333
6	66240	26448.622337163189	3.449738957883
6	66255	26465.491591543783	0.762236972293
6	66280	26485.272990797635	3.481079573549
6	66285	26493.539358473688	0.931864747265
6	66297	26499.873883362199	2.035073208405
6	66345	26522.747926100918	2.583904714869
6	66355	26525.019667219193	1.961660517768
6	66360	26528.031310746799	0.688596999506
6	66365	26529.840744407278	0.967656303057
6	66377	26543.08153299254	0.671006822027
6	66397	26547.244809004208	4.798435136857
6	66415	26550.783516867843	3.728929460182
6	66435	26561.043258755233	1.640577233354
6	66477	26570.591258939315	2.629690837727
6	66565	26607.468016085486	4.296459623463
6	66590	26614.749795960685	3.963073777726
6	66620	26625.768726312352	4.162626711991
6	66635	26640.239247103664	1.78851697255
6	66640	26645.526997116856	0.779350774363
6	66645	26647.578738015838	0.953993409593
6	66670	26668.236329566517	0.963096587817
6	66700	26679.453228912789	0.796650260314
6	66715	26688.661740206872	2.079938733466
6	66732	26699.548735009323	2.227582324622
6	66735	26700.213728378111	2.450362378469
6	66745	26738.395481515701	0.664135996904
6	66767	26743.814885709114	5.283676811298
6	66790	26749.040321999572	2.556804456635
6	66800	26751.603025140359	2.191522949108
6	66807	26753.873524006268	0.970182469813
6	66856	26768.847198609554	2.339528385246
6	66941	26779.992278766689	13.954822214086
6	67004	26790.664634403169	1.988954874174
6	67035	26796.773379341404	6.373545516268
6	67090	26844.751257093782	5.190092333085
6	67119	26850.055582144046	2.439042541878
6	67122	26850.709915943285	3.768969099964
6	67130	26853.738999729823	0.903875116818
6	67135	26859.951581738624	0.800299048051
6	67140	26868.280579902435	0.596492331196
6	67170	26877.921301098292	3.425697143583
6	67175	26905.259264804344	0.818433782132
6	67190	26912.584985435878	2.049438285719
6	67195	26923.664289460187	0.603962406237
6	67210	26931.77865281469	0.981314911693
6	67227	26941.775797927469	1.857819622031
6	67260	26955.398590973531	3.70687623222
6	67275	26968.620676040958	2.501103181535
6	67290	26971.122066894126	2.220352810063
6	67295	26973.072964333644	0.485698584095
6	67315	26980.888175300307	0.802376567293
6	67340	27001.051207638699	0.937122621387
6	67400	27017.663539782651	0.963138609938
6	67405	27022.200023345859	0.726503635244
6	67427	27027.954661583205	2.747198366944
6	67509	27050.009006398011	2.262198165564
6	67540	27057.906379727257	0.673385682562
6	67554	27068.966277000797	0.878403782379
6	67577	27072.54731682476	3.941331806834
6	67625	27084.180241661102	2.079664719308
6	67650	27094.33440649518	0.484146177396
6	67675	27103.051137879303	3.911646820491
6	67690	27124.429990672233	0.54240727243
6	67697	27125.391268058055	2.051063238234
6	67705	27127.08478658643	2.336131917409
6	67710	27130.716414116299	0.502318552369
6	67730	27146.615172813615	3.721692307416
6	67750	27154.921844351986	1.126147672265
6	67792	27174.467983042616	0.770008228254
6	67805	27176.922870103781	1.204907373469
6	67835	27188.193816449547	2.769889469409
6	67895	27209.038917032889	1.744863052918
6	67905	27217.267411453029	0.450763879111
6	67935	27224.823318294671	3.883519935765
6	67947	27237.150165164361	0.927164309379
6	67965	27241.269771280162	0.778111722525
6	68000	27246.964240604683	4.343728510551
6	68005	27247.79742664903	0.45038055568
6	68082	27271.537417235101	2.188869863734
6	68114	27278.429707455596	3.207903506932
6	68124	27279.650266716683	1.550571973608
6	68127	27280.223532432511	4.919165586122
6	68132	27280.989484827693	10.084369767994
6	68142	27282.358314844071	2.010314801689
6	68150	27287.618163979385	0.818177773524
6	68155	27288.943630041356	0.694613971328
6	68189	27295.329452765267	1.101316314178
6	68192	27296.18495368734	4.589665829433
6	68200	27297.671696094326	0.823067167168
6	68227	27313.116389149236	2.727231178569
6	68252	27328.983946698258	2.216060713589
6	68255	27329.711204408208	1.112078199851
6	68300	27345.558350706148	0.408516839379
6	68327	27367.423086474123	0.855800505262
6	68330	27368.088835298395	6.246268470727
6	68357	27372.621821566304	3.535343499684
6	68382	27377.202908184265	7.088981290322
6	68390	27378.339666498992	2.796386956679
6	68430	27398.208113678476	0.889109614026
6	68455	27416.687709072213	2.156721793167
6	68460	27418.984314149002	5.004430516958
6	68515	27441.103213402617	1.345694763963
6	68535	27445.211615336946	0.767824118305
6	68552	27451.303028515885	1.193398223949
6	68570	27454.334116858736	5.639830927844
6	68575	27460.98029499728	0.84536500033
6	68599	27475.088097573062	1.991594005096
6	68607	27476.317647113455	1.598201122122
6	68615	27478.171009880061	4.583160285285
6	68640	27488.315921316232	4.692953537832
6	68645	27490.053310059527	0.43864222751
6	68680	27507.096254778713	2.738213367157
6	68690	27516.120220757413	1.117833767217
6	68700	27518.406211451901	1.479102250505
6	68710	27524.446689217138	0.422559750453
6	68744	27534.353065254041	0.744321792426
6	68762	27537.227834578058	4.328137131873
6	68800	27551.303702080966	3.489598939311
6	68815	27555.13334493641	2.635731373864
6	68864	27576.199655143317	0.748023569013
6	68882	27582.372371897839	0.934818071872
6	68885	27582.859093073841	3.4719237001
6	68897	27585.662906527109	0.913549796579
6	68912	27597.570795420216	0.445977559127
6	68930	27605.904288057439	0.904042574251
6	68994	27643.008633261591	1.290853902161
6	69022	27648.734632492573	0.793069016468
6	69050	27654.32497230178	2.414626226394
6	69060	27657.724496505805	1.68615713179
6	69105	27675.822241166424	2.761062309191
6	69114	27682.416521376951	0.947428425308
6	69130	27694.56296722269	1.335132511926
6	69155	27702.477176836081	3.241161893262
6	69225	27726.866025393914	1.336828787836
6	69307	27754.84784558651	1.821691994544
6	69315	27764.371341503379	0.731345855538
6	69345	27774.959539731158	6.459263355923
6	69355	27786.275636421937	1.19214566835
6	69360	27789.140350897918	0.460992766218
6	69423	27799.066728077165	1.770570496438
6	69443	27802.215549990709	2.688753877033
6	69466	27804.962051075592	10.640077104611
6	69517	27814.246436543503	0.91814852363
6	69520	27814.978896668433	2.318377636698
6	69525	27817.852322387714	0.463079132559
6	69537	27823.469132053487	0.647059196134
6	69545	27824.893998874187	1.442527031532
6	69550	27829.199816663935	0.917862714035
6	69565	27836.989704204793	1.780252944957
6	69645	27860.512185405949	0.70457535293
6	69675	27886.848440731377	0.653818433173
6	69690	27894.30090554989	2.682576623779
6	69700	27904.958829741367	1.279030479515
6	69730	27912.287818700188	4.974442235242
6	69737	27917.806594112398	0.497855872335
6	69750	27921.00332223675	3.226045079712
6	69780	27944.484414577676	0.823850768944
6	69785	27949.764035107292	0.931671202974
6	69800	27961.357118504293	0.951483673602
6	69845	27991.994770107263	0.93268270269
6	69850	27993.889618416568	0.959162027342
6	69865	27999.268079842447	2.915266274527
6	69890	28006.384710196715	3.780115020325
6	69910	28009.94212963527	6.258258603781
6	69981	28029.166584754269	1.287963913253
6	70095	28097.629020119011	0.791261197962
6	70140	28111.659416201758	2.862417343804
6	70190	28128.99833882488	3.947587754443
6	70202	28131.569457172982	0.892696467163
6	70252	28155.149977651019	1.74869664607
6	70267	28163.327360118054	0.921902664518
6	70270	28163.891147134373	0.665026080698
6	70302	28168.121287285352	1.860676000073
6	70317	28170.264609231968	1.299247763123
6	70320	28170.766032177145	0.837816897608
6	70380	28185.322516930971	0.613798675919
6	70410	28204.107519638962	3.034337842752
6	70432	28212.609148339482	0.915939866891
6	70449	28217.584272810962	0.951373302797
6	70452	28218.182897522632	1.087897130687
6	70482	28222.321449163935	3.735343937542
6	70554	28238.286770372042	1.101277423584
6	70567	28242.335125862679	0.859256777866
6	70572	28243.241268493573	1.153795347732
6	70592	28246.818612368041	4.463412313154
6	70664	28262.539583286688	3.64757165255
6	70707	28269.61143584225	2.661463000784
6	70720	28272.20418748986	2.364719111446
6	70735	28278.421035464299	0.727127381833
6	70805	28297.025551764594	1.938070762134
6	70930	28330.831230079917	1.275663761122
6	70950	28343.159587081569	0.877304251725
6	70960	28345.874316585093	1.269715594704
6	70975	28351.242524128048	0.513638684899
6	70980	28355.584230769573	0.432185144722
6	71010	28361.675724170294	4.542757493077
6	71025	28365.076110314922	2.994861989381
6	71065	28381.848129391849	0.74967786232
6	71070	28385.486000848453	0.841106019402
6	71075	28387.456524664987	0.902415901935
6	71125	28396.202482507285	6.402167118886
6	71140	28402.165782615299	3.163026909854
6	71155	28412.564518576516	1.207608196097
6	71182	28421.81469484744	2.727763434989
6	71255	28458.456648306876	3.761950070635
6	71280	28473.017278928328	1.933611094672
6	71305	28488.412233253138	0.714649282955
6	71315	28493.328868099492	1.789046030052
6	71352	28501.912241766518	4.56010393345
6	71360	28504.168152039479	8.2183432714
6	71387	28510.197725563144	1.628899926365
6	71415	28522.195210716691	0.566885729227
6	71440	28535.909046723269	2.011427460593
6	71445	28537.043001522989	0.660424799053
6	71452	28552.52994606284	0.874510454293
6	71485	28565.980550813451	2.045709964256
6	71500	28582.94665426789	0.926342166355
6	71505	28589.795978162678	0.798659693776
6	71549	28605.218393064117	2.315143732256
6	71556	28605.965121869896	4.158647644019
6	71559	28606.793419692912	3.012371227824
6	71562	28607.702399905925	4.991792864846
6	71650	28633.204436995408	0.968250025789
6	71677	28639.449074230218	0.547185317939
6	71685	28642.414948843012	3.455960912466
6	71710	28657.932504298382	2.089048608293
6	71720	28664.685796827102	1.405025446518
6	71760	28687.7547351935	1.828057793179
6	71765	28688.706447540957	0.712845694507
6	71825	28721.257182881771	1.615321928883
6	71840	28724.500536465514	0.690824006218
6	71865	28735.436005336904	0.64166633836
6	71870	28736.96505712446	0.516024279734
6	71914	28752.072861340919	3.943449795702
6	71925	28757.324141053606	0.756431904342
6	71935	28759.500706463102	1.570243910127
6	71955	28773.221103291319	3.743090995808
6	72017	28796.662449087981	4.736510675913
6	72040	28805.934668442296	0.578670063009
6	72070	28841.551285255173	0.411697403528
6	72075	28842.141068545404	0.553012767527
6	72080	28844.053561014009	0.856037999364
6	72090	28850.742546186189	1.954199280254
6	72095	28855.486805368955	0.613822771376
6	72105	28858.770065861246	0.598060688097
6	72110	28866.265052323946	0.608069053479
6	72130	28877.050731389622	0.579953108728
6	72170	28883.926476921501	6.665959642974
6	72190	28892.883440395961	0.856748304749
6	72205	28899.250293578189	2.161844787749
6	72210	28904.221913365677	0.765199732548
6	72255	28924.31209270244	5.72161572754
6	72265	28928.615373960499	1.865427148297
6	72292	28946.731437688513	0.664155787835
6	72315	28952.17378300422	0.600101439474
6	72367	28959.26434401863	5.831106924652
6	72387	28962.700553232366	0.830102657294
6	72425	28967.745445513918	4.596005510411
6	72447	28971.376884296914	12.060637988183
6	72457	28974.391250788236	0.705144892354
6	72475	28993.896449133645	0.684382033627
6	72539	29005.12372365063	5.293768167675
6	72542	29005.756188211915	9.719316610626
6	72575	29017.706687827861	3.042462970106
6	72585	29019.495132774765	4.237605308828
6	72620	29051.980298965323	0.435442296416
6	72625	29052.803569048686	0.526895511337
6	72635	29063.495467908177	0.882864183653
6	72645	29067.29330720747	0.930383428326
6	72672	29104.155011612446	0.785278441338
6	72687	29107.738773647947	1.894334742162
6	72710	29133.185912447606	0.930848782789
6	72739	29137.90689690921	3.106046309553
6	72742	29138.781192174344	4.8661230925
6	72795	29157.522670449202	2.974938472398
6	72812	29159.602456274328	2.876728614102
6	72815	29160.321347835313	4.894329609094
6	72919	29175.713088550583	4.349565855158
6	72937	29182.096308657471	0.988243699353
6	72967	29193.738757506692	2.43078094861
6	72992	29200.787399313917	1.107075264365
6	73000	29206.407097874656	0.625079260115
6	73010	29211.484711600141	1.439951444483
6	73022	29217.296194432309	0.982765298687
6	73035	29223.0487938978	0.537172747916
6	73050	29227.240808771658	0.642166562937
6	73075	29240.524035866218	0.99562757127
6	73087	29251.481672183766	0.684786497196
6	73097	29252.814847334083	1.697393899809
6	73102	29253.765775861386	1.349009878028
6	73110	29255.535258724948	0.723635246838
6	73185	29275.46276688877	1.042222086669
6	73217	29289.322536097243	5.942814053448
6	73222	29290.31957154857	1.371234787095
6	73225	29290.942666722238	1.123168599702
6	73305	29330.907012037024	0.966347236698
6	73370	29359.158188351043	0.900447309855
6	73397	29364.933044824279	3.26951871097
6	73407	29367.404762052497	0.65787211
6	73410	29368.357758273495	3.53559937394
6	73417	29371.78327082556	0.821792930551
6	73425	29373.479727983403	0.929551658796
6	73447	29378.956332465496	0.861610910081
6	73509	29398.638509244419	1.421838155596
6	73522	29400.172747975954	7.598677296262
6	73581	29412.320513256489	0.669397859505
6	73592	29414.588696647238	3.858793396489
6	73605	29417.571082119288	2.349990145548
6	73630	29431.520941153481	2.084261157498
6	73642	29435.382018994373	2.484332233833
6	73680	29465.149882594195	0.849714014353
6	73710	29481.04079368904	1.904540410652
6	73746	29503.068516602765	0.916290118964
6	73777	29513.011214815515	1.203326292179
6	73785	29514.77558192261	4.86968597838
6	73860	29541.340883192542	3.134616602043
6	73902	29564.572336042587	2.359443184827
6	73940	29584.187148826361	0.909291833732
6	73952	29586.962788465342	1.287576337319
6	73955	29587.602567173124	2.323303107452
6	73990	29595.265837960952	1.999259739323
6	74010	29599.405107604658	3.395779302986
6	74024	29605.014411057884	1.779605876782
6	74044	29607.895728430131	1.328414718985
6	74091	29614.408151235923	9.710675561206
6	74096	29614.991674660871	5.858426083787
6	74115	29617.59419746844	2.77770683125
6	74150	29624.88441445821	15.138074478456
6	74182	29644.969551204673	0.895822770381
6	74237	29669.53494310463	2.567627503902
6	74245	29671.307022741086	3.046214019062
6	74267	29692.473404207125	2.738896093799
6	74270	29692.88112766179	0.520803734305
6	74335	29727.668505316933	0.994716561353
6	74375	29766.710958720382	0.817848033085
6	74385	29771.356935733843	2.312912783007
6	74409	29774.467455976601	0.880605568713
6	74435	29791.475906349164	4.724542586109
6	74445	29794.829609987551	1.712237189765
6	74464	29807.111517499638	2.232763538695
6	74482	29810.785647214408	2.954971251586
6	74492	29812.418561932509	1.052014513702
6	74520	29842.303200087504	0.817449908052
6	74525	29843.586535130893	0.885075956536
6	74547	29853.488872310452	1.062902955574
6	74557	29854.966064993272	1.265945626584
6	74575	29862.266905370441	0.609323599609
6	74599	29866.933144617929	4.018930161782
6	74602	29867.859800655545	2.699233086986
6	74674	29879.003831175709	3.377037698177
6	74730	29903.796333835815	1.570250375764
6	74749	29918.85713528008	0.762552632671
6	74817	29938.357045122838	3.841011300357
6	74827	29944.564914057817	0.943231337611
6	74839	29946.287313096649	2.521582568543
6	74855	29949.074686496795	2.874332228361
6	74860	29963.192418011131	0.491515136091
6	74882	29967.197752487441	3.374433549206
6	74885	29967.628698452157	2.044965670317
6	74895	29970.543698180639	1.585563965788
6	74900	29973.854314488628	0.553442289215
6	74910	29976.338354077905	1.863582647905
6	74922	29982.505121208399	1.209161550868
6	74925	29983.063408098088	2.388910848694
6	74930	29986.482989571763	0.574983873824
6	74940	29998.81728344844	0.505687300861

