version 2
run First_exit_2-1-20191023-00:19:37-5083
attr configname First_exit_2
attr datetime 20191023-00:19:37
attr experiment First_exit_2
attr inifile omnetpp.ini
attr iterationvars ""
attr iterationvarsf ""
attr measurement ""
attr network ResponseTimeNetwork
attr processid 5083
attr repetition 1
attr replication #1
attr resultdir results
attr runnumber 1
attr seedset 1
param **.Source.interArrivalTime exponential(4s)
param **.jobPriority bernoulli(0.4)
param **.PS.serviceTimeU1 "uniform(0.4s, 1.0s)"
param **.PS.serviceTimeU2 "uniform(1s, 1.2s)"
param **.SS1.serviceTime exponential(0.4s)
param **.SS2.serviceTime exponential(0.8s)
param **.PS.exitProbability bernoulli(0.2)

vector 0 ResponseTimeNetwork.SS1 queueLength:vector ETV
attr interpolationmode sample-hold
attr title "queue length, vector"
vector 1 ResponseTimeNetwork.SS2 queueLength:vector ETV
attr interpolationmode sample-hold
attr title "queue length, vector"
vector 2 ResponseTimeNetwork.QueueU1 queueLength:vector ETV
attr interpolationmode sample-hold
attr title "queue length, vector"
vector 3 ResponseTimeNetwork.QueueU2 queueLength:vector ETV
attr interpolationmode sample-hold
attr title "queue length, vector"
vector 4 ResponseTimeNetwork.sink lifeTimeU2:vector ETV
attr interpolationmode none
attr title "lifetime of arrived jobs U2, vector"
attr unit s
vector 5 ResponseTimeNetwork.sink lifeTime:vector ETV
attr interpolationmode none
attr title "lifetime of arrived jobs, vector"
attr unit s
vector 6 ResponseTimeNetwork.sink lifeTimeU1:vector ETV
attr interpolationmode none
attr title "lifetime of arrived jobs U1, vector"
attr unit s
0	0	0	0
0	8870	5764.501230510451	1
0	8871	5764.691888608172	0
0	10185	6536.73775022855	1
0	10186	6536.830451059901	0
0	13307	8586.871082030666	1
0	13309	8586.883942232734	0
0	14165	9155.0125213522	1
0	14166	9155.792925422299	0
0	27665	17703.560179605641	1
0	27666	17703.601886672454	0
1	0	0	0
1	3365	2164.927178423236	1
1	3366	2165.592274257975	0
1	6415	4203.016223096887	1
1	6416	4204.163854444351	0
1	7695	4922.691184920632	1
1	7696	4922.813205264124	0
1	7765	4968.072568877754	1
1	7766	4968.874456781894	0
1	9205	5943.228248685283	1
1	9211	5944.176024181027	0
1	9214	5944.180235329324	1
1	9216	5944.839214512225	0
1	10375	6648.21927433003	1
1	10381	6649.174179406208	0
1	10410	6664.724325523336	1
1	10411	6665.420967782552	0
1	13035	8405.67137452082	1
1	13049	8408.095848755758	0
1	14132	9148.52979475899	1
1	14136	9149.405228819099	0
1	14970	9675.972216763119	1
1	14971	9675.981429369313	0
1	15545	10014.55059096241	1
1	15546	10014.829378356545	0
1	19317	12321.937251590038	1
1	19319	12321.98386249369	0
1	22615	14407.858738892192	1
1	22616	14410.396179660768	0
1	24114	15298.767106987052	1
1	24116	15298.935043436228	0
1	24535	15562.179908281168	1
1	24536	15562.291785293542	0
1	26090	16618.07743760905	1
1	26091	16618.247096310454	0
1	27002	17228.753898871747	1
1	27004	17229.313490500806	0
1	28139	18025.105572457865	1
1	28144	18026.526489661788	0
1	28147	18026.564616270942	1
1	28149	18026.614783247349	0
1	36840	23539.643834699947	1
1	36841	23540.345455254265	0
1	38490	24633.394540096996	1
1	38491	24634.244840747096	0
1	41905	26838.879997802199	1
1	41906	26839.507452650744	0
1	41910	26840.162369856148	1
1	41911	26840.245400400815	0
1	41945	26859.499650100081	1
1	41949	26859.89061725536	0
1	42592	27222.666195206377	1
1	42596	27222.897906436049	0
1	46065	29374.125068924323	1
1	46066	29374.323158845918	0
1	46070	29374.980329373859	1
1	46071	29375.904090754654	0
1	46075	29376.524014396094	1
1	46076	29377.465676207893	0
2	0	0	0
2	35	32.218684945495	1
2	36	32.230657781328	0
2	70	52.70221527599	1
2	71	52.77013003216	0
2	125	84.663288516725	1
2	126	85.466273158912	0
2	140	87.101515671691	1
2	141	87.771359853209	0
2	235	160.638740804434	1
2	236	161.290654991213	0
2	325	200.344858628471	1
2	326	200.655600049339	0
2	360	219.088126304083	1
2	361	219.765873205268	0
2	365	220.456735665255	1
2	366	220.650136320039	0
2	397	232.000166149181	1
2	399	232.050708046912	2
2	401	232.349491384457	3
2	402	232.417111500798	2
2	405	232.981898592718	1
2	408	233.426279991472	0
2	462	274.880364076149	1
2	463	274.954187609705	0
2	475	278.650318489493	1
2	476	278.941377329582	0
2	485	280.90012976028	1
2	486	280.996318282742	0
2	490	281.175543352665	1
2	491	281.453502969719	0
2	540	321.990769391669	1
2	541	322.914440201063	0
2	720	425.194797460926	1
2	721	425.820032947551	0
2	740	432.113936045869	1
2	741	432.605655582895	0
2	770	453.387099665181	1
2	771	453.872255509929	0
2	790	466.293501428634	1
2	793	466.95129066211	0
2	802	468.099761458448	1
2	803	468.617964299758	0
2	807	468.929721199848	1
2	808	469.298092313007	0
2	850	497.658249594094	1
2	851	497.735406993759	0
2	875	505.082201015103	1
2	876	505.308628035037	0
2	887	506.396682003732	1
2	888	506.842683912328	0
2	985	605.822141641406	1
2	986	605.970228143626	0
2	1025	656.007374619442	1
2	1026	656.478027692572	0
2	1065	672.475852806207	1
2	1066	672.530870782888	0
2	1116	713.209461378917	1
2	1117	713.446980117945	0
2	1150	727.381635066686	1
2	1153	728.094898641563	0
2	1210	767.966910497961	1
2	1211	768.345610563248	0
2	1255	830.601053170338	1
2	1256	831.203618179158	0
2	1325	878.348674935534	1
2	1326	879.07677993529	0
2	1330	879.078667553904	1
2	1333	879.897905853963	0
2	1350	889.308444002382	1
2	1351	889.78105056894	0
2	1405	916.818257437251	1
2	1406	916.866917582332	0
2	1435	927.450932554607	1
2	1436	928.06521014027	0
2	1465	933.701646251503	1
2	1466	933.932990541829	0
2	1495	953.076220237236	1
2	1497	953.097234694697	2
2	1498	953.350910743958	1
2	1501	954.089529402115	0
2	1530	967.028459948187	1
2	1531	967.372624822989	0
2	1585	995.954867105159	1
2	1586	996.158059093612	0
2	1620	1009.466503765834	1
2	1621	1009.778952554681	0
2	1660	1048.833697947779	1
2	1661	1049.265904119549	0
2	1680	1067.982794563057	1
2	1681	1068.159120857353	0
2	1810	1158.304739239062	1
2	1811	1158.872330408176	0
2	1845	1174.850555640588	1
2	1846	1175.365410080355	0
2	1880	1199.207462211719	1
2	1881	1199.741347218191	0
2	1885	1199.772983727883	1
2	1886	1200.220075564997	0
2	2000	1302.366693331762	1
2	2001	1302.416435064543	0
2	2010	1303.608110333503	1
2	2011	1303.654404621738	0
2	2015	1303.879078734762	1
2	2016	1304.597312086242	0
2	2070	1334.423514461167	1
2	2071	1335.167643675059	0
2	2085	1337.587980553015	1
2	2086	1338.135238600019	0
2	2160	1387.964537353328	1
2	2161	1388.034815198862	0
2	2165	1388.202071864098	1
2	2166	1388.528901315135	0
2	2270	1463.426009935026	1
2	2271	1463.42648936746	0
2	2282	1464.438561315374	1
2	2283	1465.169993744216	0
2	2290	1465.883021703452	1
2	2291	1466.16956360767	0
2	2325	1495.663597885853	1
2	2326	1496.050121397721	0
2	2330	1496.70492937425	1
2	2331	1497.033383624172	0
2	2380	1523.75207846181	1
2	2383	1524.36842050192	0
2	2435	1544.922317758159	1
2	2436	1545.154854270375	0
2	2457	1557.087651978143	1
2	2458	1557.346973549471	0
2	2474	1559.066902085557	1
2	2475	1559.075688958948	0
2	2525	1594.762838411769	1
2	2526	1595.155525012382	0
2	2565	1617.652484406723	1
2	2567	1618.07409721278	2
2	2568	1618.179292799083	1
2	2571	1618.922218056738	0
2	2575	1619.097414380018	1
2	2577	1619.220670155851	2
2	2581	1619.413690581982	3
2	2582	1619.793104400456	2
2	2585	1620.62752348936	1
2	2588	1621.237361110997	0
2	2615	1647.88223935298	1
2	2616	1648.43848636856	0
2	2705	1700.674347084446	1
2	2706	1701.152466474674	0
2	2915	1881.030233056114	1
2	2918	1881.957199874206	0
2	2934	1883.821150659083	1
2	2937	1884.478346273362	0
2	3200	2073.916092650079	1
2	3202	2074.082889619468	2
2	3203	2074.340136675197	1
2	3206	2075.082900790205	0
2	3290	2121.636631073276	1
2	3291	2122.308073293417	0
2	3430	2213.472018961333	1
2	3431	2213.796721888634	0
2	3475	2248.650341481171	1
2	3476	2249.340330453473	0
2	3555	2295.97541326211	1
2	3558	2296.689818864386	0
2	3600	2356.009841179614	1
2	3601	2356.161306369022	0
2	3650	2368.27599524384	1
2	3651	2368.825079574372	0
2	3660	2370.458382614358	1
2	3661	2370.515672228786	0
2	3725	2415.497118321337	1
2	3726	2415.77727641785	0
2	3735	2417.113280102143	1
2	3736	2417.460358850991	0
2	3745	2418.562989239338	1
2	3746	2419.182994926356	0
2	3815	2453.965589361764	1
2	3816	2454.420965712964	0
2	3852	2488.963635269412	1
2	3853	2489.136978046092	0
2	3857	2489.255496027107	1
2	3858	2489.703974923965	0
2	3955	2550.163592973195	1
2	3956	2550.373156126998	0
2	4015	2592.834358812988	1
2	4018	2593.647145068899	0
2	4040	2599.161736280571	1
2	4043	2599.715529753541	0
2	4050	2600.764683025469	1
2	4051	2600.99799647908	0
2	4100	2635.907443572017	1
2	4101	2636.423485332182	0
2	4215	2697.377022167069	1
2	4216	2697.478631198713	0
2	4270	2731.328958616664	1
2	4271	2731.596692677015	0
2	4385	2818.979000212882	1
2	4386	2819.557388163407	0
2	4390	2820.077248472672	1
2	4391	2820.188474141623	0
2	4410	2840.556348381097	1
2	4411	2840.948489806313	0
2	4420	2842.505118119109	1
2	4421	2842.629710518406	0
2	4430	2843.823400186381	1
2	4431	2844.376034727344	0
2	4445	2854.048134853818	1
2	4446	2854.341801347178	0
2	4535	2948.516901094458	1
2	4536	2948.614901090568	0
2	4615	3025.495519842333	1
2	4616	3025.783160419041	0
2	4620	3025.801676418316	1
2	4621	3026.75639441039	0
2	4625	3027.173536401366	1
2	4626	3027.4659326636	0
2	4695	3069.982626712327	1
2	4696	3070.356151699138	0
2	4810	3167.848665476143	1
2	4811	3168.135807511616	0
2	4850	3186.837592134469	1
2	4851	3187.460840494938	0
2	4920	3217.245824277349	1
2	4921	3217.384197626317	0
2	5235	3461.669908551668	1
2	5236	3461.948054679072	0
2	5242	3462.609851809317	1
2	5243	3462.618708682348	0
2	5295	3515.826164228287	1
2	5296	3516.075909438578	0
2	5315	3536.076317400181	1
2	5316	3536.336235429737	0
2	5410	3581.559458830386	1
2	5411	3581.831670893578	0
2	5420	3585.575970650832	1
2	5421	3586.248561740016	0
2	5715	3782.56685526233	1
2	5716	3783.183594600922	0
2	5760	3809.896979835295	1
2	5761	3810.084128566317	0
2	5895	3872.326779886573	1
2	5896	3872.948011403683	0
2	5905	3874.392501553874	1
2	5908	3874.670608320333	0
2	5930	3882.275563964132	1
2	5931	3882.712129925	0
2	6165	4069.385489538973	1
2	6166	4070.197459315737	0
2	6255	4125.927129465193	1
2	6256	4126.143266199001	0
2	6355	4186.234005314194	1
2	6356	4186.697279877515	0
2	6370	4188.810840779428	1
2	6371	4189.293086386117	0
2	6392	4199.261065376716	1
2	6393	4199.32114610201	0
2	6405	4200.737829612952	1
2	6408	4201.61202160855	0
2	6470	4232.742210620607	1
2	6471	4232.99434768504	0
2	6485	4236.028102996436	1
2	6486	4236.652052999759	0
2	6525	4253.49038215745	1
2	6526	4253.490805254346	0
2	6655	4349.398711393469	1
2	6656	4349.919696546408	0
2	6715	4392.791524894437	1
2	6716	4392.97091641226	0
2	6720	4393.168923328275	1
2	6723	4393.949357342023	0
2	6765	4406.775252713777	1
2	6766	4406.842508512826	0
2	6770	4407.762600343738	1
2	6771	4407.812984211927	0
2	6975	4534.713804573893	1
2	6976	4534.776857082488	0
2	7010	4555.945719100345	1
2	7011	4556.043701704024	0
2	7030	4566.523101674186	1
2	7031	4566.88789322131	0
2	7040	4568.045396530058	1
2	7041	4568.432738718546	0
2	7045	4569.337158430075	1
2	7046	4569.358056906487	0
2	7070	4576.806850837237	1
2	7071	4577.144804167652	0
2	7165	4629.553495422281	1
2	7168	4630.203042845064	0
2	7245	4716.689399510322	1
2	7246	4717.329308448255	0
2	7380	4776.666583476143	1
2	7381	4777.553898280574	0
2	7385	4777.672968770526	1
2	7386	4778.498365445429	0
2	7440	4803.310093692959	1
2	7441	4803.725263566666	0
2	7545	4865.090354453514	1
2	7546	4865.828621209784	0
2	7622	4892.075347695935	1
2	7623	4892.113380313556	0
2	7627	4892.49026148354	1
2	7628	4893.00751124414	0
2	7720	4939.759407480637	1
2	7721	4940.164668699118	0
2	7860	5011.3873951552	1
2	7861	5011.958096911602	0
2	8010	5165.65216873881	1
2	8011	5166.16109218674	0
2	8030	5182.371962254073	1
2	8031	5182.613420321859	0
2	8135	5253.008499811325	1
2	8136	5253.175229978245	0
2	8167	5266.723841021247	1
2	8168	5267.224905998998	0
2	8190	5274.533193033811	1
2	8191	5274.89010060813	0
2	8220	5291.923248524397	1
2	8221	5292.809889115472	0
2	8227	5293.518711217713	1
2	8228	5293.784177465583	0
2	8270	5319.20479591808	1
2	8271	5319.220509927548	0
2	8280	5321.383585385806	1
2	8281	5321.818905923937	0
2	8355	5368.74804722602	1
2	8356	5369.265683137787	0
2	8365	5370.30682769939	1
2	8367	5370.536445721374	2
2	8368	5370.686146764044	1
2	8371	5371.401603480201	0
2	8377	5371.821863630463	1
2	8378	5372.020046535698	0
2	8395	5377.055220387806	1
2	8396	5377.336960869114	0
2	8527	5481.676203802408	1
2	8528	5481.846939173488	0
2	8705	5581.805668657509	1
2	8706	5582.285399080156	0
2	8720	5590.08407669015	1
2	8721	5590.579404014852	0
2	8725	5590.910848170228	1
2	8728	5591.366934047863	0
2	8755	5612.127832547065	1
2	8756	5612.914961245362	0
2	8860	5762.978539308713	1
2	8861	5763.540370355812	0
2	8865	5763.667243851455	1
2	8866	5764.042107101563	0
2	8875	5764.750175103385	1
2	8876	5765.466594587633	0
2	8910	5778.786847041054	1
2	8911	5779.002443409968	0
2	8975	5808.259048935164	1
2	8976	5808.267743458696	0
2	9000	5838.239880292722	1
2	9001	5838.436967436685	0
2	9065	5875.139387007903	1
2	9068	5875.697742010562	0
2	9090	5881.310608100181	1
2	9091	5881.389301624048	0
2	9145	5912.62132501174	1
2	9146	5912.628072919729	0
2	9210	5943.834012483488	1
2	9213	5944.180235329324	0
2	9222	5944.944319096199	1
2	9223	5945.628567544005	0
2	9295	5999.682069942694	1
2	9296	6000.328644993915	0
2	9315	6010.648119863242	1
2	9316	6010.702001705511	0
2	9320	6010.809795963751	1
2	9321	6011.19532880874	0
2	9365	6034.213434642022	1
2	9366	6034.654943607513	0
2	9407	6048.655724516982	1
2	9408	6048.787479084442	0
2	9412	6049.020034859527	1
2	9414	6049.656045928407	2
2	9416	6049.675237580048	3
2	9417	6049.696549885991	2
2	9421	6050.094125148568	3
2	9422	6050.524194954886	2
2	9425	6051.019984063498	1
2	9428	6051.917129453077	0
2	9485	6084.473123168502	1
2	9486	6084.878475479397	0
2	9645	6215.664627403726	1
2	9646	6215.77071675399	0
2	9680	6234.729984050364	1
2	9681	6235.136828971267	0
2	9705	6251.786286906051	1
2	9706	6252.20917360637	0
2	9710	6252.333810485999	1
2	9711	6252.694671113218	0
2	9735	6263.519042612655	1
2	9736	6264.102804945408	0
2	9755	6277.751632729028	1
2	9756	6277.86537088037	0
2	9765	6279.696151493113	1
2	9766	6279.800984808984	0
2	9825	6303.903083615523	1
2	9826	6304.421420291004	0
2	9835	6305.548600009551	1
2	9836	6305.62455149473	0
2	9940	6355.513773778951	1
2	9941	6355.706661787679	0
2	9955	6371.038207240598	1
2	9956	6371.311723038276	0
2	9965	6373.713493667291	1
2	9966	6373.912851422457	0
2	10150	6523.57103806756	1
2	10151	6523.766640765982	0
2	10160	6525.048934116267	1
2	10161	6525.306597774762	0
2	10180	6536.163674770751	1
2	10181	6536.284259209512	0
2	10190	6537.092191791248	1
2	10191	6537.759446778801	0
2	10230	6549.626420935251	1
2	10231	6549.949649515003	0
2	10310	6605.39785689663	1
2	10311	6605.758164861145	0
2	10440	6689.569160082715	1
2	10441	6690.407324679453	0
2	10445	6690.88233256191	1
2	10446	6690.908464085801	0
2	10517	6730.786736843424	1
2	10518	6731.526749566534	0
2	10625	6791.660860128489	1
2	10626	6792.30827023766	0
2	10635	6793.335233588926	1
2	10636	6793.740286679286	0
2	10645	6797.302087338342	1
2	10648	6797.637087557174	0
2	10685	6814.967054824672	1
2	10686	6815.129263260046	0
2	10730	6852.75036634443	1
2	10731	6852.91521026708	0
2	10860	6957.16096870003	1
2	10861	6957.449833175965	0
2	11095	7087.367360924172	1
2	11096	7087.662940964707	0
2	11132	7126.368693244011	1
2	11134	7126.630143429232	2
2	11135	7127.199260039098	1
2	11138	7128.082170474372	0
2	11180	7167.361918975164	1
2	11182	7167.552184616247	2
2	11183	7167.977163383008	1
2	11186	7168.757264909211	0
2	11260	7216.459286850403	1
2	11261	7216.781755455476	0
2	11365	7277.632304106448	1
2	11366	7277.703759634758	0
2	11375	7285.073465122507	1
2	11376	7285.358152931298	0
2	11417	7292.891762222661	1
2	11418	7293.044272031578	0
2	11475	7320.905403552258	1
2	11478	7321.28564479337	0
2	11495	7331.507799998393	1
2	11496	7331.907792470707	0
2	11507	7332.53676834899	1
2	11510	7333.179696556423	0
2	11517	7333.748919642243	1
2	11518	7334.217736076852	0
2	11647	7444.0659425554	1
2	11648	7444.65099132428	0
2	11655	7445.765878272654	1
2	11656	7445.924244735754	0
2	11670	7451.184814966918	1
2	11671	7451.88253228996	0
2	11675	7452.340369174672	1
2	11676	7452.58052193868	0
2	11755	7499.799768135123	1
2	11756	7499.895299404528	0
2	11805	7528.729978845547	1
2	11806	7529.511367201361	0
2	11840	7557.613013717962	1
2	11841	7558.082392743602	0
2	11915	7594.03575005765	1
2	11916	7594.321187471653	0
2	11990	7669.116077357692	1
2	11991	7669.654898304142	0
2	12100	7731.977980337511	1
2	12101	7732.039852256549	0
2	12300	7918.245392037738	1
2	12301	7918.455592212469	0
2	12395	8004.098160170194	1
2	12396	8004.403050712995	0
2	12460	8038.235024677082	1
2	12461	8038.354431722643	0
2	12550	8095.784848686496	1
2	12551	8096.484921923271	0
2	12555	8096.909695747661	1
2	12556	8097.397536311988	0
2	12635	8153.343234023575	1
2	12636	8153.717777492964	0
2	12785	8238.265853275806	1
2	12786	8238.406228980436	0
2	12810	8248.766079128707	1
2	12811	8249.452779025816	0
2	12815	8250.145957118593	1
2	12816	8250.292339815664	0
2	13310	8586.883942232734	1
2	13312	8587.07677113953	2
2	13313	8587.853839339652	1
2	13316	8588.447812887012	0
2	13355	8618.476354110583	1
2	13356	8619.138574082777	0
2	13425	8691.053994226001	1
2	13426	8691.395743762827	0
2	13434	8691.909808896944	1
2	13435	8692.057879255232	0
2	13560	8755.253876735798	1
2	13561	8755.504219184667	0
2	13995	9062.721633306603	1
2	13996	9062.984724351869	0
2	14000	9063.482728212366	1
2	14001	9063.932161069115	0
2	14005	9063.956038629582	1
2	14006	9064.618358958944	0
2	14115	9145.892345213286	1
2	14116	9146.083846777644	0
2	14130	9147.880238117089	1
2	14131	9148.52979475899	0
2	14155	9153.184706047593	1
2	14156	9153.815481028846	0
2	14160	9154.4270444668	1
2	14161	9154.544577983022	0
2	14170	9156.044274970628	1
2	14171	9156.636023463295	0
2	14187	9163.948025620229	1
2	14188	9164.223081631081	0
2	14195	9164.812988276399	1
2	14196	9165.593697284635	0
2	14370	9254.253115813856	1
2	14371	9254.394931190678	0
2	14425	9283.621100499628	1
2	14426	9284.246969051599	0
2	14455	9304.1015066139	1
2	14456	9304.118580202779	0
2	14480	9321.934676341263	1
2	14481	9322.472655441527	0
2	14565	9393.943993774499	1
2	14566	9394.025657024267	0
2	14612	9428.855045863056	1
2	14613	9429.146896809588	0
2	14635	9452.232160397186	1
2	14636	9452.633169144262	0
2	14645	9454.013292048329	1
2	14648	9454.332834225946	0
2	14735	9505.739859212566	1
2	14736	9506.010036537692	0
2	14905	9623.079937351925	1
2	14906	9623.540277945011	0
2	15020	9709.342172547878	1
2	15021	9709.788853683175	0
2	15025	9709.810705734218	1
2	15026	9710.285814673213	0
2	15130	9782.769891459979	1
2	15131	9782.884155827941	0
2	15170	9792.831370179712	1
2	15171	9792.894711140355	0
2	15235	9826.494558707671	1
2	15236	9826.91257066725	0
2	15245	9828.802097972032	1
2	15246	9829.021471338601	0
2	15250	9829.173511732764	1
2	15251	9829.93103126597	0
2	15320	9884.026342866112	1
2	15321	9884.081776565145	0
2	15350	9896.352970447018	1
2	15351	9896.90809027234	0
2	15375	9911.067142616922	1
2	15376	9911.529271808743	0
2	15385	9913.672820699074	1
2	15386	9913.858152698933	0
2	15430	9948.791620780531	1
2	15431	9949.108481057666	0
2	15495	9996.229495757302	1
2	15498	9996.570724926246	0
2	15565	10018.318051861365	1
2	15566	10018.595093325072	0
2	15595	10033.580137788246	1
2	15596	10033.931912241521	0
2	15685	10097.403004636319	1
2	15686	10097.519761528524	0
2	15690	10098.00854934675	1
2	15691	10098.197793231981	0
2	15695	10098.61704577939	1
2	15696	10098.664320339618	0
2	15710	10111.278144244308	1
2	15711	10111.522682956224	0
2	15815	10202.592887414563	1
2	15816	10203.010226843703	0
2	15885	10251.220829110681	1
2	15886	10251.532087094881	0
2	15930	10293.871790377444	1
2	15931	10294.450046921879	0
2	15940	10295.121325567023	1
2	15941	10295.478954167696	0
2	16095	10403.756217129801	1
2	16096	10403.826924527714	0
2	16130	10436.127684074972	1
2	16131	10436.224170523817	0
2	16545	10684.128642657003	1
2	16548	10684.853206918499	0
2	16617	10735.032753816828	1
2	16618	10735.181484971648	0
2	16695	10801.772093502656	1
2	16696	10802.254483254549	0
2	16710	10803.945139657396	1
2	16711	10804.23270034786	0
2	16725	10806.235839041249	1
2	16726	10806.68573467185	0
2	16785	10827.94353295548	1
2	16786	10828.549181627692	0
2	16790	10828.997741444932	1
2	16791	10829.035167978448	0
2	16795	10829.176917292558	1
2	16796	10829.867079983815	0
2	16887	10876.766193496416	1
2	16888	10877.016829637181	0
2	16895	10877.876774626389	1
2	16896	10878.456428895587	0
2	16927	10897.192360976748	1
2	16928	10897.297214186734	0
2	16990	10921.919822363602	1
2	16991	10922.461248629096	0
2	17055	10964.330308839262	1
2	17056	10964.538113280634	0
2	17077	10966.681009914835	1
2	17078	10967.117392142189	0
2	17090	10968.664210984822	1
2	17091	10969.072885349418	0
2	17220	11048.133103289958	1
2	17221	11048.884202790372	0
2	17255	11072.888564873913	1
2	17256	11073.239229998169	0
2	17310	11106.474290163808	1
2	17311	11106.542455159292	0
2	17315	11106.694415981976	1
2	17316	11106.996700321349	0
2	17340	11119.125767371765	1
2	17341	11119.217001134379	0
2	17345	11120.034824657571	1
2	17346	11120.101379894408	0
2	17435	11195.239521727267	1
2	17436	11195.763590587725	0
2	17442	11196.39211781199	1
2	17443	11196.395113393993	0
2	17465	11201.576426349457	1
2	17466	11202.020611454996	0
2	17532	11234.407373504083	1
2	17533	11234.526537584989	0
2	17560	11253.541128324432	1
2	17561	11254.065487660992	0
2	17730	11344.512880655769	1
2	17731	11344.755744428263	0
2	17735	11344.93634590159	1
2	17736	11345.677501833002	0
2	17985	11511.76374800933	1
2	17986	11512.315035572862	0
2	18102	11554.33850872234	1
2	18103	11555.039994600017	0
2	18110	11555.958433634929	1
2	18111	11556.612671489941	0
2	18170	11596.112409479859	1
2	18171	11596.547022920148	0
2	18270	11677.460379272363	1
2	18271	11677.784147497192	0
2	18295	11699.58876835122	1
2	18296	11700.456933342092	0
2	18300	11700.581968893407	1
2	18301	11700.975516024543	0
2	18377	11747.07431695383	1
2	18378	11747.43300189269	0
2	18415	11767.854429701242	1
2	18416	11768.121993073875	0
2	18449	11777.256400400325	1
2	18450	11777.444367250236	0
2	18460	11779.049952062601	1
2	18464	11779.303685501554	2
2	18466	11779.453565250472	3
2	18467	11779.911086481013	2
2	18470	11780.414008550108	1
2	18473	11781.194791569882	0
2	18525	11795.685090489473	1
2	18526	11796.030502549006	0
2	18780	11983.371760759146	1
2	18781	11983.778572783951	0
2	18810	11996.842454499244	1
2	18813	11997.198551415738	0
2	18845	12003.175241136454	1
2	18846	12003.811110185223	0
2	18850	12003.907123810674	1
2	18851	12004.62218346614	0
2	18885	12020.23994946184	1
2	18886	12021.108159889598	0
2	18895	12022.385575429172	1
2	18896	12023.07621701959	0
2	18930	12056.654836444133	1
2	18931	12057.55300016824	0
2	18955	12073.947672065456	1
2	18956	12074.140081870967	0
2	19005	12111.019733201781	1
2	19006	12111.286034361792	0
2	19080	12176.26309501378	1
2	19081	12176.700268664888	0
2	19105	12203.577169501942	1
2	19106	12203.735621181771	0
2	19110	12204.174354019975	1
2	19111	12204.617914592463	0
2	19115	12204.713011682841	1
2	19116	12205.069927998341	0
2	19145	12219.649081073543	1
2	19146	12220.508019601766	0
2	19155	12222.654059428078	1
2	19156	12223.215737603027	0
2	19165	12224.253917319181	1
2	19166	12224.80519687904	0
2	19205	12271.534439302664	1
2	19206	12272.019401573771	0
2	19360	12337.748241401479	1
2	19361	12337.850565464362	0
2	19595	12549.809727965023	1
2	19596	12549.899449818112	0
2	19760	12659.43848794728	1
2	19761	12659.479581640041	0
2	19820	12690.729739170082	1
2	19822	12691.175136251631	2
2	19823	12691.610244043485	1
2	19827	12691.698015450551	2
2	19828	12692.397569361922	1
2	19831	12692.887527634936	0
2	19875	12740.004956137834	1
2	19876	12740.318788641295	0
2	19945	12782.583922590826	1
2	19946	12782.755841712193	0
2	20172	12898.030663892981	1
2	20173	12898.134411663946	0
2	20195	12915.080627779108	1
2	20196	12915.635029508024	0
2	20205	12917.016571341502	1
2	20206	12917.62982797305	0
2	20225	12924.107310660949	1
2	20226	12924.748938434636	0
2	20265	12957.936971260482	1
2	20266	12958.225044913153	0
2	20270	12958.560938421587	1
2	20271	12958.69395627047	0
2	20285	12961.768425308195	1
2	20286	12962.12624348253	0
2	20290	12962.244082378703	1
2	20291	12962.59527625367	0
2	20330	12978.013303553789	1
2	20331	12978.200152638873	0
2	20365	13014.101475211452	1
2	20366	13014.826037138756	0
2	20375	13015.867975622836	1
2	20376	13016.304262275512	0
2	20610	13189.533680898502	1
2	20611	13190.278728958717	0
2	20655	13216.66204775341	1
2	20656	13217.255955926863	0
2	20665	13218.018706410163	1
2	20666	13218.234637747866	0
2	20720	13236.556300483563	1
2	20721	13237.457758575379	0
2	20760	13266.516248538327	1
2	20761	13267.248112401463	0
2	20865	13329.203769883223	1
2	20866	13329.473735632039	0
2	20950	13405.205232876942	1
2	20951	13405.232422121988	0
2	21105	13511.758417253205	1
2	21106	13511.854841326625	0
2	21180	13539.86842231726	1
2	21181	13540.373139436168	0
2	21215	13555.770040576091	1
2	21216	13556.220200476261	0
2	21220	13556.509340601158	1
2	21221	13557.132634419646	0
2	21230	13557.854767792199	1
2	21231	13558.319131530613	0
2	21275	13587.215714873468	1
2	21276	13587.356360678656	0
2	21280	13588.027633082035	1
2	21282	13588.223024875067	2
2	21283	13588.27644810388	1
2	21288	13588.780990319561	0
2	21292	13588.892186134425	1
2	21293	13589.429564935762	0
2	21297	13589.794892397718	1
2	21298	13590.104348214764	0
2	21315	13593.858083686571	1
2	21316	13593.865958798049	0
2	21320	13593.891056574828	1
2	21321	13594.475589608518	0
2	21395	13664.864949124929	1
2	21396	13665.660403857217	0
2	21400	13666.506135408862	1
2	21401	13666.567565412796	0
2	21455	13683.741436327077	1
2	21456	13684.196100724325	0
2	21500	13719.050520092373	1
2	21501	13719.236173332558	0
2	21515	13728.701710088155	1
2	21517	13728.860987492771	2
2	21518	13728.992183878224	1
2	21522	13729.408621899828	2
2	21523	13729.901467508169	1
2	21526	13730.474416565055	0
2	21575	13771.450438582427	1
2	21577	13771.500062662452	2
2	21578	13771.87542850718	1
2	21583	13772.611427145294	0
2	21605	13777.796587754506	1
2	21608	13778.050674936105	0
2	21615	13778.924135623926	1
2	21616	13779.080053677945	0
2	21750	13927.770258135282	1
2	21751	13928.277292580571	0
2	21775	13948.466767188583	1
2	21778	13949.155131446441	0
2	21820	13994.457837092622	1
2	21821	13994.91941160467	0
2	21920	14059.632745700741	1
2	21921	14059.745104052031	0
2	21987	14099.441636273825	1
2	21988	14100.204978505064	0
2	21999	14101.593244546184	1
2	22000	14101.919709185239	0
2	22009	14103.072122547671	1
2	22010	14103.633908587282	0
2	22019	14104.207912583294	1
2	22020	14104.559670149635	0
2	22060	14133.33505777243	1
2	22061	14133.818639396424	0
2	22085	14140.977004440607	1
2	22086	14141.507240899318	0
2	22110	14158.041040083904	1
2	22111	14158.688176739232	0
2	22140	14170.964181156802	1
2	22143	14171.876206454785	0
2	22210	14213.821803942562	1
2	22211	14214.42307142089	0
2	22247	14230.185746332435	1
2	22248	14230.753206461683	0
2	22255	14231.484053211355	1
2	22257	14231.628173226674	2
2	22260	14232.276112459661	1
2	22263	14233.111265082858	0
2	22267	14233.134840066961	1
2	22268	14233.660995963277	0
2	22275	14234.740188288412	1
2	22276	14235.311258893009	0
2	22330	14272.031092650853	1
2	22331	14272.553274402006	0
2	22445	14335.509035171637	1
2	22446	14335.57993233411	0
2	22455	14336.325393575982	1
2	22456	14336.663527310093	0
2	22575	14396.927280183833	1
2	22576	14397.659305785708	0
2	22742	14484.666396813723	1
2	22743	14485.491485863277	0
2	22750	14486.200335216674	1
2	22752	14486.357561703675	2
2	22753	14486.415531913662	1
2	22756	14486.854748076066	0
2	22830	14536.610150667244	1
2	22831	14537.089249323399	0
2	22935	14591.682563040547	1
2	22936	14592.410042974913	0
2	22945	14594.203608207301	1
2	22946	14595.050202290722	0
2	23000	14646.885711444598	1
2	23001	14647.128948126166	0
2	23005	14647.482113539322	1
2	23006	14647.753379959558	0
2	23010	14647.86696787682	1
2	23011	14648.506433556686	0
2	23025	14651.003111532884	1
2	23026	14651.427761767169	0
2	23087	14697.425151778488	1
2	23088	14697.617052995195	0
2	23260	14789.496563914975	1
2	23261	14790.124479571349	0
2	23267	14790.302689233086	1
2	23268	14790.696344480329	0
2	23285	14802.278817577021	1
2	23286	14802.281478450922	0
2	23290	14802.898319775848	1
2	23291	14803.164674136191	0
2	23395	14868.127597398239	1
2	23396	14868.768400834862	0
2	23420	14883.465669734071	1
2	23423	14884.252504914766	0
2	23450	14905.890211916504	1
2	23453	14906.116543348199	0
2	23464	14907.172055175573	1
2	23465	14907.768320748694	0
2	23472	14909.216289137044	1
2	23473	14909.562090559881	0
2	23565	14983.677173229577	1
2	23566	14983.74215532039	0
2	23600	15020.717356286052	1
2	23601	15021.2677727083	0
2	23605	15021.442260535955	1
2	23606	15021.854160462997	0
2	23625	15030.167354333066	1
2	23628	15030.934053657588	0
2	23660	15044.722107988706	1
2	23661	15045.167123405534	0
2	23810	15136.57597600329	1
2	23812	15137.029167176989	2
2	23813	15137.328972453863	1
2	23816	15137.764829903987	0
2	23860	15172.365401604622	1
2	23861	15173.126314861206	0
2	23920	15204.07714195274	1
2	23921	15204.603113905841	0
2	23965	15231.444657128508	1
2	23966	15231.45639836861	0
2	24005	15264.02838379026	1
2	24006	15264.252513924227	0
2	24025	15271.677044762209	1
2	24026	15272.175073046234	0
2	24050	15281.187968195159	1
2	24051	15281.802370782555	0
2	24097	15295.932867843086	1
2	24098	15296.212247839365	0
2	24165	15322.649585063476	1
2	24166	15323.158893076525	0
2	24200	15358.220717375635	1
2	24201	15359.071910527055	0
2	24260	15392.459536778376	1
2	24261	15392.808278712208	0
2	24355	15448.464838046337	1
2	24356	15448.692484593286	0
2	24375	15459.836028702281	1
2	24376	15460.414458060325	0
2	24485	15519.032026810408	1
2	24486	15519.180544912202	0
2	24555	15573.700782669279	1
2	24556	15573.949564799436	0
2	24582	15582.547632788601	1
2	24584	15583.320472124469	2
2	24585	15583.406487352594	1
2	24588	15584.339925280686	0
2	24630	15596.6090295333	1
2	24631	15597.333417463822	0
2	24690	15637.476615546419	1
2	24691	15637.652092400195	0
2	24737	15676.477733881545	1
2	24738	15676.696625497141	0
2	24745	15677.675175538273	1
2	24746	15677.997858954635	0
2	24770	15686.597274790092	1
2	24771	15687.031400348836	0
2	24880	15766.128135962696	1
2	24881	15766.255049105106	0
2	24977	15846.323937722073	1
2	24978	15846.446309653367	0
2	24985	15846.942530361337	1
2	24986	15847.51476838619	0
2	25100	15936.742251133332	1
2	25101	15937.145450302012	0
2	25105	15937.206490149311	1
2	25106	15938.075051197115	0
2	25185	15980.236164987081	1
2	25186	15980.51912359638	0
2	25285	16051.83390163684	1
2	25286	16052.49105491337	0
2	25319	16083.788608087898	1
2	25320	16083.831235814132	0
2	25324	16083.911618130994	1
2	25325	16084.55460681756	0
2	25545	16260.946744827696	1
2	25546	16261.696612662521	0
2	25745	16362.731549308599	1
2	25746	16363.30190801921	0
2	25755	16367.495140271116	1
2	25756	16367.803206113239	0
2	25890	16483.157981097874	1
2	25891	16483.825574774105	0
2	25900	16485.231228615391	1
2	25901	16485.475332683077	0
2	25955	16517.561255030305	1
2	25956	16518.258287771598	0
2	25970	16522.667726200756	1
2	25971	16522.846250870945	0
2	26050	16598.143383463011	1
2	26051	16598.174871448869	0
2	26115	16636.274706959561	1
2	26116	16636.723433038503	0
2	26210	16694.184607237834	1
2	26211	16694.83152931817	0
2	26335	16804.024357111562	1
2	26336	16804.051337485476	0
2	26395	16831.124853381992	1
2	26396	16831.24743899754	0
2	26525	16951.268232873085	1
2	26526	16951.480978919216	0
2	26795	17123.684946670454	1
2	26796	17124.452585174312	0
2	26850	17144.893747790036	1
2	26851	17145.721050362344	0
2	26860	17146.621002184581	1
2	26861	17146.959308573627	0
2	26870	17147.786411700948	1
2	26871	17148.361973054218	0
2	26950	17204.758213329781	1
2	26951	17205.152484283738	0
2	27107	17316.592888543032	1
2	27108	17316.970461230249	0
2	27115	17317.688501198951	1
2	27116	17318.509421852081	0
2	27145	17343.703907914557	1
2	27146	17343.858730561683	0
2	27150	17344.296705003827	1
2	27151	17344.805629776256	0
2	27155	17345.300348262105	1
2	27156	17345.540655840631	0
2	27215	17392.465602721458	1
2	27216	17392.478274090221	0
2	27345	17466.649894860445	1
2	27346	17467.370000038239	0
2	27380	17487.569434489179	1
2	27381	17487.805872620554	0
2	27515	17593.504664087098	1
2	27516	17593.579225881128	0
2	27565	17638.466960654416	1
2	27566	17638.730010890398	0
2	27570	17639.267266788335	1
2	27571	17639.450710326057	0
2	27575	17639.70685296994	1
2	27576	17640.426454497358	0
2	27670	17703.869311296285	1
2	27671	17704.494657506535	0
2	27820	17818.00779775987	1
2	27821	17818.161685668362	0
2	27855	17826.730688906582	1
2	27856	17827.199076375948	0
2	27975	17909.756939190995	1
2	27976	17909.845090092858	0
2	28035	17957.999668179173	1
2	28036	17958.229695070959	0
2	28162	18028.039966212093	1
2	28163	18028.090030438706	0
2	28167	18028.154340906436	1
2	28170	18028.951223281279	0
2	28202	18035.562044781995	1
2	28205	18036.38037963106	0
2	28255	18069.000281497148	1
2	28256	18069.02895130674	0
2	28275	18079.777891942782	1
2	28276	18080.18882073625	0
2	28290	18085.864169540477	1
2	28291	18086.401750412683	0
2	28320	18107.480585763249	1
2	28321	18107.516989501785	0
2	28325	18107.853278874611	1
2	28326	18108.351008012132	0
2	28330	18108.373084846574	1
2	28331	18109.053196698739	0
2	28447	18183.024492006692	1
2	28448	18183.244616717942	0
2	28490	18199.038568584183	1
2	28491	18199.400825998695	0
2	28585	18253.308906222223	1
2	28586	18253.637737484798	0
2	28605	18262.759436442429	1
2	28606	18262.846606497704	0
2	28645	18278.932768387463	1
2	28646	18279.539830930918	0
2	28685	18311.973801286709	1
2	28686	18312.197878318571	0
2	28775	18376.178066218909	1
2	28776	18376.845312778274	0
2	28805	18384.465063722562	1
2	28806	18384.695202025244	0
2	28977	18525.010383602114	1
2	28978	18525.128805058582	0
2	28982	18525.596245938568	1
2	28983	18525.956324243585	0
2	28987	18526.011361879091	1
2	28988	18526.878357008512	0
2	28992	18527.287503402277	1
2	28995	18527.766471509023	0
2	29075	18562.21771007263	1
2	29076	18562.562439220388	0
2	29140	18583.511762136127	1
2	29141	18584.313540549743	0
2	29250	18629.072801413741	1
2	29251	18629.680917147099	0
2	29335	18676.915752658097	1
2	29336	18677.415071921088	0
2	29370	18700.874386660808	1
2	29371	18701.748992199262	0
2	29410	18723.63619804208	1
2	29411	18723.861675899193	0
2	29420	18729.182392585022	1
2	29421	18729.511916983507	0
2	29445	18744.816526538781	1
2	29448	18745.243460867344	0
2	29525	18800.838937771773	1
2	29526	18801.072757565043	0
2	29555	18815.320027138891	1
2	29556	18815.909492080054	0
2	29565	18818.331813760733	1
2	29566	18818.652017732336	0
2	29655	18877.837901939378	1
2	29656	18878.167917934005	0
2	29680	18892.485526186307	1
2	29681	18892.666038458452	0
2	29690	18893.562420422576	1
2	29691	18894.122488055598	0
2	29760	18961.235944513346	1
2	29761	18961.514258069851	0
2	29817	19011.583078655781	1
2	29819	19011.676227595867	2
2	29820	19011.839595907926	1
2	29823	19012.555147197656	0
2	29930	19078.784646303761	1
2	29931	19079.106026899958	0
2	29940	19080.364663210163	1
2	29941	19081.011507928375	0
2	29985	19108.288010096668	1
2	29986	19108.544671540952	0
2	30130	19196.201020310145	1
2	30131	19196.372036271581	0
2	30135	19196.546475801055	1
2	30136	19196.957445983488	0
2	30142	19197.337074657028	1
2	30143	19197.414919630431	0
2	30155	19206.604763425985	1
2	30156	19207.031162871433	0
2	30190	19220.908098116949	1
2	30191	19221.286087869746	0
2	30200	19223.253714316241	1
2	30201	19223.856869451149	0
2	30260	19266.161144818196	1
2	30261	19266.357610904585	0
2	30290	19280.301867985835	1
2	30292	19280.426132971093	2
2	30293	19280.89911514955	1
2	30296	19281.396384708317	0
2	30300	19281.54424623071	1
2	30301	19282.06668032111	0
2	30350	19304.035355859566	1
2	30351	19304.21290693514	0
2	30445	19375.185690065874	1
2	30446	19376.012033860697	0
2	30475	19397.725377192768	1
2	30476	19397.784485519635	0
2	30615	19481.125485439004	1
2	30616	19481.872193878812	0
2	30720	19561.529594138222	1
2	30721	19561.76118370848	0
2	30740	19571.827769206414	1
2	30741	19571.977351982459	0
2	30785	19599.435158846862	1
2	30786	19600.107490983174	0
2	30800	19607.529322720877	1
2	30801	19608.404804139101	0
2	30805	19609.129389723219	1
2	30806	19609.228509151499	0
2	30860	19658.797969383303	1
2	30861	19659.03517627395	0
2	30965	19714.708044929686	1
2	30966	19715.055424054604	0
2	31100	19847.678404939962	1
2	31101	19848.113735054633	0
2	31275	19954.872194755087	1
2	31276	19955.033221869208	0
2	31285	19971.669851230862	1
2	31286	19972.187900171008	0
2	31295	19992.499027265073	1
2	31296	19992.626544771072	0
2	31302	19993.223131514434	1
2	31303	19993.315957093386	0
2	31665	20303.607422046303	1
2	31666	20304.359734918586	0
2	31810	20395.673050103915	1
2	31811	20395.765651419638	0
2	31822	20396.904548394405	1
2	31824	20397.153612359529	2
2	31825	20397.178811914819	1
2	31828	20397.678442314426	0
2	31875	20427.119056407528	1
2	31876	20427.225169552936	0
2	32099	20548.508529485134	1
2	32102	20548.861252800432	0
2	32109	20549.706027675348	1
2	32110	20550.133603285775	0
2	32135	20568.332582443668	1
2	32136	20568.349325529572	0
2	32155	20573.64539302362	1
2	32156	20574.411766529421	0
2	32160	20574.743167011885	1
2	32161	20575.192848905234	0
2	32330	20675.322996110144	1
2	32331	20676.27821812448	0
2	32510	20760.162370058327	1
2	32511	20760.596230888834	0
2	32545	20787.48660701575	1
2	32546	20787.596965779662	0
2	32620	20843.865730771531	1
2	32621	20844.416194966511	0
2	32650	20862.345062719964	1
2	32651	20862.799692885966	0
2	32655	20862.813397077233	1
2	32656	20863.650091423948	0
2	32660	20863.857814564884	1
2	32662	20863.931243534058	2
2	32663	20864.488264035822	1
2	32666	20865.066890011837	0
2	32775	20930.099272272039	1
2	32776	20930.782898960001	0
2	32785	20931.92776071672	1
2	32788	20932.324605224418	0
2	32797	20933.311507304409	1
2	32798	20933.986389929565	0
2	32805	20935.099805010148	1
2	32808	20935.823109119289	0
2	32815	20936.808169699117	1
2	32816	20937.447210537778	0
2	32825	20939.130681985945	1
2	32826	20939.384624411611	0
2	32935	21053.710806583231	1
2	32936	21054.195762550976	0
2	32955	21066.269396569188	1
2	32956	21066.346368989408	0
2	32980	21076.661573362906	1
2	32981	21076.875099040147	0
2	33125	21163.379183483051	1
2	33126	21163.705795111013	0
2	33135	21167.069049087737	1
2	33136	21167.305897430364	0
2	33220	21231.665648275487	1
2	33221	21232.146529968184	0
2	33355	21348.451593117864	1
2	33356	21348.599184901898	0
2	33415	21376.17887931221	1
2	33416	21376.339062298398	0
2	33425	21376.854030167905	1
2	33427	21376.93269191403	2
2	33428	21377.412543496659	1
2	33431	21378.267968420016	0
2	33435	21378.406475744789	1
2	33436	21379.227901948041	0
2	33440	21379.524125945577	1
2	33442	21379.735478634396	2
2	33443	21379.788378349676	1
2	33447	21380.633132156354	2
2	33448	21380.64772945273	1
2	33452	21380.79622455935	2
2	33453	21381.123342052086	1
2	33456	21381.709587980372	0
2	33470	21385.161774564748	1
2	33471	21385.575831598192	0
2	33500	21401.930996389284	1
2	33501	21402.147871780432	0
2	33560	21453.336025497879	1
2	33561	21453.499481315602	0
2	33590	21472.268955022633	1
2	33591	21472.795496144072	0
2	33695	21532.577558195373	1
2	33696	21532.942720141774	0
2	33700	21533.227069951456	1
2	33701	21533.929938944476	0
2	33780	21600.243537604339	1
2	33783	21600.91574251048	0
2	33790	21601.693677297188	1
2	33791	21602.204257216553	0
2	33855	21668.653776040632	1
2	33856	21668.803863240635	0
2	33985	21727.825202752149	1
2	33986	21728.11725384417	0
2	34005	21737.256275692612	1
2	34006	21737.69217416748	0
2	34090	21795.014225968278	1
2	34091	21795.228245044061	0
2	34100	21797.131277856472	1
2	34101	21797.504822752983	0
2	34120	21810.599788721226	1
2	34121	21810.682110654092	0
2	34155	21822.315898133511	1
2	34156	21822.769410597184	0
2	34260	21916.453729796809	1
2	34261	21916.828051767571	0
2	34290	21933.154451862204	1
2	34291	21933.659911591107	0
2	34315	21961.415652505161	1
2	34316	21961.528062423864	0
2	34440	22063.181991851309	1
2	34441	22063.414937333637	0
2	34562	22133.166312242447	1
2	34563	22133.449848164712	0
2	34590	22150.373012376352	1
2	34591	22150.908271176804	0
2	34620	22175.140352109679	1
2	34621	22175.343424634215	0
2	34690	22218.751298712477	1
2	34692	22219.205780572512	2
2	34693	22219.217910937746	1
2	34698	22220.021808312801	0
2	34720	22223.428175481155	1
2	34721	22224.37129261229	0
2	34785	22256.344642469977	1
2	34786	22256.446712971771	0
2	34800	22258.492370169449	1
2	34801	22258.855198347879	0
2	34815	22275.578363565328	1
2	34816	22276.008207805872	0
2	34917	22355.312725660194	1
2	34918	22355.584067928472	0
2	34927	22356.030853231936	1
2	34928	22356.838013421053	0
2	34955	22384.237939644678	1
2	34956	22384.709885273747	0
2	34965	22385.608366950825	1
2	34966	22386.065330388602	0
2	35025	22410.904257810107	1
2	35026	22411.387999033812	0
2	35050	22429.863825816331	1
2	35051	22430.208481893131	0
2	35120	22491.973200226546	1
2	35121	22492.191778027142	0
2	35125	22492.639223135813	1
2	35126	22492.812117271141	0
2	35337	22632.914786374333	1
2	35340	22633.353586842361	0
2	35355	22635.685797674476	1
2	35356	22635.973080649422	0
2	35362	22636.287652820813	1
2	35363	22636.571565659353	0
2	35370	22637.683446866799	1
2	35371	22638.04216344064	0
2	35380	22639.142234820421	1
2	35381	22639.871842542012	0
2	35385	22640.076964232631	1
2	35386	22640.515112581664	0
2	35390	22640.625072364818	1
2	35391	22641.072475509719	0
2	35440	22664.010829766227	1
2	35441	22664.341677790023	0
2	35565	22760.464983784591	1
2	35566	22760.5725016856	0
2	35605	22769.438880805327	1
2	35606	22769.681559158485	0
2	35675	22825.468924360726	1
2	35676	22825.618806721525	0
2	35700	22837.818213604591	1
2	35701	22837.85600873893	0
2	35762	22877.672113056795	1
2	35763	22877.819314845437	0
2	35767	22878.617013631112	1
2	35768	22878.665556659475	0
2	35800	22890.229411589359	1
2	35802	22890.326884403812	2
2	35803	22890.781808162884	1
2	35808	22891.579930069841	0
2	35812	22892.395417067564	1
2	35813	22892.529204556237	0
2	35820	22893.586965036908	1
2	35822	22893.795114500305	2
2	35823	22893.846190886137	1
2	35826	22894.644497136989	0
2	35855	22907.087916142155	1
2	35856	22907.595836885182	0
2	36080	23059.862065154567	1
2	36081	23059.962910441238	0
2	36200	23127.88070406376	1
2	36201	23128.402834396955	0
2	36215	23130.087328715451	1
2	36216	23130.091960055106	0
2	36295	23180.819067302307	1
2	36296	23180.868042191106	0
2	36370	23237.353598521565	1
2	36371	23237.945800086076	0
2	36400	23245.575843481314	1
2	36401	23245.610181748915	0
2	36510	23328.73746224212	1
2	36511	23329.113172625545	0
2	36605	23387.337087774081	1
2	36607	23387.407980177966	2
2	36610	23387.5840503583	1
2	36613	23388.483954853871	0
2	36617	23388.897693342833	1
2	36618	23388.937163659538	0
2	36685	23433.842006322499	1
2	36686	23434.310780598363	0
2	36700	23436.863836284528	1
2	36701	23437.507655991785	0
2	36705	23437.559950603205	1
2	36708	23438.245592629568	0
2	36720	23446.123152349616	1
2	36721	23446.170372894783	0
2	36847	23540.900699062258	1
2	36848	23540.981777943834	0
2	36854	23541.516231123515	1
2	36855	23541.63394640775	0
2	36925	23631.995374926826	1
2	36926	23632.042988419649	0
2	36940	23658.433143017848	1
2	36941	23658.492430342989	0
2	36960	23663.475898103776	1
2	36961	23663.777393701177	0
2	37185	23844.672429114706	1
2	37186	23844.721482481455	0
2	37305	23900.989702512011	1
2	37306	23901.025989249634	0
2	37455	23999.464254401569	1
2	37456	23999.559981355469	0
2	37470	24008.133439920999	1
2	37471	24008.413637630788	0
2	37500	24018.947116056803	1
2	37501	24019.482737554595	0
2	37520	24025.47982269513	1
2	37521	24025.783945020385	0
2	37525	24025.934145834203	1
2	37526	24026.669611391894	0
2	37532	24026.911330438959	1
2	37533	24027.407096383258	0
2	37605	24057.022748256672	1
2	37606	24057.135504829794	0
2	37610	24057.546130086824	1
2	37613	24058.012365420259	0
2	37617	24058.767344396421	1
2	37618	24058.912629238519	0
2	37622	24059.374580681628	1
2	37623	24059.417442166203	0
2	37802	24197.2889453794	1
2	37803	24197.760159529188	0
2	37880	24225.595160686842	1
2	37881	24226.218540045741	0
2	37940	24269.957071847695	1
2	37941	24269.979931232161	0
2	37965	24275.460375166122	1
2	37966	24275.51059734742	0
2	38090	24399.759661400621	1
2	38093	24400.14625370873	0
2	38140	24436.195365773792	1
2	38141	24436.670435637345	0
2	38147	24437.596666201529	1
2	38148	24437.633329073123	0
2	38155	24438.59231459102	1
2	38156	24439.09158710052	0
2	38227	24495.333270288805	1
2	38228	24495.423519933801	0
2	38235	24495.885629742263	1
2	38238	24496.751864929935	0
2	38355	24553.403227148692	1
2	38356	24553.746171189624	0
2	38390	24574.307531014601	1
2	38391	24574.738728133506	0
2	38435	24606.748515347633	1
2	38436	24607.291528109147	0
2	38455	24614.424582159152	1
2	38456	24615.090191834288	0
2	38510	24639.145192569078	1
2	38511	24639.358280447069	0
2	38710	24779.006612362768	1
2	38711	24779.076581773034	0
2	38720	24794.570342272378	1
2	38721	24795.286856035165	0
2	38757	24810.657866694487	1
2	38758	24810.819974833297	0
2	38765	24811.660734026188	1
2	38766	24812.01674965428	0
2	38885	24913.711982490445	1
2	38886	24914.055150091026	0
2	38970	24960.11734891005	1
2	38971	24960.702517209274	0
2	39005	24990.274801970728	1
2	39006	24990.747612829674	0
2	39050	25028.384036942137	1
2	39051	25028.737521429944	0
2	39060	25029.732866468744	1
2	39061	25029.870621590155	0
2	39075	25031.852310658627	1
2	39078	25032.487668481609	0
2	39187	25091.367046461638	1
2	39188	25091.944911023944	0
2	39195	25092.477307647393	1
2	39196	25093.293567668523	0
2	39222	25108.009522280588	1
2	39223	25108.0449232123	0
2	39365	25198.08374629673	1
2	39366	25198.186461835095	0
2	39545	25341.774916745404	1
2	39546	25341.799264287917	0
2	39575	25364.153921244221	1
2	39576	25364.748422525423	0
2	39760	25546.9350472053	1
2	39761	25547.440988139164	0
2	39975	25737.703651952878	1
2	39978	25738.334982729665	0
2	40050	25767.47910712021	1
2	40051	25768.37419019908	0
2	40057	25768.903548647356	1
2	40058	25769.047547466572	0
2	40065	25770.310299133101	1
2	40066	25770.864807779466	0
2	40085	25782.268699958172	1
2	40086	25782.571760851489	0
2	40182	25831.646804146325	1
2	40183	25832.014543466944	0
2	40200	25839.32344891498	1
2	40201	25839.327039001557	0
2	40210	25840.119648990731	1
2	40211	25840.360677575391	0
2	40225	25848.722991658234	1
2	40227	25848.945298405247	2
2	40228	25849.197503365108	1
2	40231	25850.057941721843	0
2	40245	25855.322749310957	1
2	40246	25855.763272773083	0
2	40270	25880.031033491548	1
2	40272	25880.108769190833	2
2	40275	25880.437327712954	1
2	40278	25881.137668997369	0
2	40295	25884.071712627355	1
2	40296	25884.377467461808	0
2	40355	25936.653870758109	1
2	40356	25937.121318543289	0
2	40370	25939.560233766262	1
2	40371	25940.387515069788	0
2	40425	25977.647473054635	1
2	40426	25978.327716737165	0
2	40435	25983.885911826826	1
2	40436	25984.715681282245	0
2	40575	26058.459040391968	1
2	40576	26058.585170596787	0
2	40585	26059.486720592411	1
2	40586	26059.69112542979	0
2	40600	26067.988749086797	1
2	40601	26068.267246155459	0
2	40705	26125.513082757484	1
2	40706	26126.045494477974	0
2	40787	26164.521740402032	1
2	40788	26164.700642124805	0
2	40825	26184.973641097822	1
2	40826	26185.707512498923	0
2	40830	26185.729161779356	1
2	40831	26186.377628359149	0
2	40892	26228.730287788881	1
2	40893	26228.73456329447	0
2	40995	26304.126379184972	1
2	40996	26304.882200979576	0
2	41005	26306.474819707087	1
2	41006	26307.26453533571	0
2	41012	26307.711773875996	1
2	41013	26307.893487625036	0
2	41050	26317.941403453449	1
2	41053	26318.352983119055	0
2	41110	26363.544049688568	1
2	41111	26364.329957701417	0
2	41145	26406.896391175254	1
2	41146	26407.233200529588	0
2	41235	26485.336800172973	1
2	41236	26485.683632190676	0
2	41315	26521.509201690559	1
2	41316	26522.07614934698	0
2	41350	26532.718789084959	1
2	41351	26533.598834934504	0
2	41360	26534.26234604464	1
2	41363	26534.845035630138	0
2	41385	26544.807156536929	1
2	41387	26544.833598423037	2
2	41388	26545.1870121885	1
2	41391	26545.594282242833	0
2	41415	26557.735593897833	1
2	41416	26558.108173319813	0
2	41550	26672.630162310668	1
2	41551	26673.174149316692	0
2	41620	26699.334292852053	1
2	41621	26699.841944112521	0
2	41645	26708.572332815981	1
2	41646	26709.0569505455	0
2	41680	26747.92791189266	1
2	41681	26747.961614731922	0
2	41725	26763.324123231852	1
2	41726	26763.87561481323	0
2	41745	26769.305556840499	1
2	41746	26769.835225497207	0
2	41750	26770.078645094992	1
2	41751	26770.251585241754	0
2	41855	26811.86627545298	1
2	41856	26812.255069762274	0
2	41890	26836.383774029126	1
2	41891	26836.92275923382	0
2	41954	26860.322050001728	1
2	41955	26860.404470613908	0
2	42055	26922.493583370875	1
2	42056	26922.665016445685	0
2	42075	26927.263824579792	1
2	42076	26927.377295833605	0
2	42165	27004.819370510983	1
2	42166	27004.999013938254	0
2	42200	27021.684963403345	1
2	42201	27022.18660848772	0
2	42215	27043.660678787518	1
2	42216	27044.144401338247	0
2	42220	27044.336153213668	1
2	42221	27044.804509569302	0
2	42225	27045.688275703513	1
2	42226	27045.766104705136	0
2	42310	27117.435612746187	1
2	42311	27117.728788808412	0
2	42490	27183.183705132588	1
2	42491	27183.395697059911	0
2	42525	27198.212765655338	1
2	42526	27198.943539606509	0
2	42530	27199.194817846634	1
2	42531	27199.834849122408	0
2	42590	27222.120044678418	1
2	42591	27222.666195206377	0
2	42640	27236.281768456713	1
2	42641	27236.286074980461	0
2	42645	27236.341578438871	1
2	42646	27237.13437701447	0
2	42710	27295.42199223363	1
2	42711	27296.191266904179	0
2	42745	27305.548766289961	1
2	42746	27305.846127850588	0
2	42785	27339.511162003532	1
2	42786	27339.984935144187	0
2	42935	27461.549675056148	1
2	42937	27461.799104616858	2
2	42938	27461.957796634995	1
2	42941	27462.583543098793	0
2	42945	27462.861994688319	1
2	42946	27463.413621904823	0
2	43010	27512.780579713669	1
2	43011	27512.918875838768	0
2	43090	27545.117928519901	1
2	43093	27545.952292930289	0
2	43135	27576.308665341735	1
2	43136	27576.759854350896	0
2	43140	27577.112817640736	1
2	43141	27577.710048714145	0
2	43170	27590.904200576145	1
2	43171	27591.500162267433	0
2	43267	27636.482644016644	1
2	43268	27636.727489762933	0
2	43495	27790.947404817902	1
2	43496	27790.979687145489	0
2	43515	27808.757418727309	1
2	43516	27809.194370105113	0
2	43520	27809.245831021507	1
2	43521	27810.061564508681	0
2	43580	27856.392322998251	1
2	43581	27856.93715459655	0
2	43715	27964.395525790987	1
2	43716	27964.881715205056	0
2	43720	27965.048454005492	1
2	43721	27965.647730069165	0
2	43845	28031.385563050556	1
2	43846	28031.510216387774	0
2	43960	28137.247670132273	1
2	43961	28137.554177801749	0
2	44065	28206.117042051701	1
2	44066	28206.503610110652	0
2	44250	28384.186079913139	1
2	44251	28384.417161642862	0
2	44285	28399.054350276301	1
2	44287	28399.139682481837	2
2	44288	28399.560046758986	1
2	44291	28400.518335938937	0
2	44295	28400.58504443009	1
2	44296	28401.27685544609	0
2	44350	28446.572117558901	1
2	44351	28446.88994591518	0
2	44360	28447.71491158095	1
2	44361	28448.110256209296	0
2	44390	28459.541677452765	1
2	44391	28459.774606427645	0
2	44400	28460.462435836771	1
2	44401	28461.104454325142	0
2	44560	28570.244725980461	1
2	44561	28570.356983655914	0
2	44610	28599.672830891917	1
2	44611	28599.72425931445	0
2	44625	28601.787908631208	1
2	44626	28602.19354172612	0
2	44650	28607.146545611785	1
2	44651	28607.581626203762	0
2	44655	28607.980231225626	1
2	44656	28608.426623450605	0
2	44660	28608.564317220388	1
2	44661	28609.302197233833	0
2	44670	28610.730070598356	1
2	44671	28610.837199484842	0
2	44705	28626.179561091609	1
2	44706	28626.68394183682	0
2	44725	28630.937648998581	1
2	44726	28631.055021828417	0
2	44775	28651.028930459609	1
2	44776	28651.193566383726	0
2	44785	28651.818232140989	1
2	44786	28652.377372717129	0
2	44795	28656.792538295793	1
2	44796	28657.056052806657	0
2	44840	28689.608379462685	1
2	44841	28690.016517236513	0
2	44845	28690.061480503724	1
2	44846	28690.482958400446	0
2	44850	28690.692927275838	1
2	44851	28691.169116054206	0
2	44920	28748.402915137763	1
2	44921	28748.789958838884	0
2	44945	28761.30602685926	1
2	44946	28761.834555911443	0
2	45140	28896.698629374203	1
2	45141	28897.021765591282	0
2	45145	28897.083246814874	1
2	45147	28897.605838845338	2
2	45148	28897.882952181095	1
2	45151	28898.349507079212	0
2	45172	28901.1699060776	1
2	45175	28901.903216489211	0
2	45270	28952.80072846146	1
2	45271	28953.173610695816	0
2	45300	28960.548830301385	1
2	45301	28960.660835661929	0
2	45345	28982.771031621576	1
2	45346	28982.976497999211	0
2	45350	28983.254367828457	1
2	45351	28983.672989288024	0
2	45400	29023.372400503275	1
2	45401	29023.571094754695	0
2	45445	29042.408410165739	1
2	45446	29042.902807276677	0
2	45455	29045.572228345286	1
2	45456	29045.621418168242	0
2	45495	29064.701294568751	1
2	45496	29064.729595375249	0
2	45575	29125.174120211051	1
2	45576	29125.393636543339	0
2	45670	29180.839560958781	1
2	45671	29180.924135081273	0
2	45810	29275.78554481901	1
2	45811	29275.936389272632	0
2	45815	29276.086323844239	1
2	45816	29276.797211685376	0
2	45820	29276.889502362612	1
2	45823	29277.350058493456	0
2	45860	29289.655463342244	1
2	45861	29289.669527678886	0
2	45965	29325.144890601162	1
2	45966	29325.264614727707	0
2	46255	29495.414790897663	1
2	46256	29495.778296141489	0
2	46275	29500.0660282545	1
2	46276	29500.099220823232	0
2	46285	29501.619608170022	1
2	46286	29501.775048540175	0
2	46382	29547.45852877145	1
2	46383	29547.815616646403	0
2	46392	29549.138749362003	1
2	46393	29549.380264156724	0
2	46430	29577.44196707468	1
2	46431	29577.859657207928	0
2	46525	29650.169465922979	1
2	46526	29650.36511528027	0
2	46629	29700.338618052815	1
2	46630	29700.348315149797	0
2	46745	29801.156472843922	1
2	46746	29801.877400739778	0
2	46790	29830.574943805316	1
2	46793	29831.047141495223	0
2	46800	29831.772711899183	1
2	46801	29832.337371938878	0
2	46925	29917.830486164972	1
2	46926	29918.497147894972	0
2	46950	29938.754354128862	1
2	46951	29939.392132330495	0
2	46957	29940.018831496123	1
2	46960	29940.373483416108	0
3	0	0	0
3	80	53.977805469917	1
3	82	54.454052419864	2
3	83	54.584752661864	1
3	86	55.304651835457	0
3	120	84.291320593761	1
3	121	84.52425105612	0
3	165	105.302843972176	1
3	166	105.890080633173	0
3	175	117.485804032705	1
3	177	117.671428111821	2
3	178	118.002364658336	1
3	182	118.274562093607	2
3	184	118.395579873793	3
3	185	118.969121513474	2
3	188	119.451606335077	1
3	191	119.935172141116	0
3	245	162.527643244989	1
3	246	163.112605667318	0
3	275	172.380575657567	1
3	276	173.169805919862	0
3	295	184.087065742202	1
3	296	184.479917465298	0
3	300	184.677057343361	1
3	301	184.995091110942	0
3	305	185.204559950447	1
3	306	185.848368942048	0
3	385	230.339746418381	1
3	387	230.522045648199	2
3	389	230.976934371358	3
3	390	231.202917576421	2
3	393	231.62451723784	1
3	411	233.917562285837	0
3	445	265.99637327425	1
3	446	266.397802319139	0
3	460	274.408434699777	1
3	466	275.904053831364	0
3	510	298.333323605007	1
3	511	298.901414461389	0
3	550	324.065592577757	1
3	551	324.639206253036	0
3	575	338.299657843805	1
3	576	338.924208357566	0
3	670	394.995469709475	1
3	671	395.297638355772	0
3	700	417.299755205026	1
3	701	418.024789725826	0
3	755	444.665869204397	1
3	756	445.178750212197	0
3	792	466.475239985775	1
3	797	467.796022481403	2
3	798	467.876267652948	1
3	811	469.833116285166	0
3	830	489.881516323546	1
3	831	489.927150835973	0
3	880	505.707375142456	1
3	882	505.894723804231	2
3	883	506.248066434896	1
3	891	507.766437339902	0
3	1085	690.990054345762	1
3	1086	691.43517478853	0
3	1105	712.234475586228	1
3	1107	712.560994685221	2
3	1109	712.635005741373	3
3	1111	712.911227206368	4
3	1112	713.030310112642	3
3	1120	714.299897005301	2
3	1123	714.936807292266	1
3	1127	715.365495222904	2
3	1128	715.784970388966	1
3	1131	716.455022436086	0
3	1152	727.534220458798	1
3	1156	728.50111719662	0
3	1260	832.061023731433	1
3	1261	832.119311770786	0
3	1320	877.918300040479	1
3	1321	878.1869690288	0
3	1332	879.778064397186	1
3	1336	880.50729841121	0
3	1355	890.481627563902	1
3	1356	890.523480077116	0
3	1450	931.208222991211	1
3	1451	931.609014678382	0
3	1455	931.729330044926	1
3	1456	932.19651550819	0
3	1460	932.758296797876	1
3	1461	933.010343876396	0
3	1470	934.337394531434	1
3	1471	934.346739616905	0
3	1535	968.178493170394	1
3	1536	968.236904395142	0
3	1575	985.481103053102	1
3	1576	985.839699946769	0
3	1615	1008.913416629622	1
3	1616	1009.257391281773	0
3	1685	1068.316771674309	1
3	1686	1069.094599168525	0
3	1730	1106.093520430698	1
3	1731	1106.524709814492	0
3	1785	1140.686976760137	1
3	1786	1141.342323554713	0
3	1800	1154.249893793823	1
3	1801	1154.291395252441	0
3	1905	1228.702224011054	1
3	1906	1229.096897016804	0
3	2005	1302.94288399815	1
3	2006	1303.246002486329	0
3	2050	1327.120465321123	1
3	2051	1327.136709609686	0
3	2175	1393.841052785434	1
3	2176	1393.850889659819	0
3	2230	1436.050458176981	1
3	2232	1436.09340075107	2
3	2233	1436.199822076826	1
3	2236	1436.986873461256	0
3	2240	1437.118513664894	1
3	2241	1437.669476171207	0
3	2275	1463.604499909822	1
3	2277	1463.685083935286	2
3	2278	1464.395791497438	1
3	2286	1465.598789280684	0
3	2365	1512.848997443441	1
3	2366	1513.412679123493	0
3	2382	1523.761276362166	1
3	2387	1524.927351320574	2
3	2389	1525.351691087268	3
3	2390	1525.356974709714	2
3	2393	1526.18205123337	1
3	2396	1527.048532483382	0
3	2450	1556.146780512142	1
3	2451	1556.487242341776	0
3	2455	1556.78595264432	1
3	2462	1557.406056200817	2
3	2463	1557.986504715065	1
3	2467	1558.227933791911	2
3	2468	1558.501510159241	1
3	2472	1558.74608641058	2
3	2478	1559.485718314571	1
3	2481	1560.124913750158	0
3	2500	1568.272070230583	1
3	2501	1568.579909756649	0
3	2579	1619.245560032743	1
3	2591	1621.930641391611	0
3	2625	1657.357597956126	1
3	2626	1657.439241677628	0
3	2635	1658.455635536992	1
3	2636	1659.120673301156	0
3	2675	1675.676461963302	1
3	2676	1675.742202974106	0
3	2710	1701.723681624407	1
3	2711	1701.83633364501	0
3	2745	1740.561788241963	1
3	2746	1741.090744100535	0
3	2780	1761.154646781794	1
3	2781	1761.41042171062	0
3	2835	1812.538032010705	1
3	2836	1812.585096427175	0
3	2890	1861.296851891213	1
3	2891	1862.175674255491	0
3	2910	1880.488164941354	1
3	2911	1880.975211373495	0
3	2917	1881.177172483499	1
3	2922	1882.070657356738	2
3	2924	1882.119339446852	3
3	2925	1882.751358991687	2
3	2929	1883.565203164052	3
3	2930	1883.749849985366	2
3	2936	1884.027655563057	3
3	2940	1884.999616211991	2
3	2944	1885.870878196224	3
3	2945	1885.911602043885	2
3	2948	1886.870209152497	1
3	2951	1887.561338160246	0
3	2955	1888.296497894002	1
3	2956	1888.51537599183	0
3	3010	1918.556023502366	1
3	3011	1918.722940805191	0
3	3050	1939.956007760509	1
3	3051	1939.986524952487	0
3	3215	2080.585722053299	1
3	3217	2080.675815108766	2
3	3218	2080.928021633022	1
3	3222	2081.340722525224	2
3	3223	2081.739475771554	1
3	3226	2082.35260140761	0
3	3325	2136.874722346648	1
3	3326	2137.523546708921	0
3	3370	2165.802310473288	1
3	3371	2166.352266475993	0
3	3375	2166.410912673208	1
3	3376	2166.863256257648	0
3	3485	2250.834553277087	1
3	3486	2250.985396119999	0
3	3557	2296.31235384414	1
3	3561	2297.560334263905	0
3	3630	2365.382902977901	1
3	3631	2365.518660496272	0
3	3635	2365.521950054673	1
3	3636	2366.195573251419	0
3	3640	2366.459823666105	1
3	3641	2367.005613025375	0
3	3715	2405.468058012448	1
3	3716	2405.600696642899	0
3	3740	2417.736572560319	1
3	3741	2418.432565060638	0
3	3765	2435.559256389655	1
3	3766	2436.384741935147	0
3	3780	2438.936442008482	1
3	3781	2439.45147731328	0
3	3785	2439.846827472835	1
3	3786	2440.385808683937	0
3	3810	2453.132737508607	1
3	3811	2453.606349307699	0
3	3850	2488.922737080758	1
3	3861	2490.487959662833	0
3	3985	2579.260502396273	1
3	3986	2579.623803479315	0
3	3990	2580.176254672	1
3	3991	2580.19735977547	0
3	4017	2592.896615338939	1
3	4021	2594.170502615089	0
3	4030	2597.670026258665	1
3	4031	2597.998060997506	0
3	4042	2599.368245617099	1
3	4046	2600.525755953177	0
3	4055	2601.372867889961	1
3	4056	2601.732357416947	0
3	4140	2652.80451598983	1
3	4141	2653.224888806319	0
3	4150	2654.845639626685	1
3	4151	2655.334749772873	0
3	4165	2660.418497099064	1
3	4166	2660.515087418397	0
3	4190	2680.206891502352	1
3	4191	2680.673875687282	0
3	4225	2702.710154951088	1
3	4226	2703.048977234237	0
3	4295	2750.282099853457	1
3	4296	2750.715875614266	0
3	4310	2754.553846652171	1
3	4312	2755.063827223883	2
3	4313	2755.071461648672	1
3	4316	2756.008425363843	0
3	4320	2756.327788370607	1
3	4321	2756.733094266561	0
3	4380	2818.027385758561	1
3	4381	2818.661862335077	0
3	4415	2841.100186679151	1
3	4416	2841.762729983428	0
3	4425	2842.66187785952	1
3	4426	2843.403174780659	0
3	4520	2944.094031449318	1
3	4521	2944.884774233028	0
3	4540	2948.889802202133	1
3	4541	2949.265042176345	0
3	4655	3036.452330382087	1
3	4656	3036.718850225609	0
3	4660	3037.579632130294	1
3	4661	3037.665651889218	0
3	4680	3056.607631126853	1
3	4681	3056.704467398567	0
3	4785	3147.727637058169	1
3	4786	3147.923445046541	0
3	4840	3184.645831516811	1
3	4841	3185.15201877419	0
3	4880	3197.218299925501	1
3	4881	3197.661161998865	0
3	4885	3197.683222265509	1
3	4886	3198.179330821215	0
3	4890	3198.314989572859	1
3	4891	3198.821346037016	0
3	4895	3199.208819891598	1
3	4896	3199.475394946123	0
3	4905	3203.381617938263	1
3	4906	3203.583583287418	0
3	4925	3217.9227783903	1
3	4926	3218.25702735815	0
3	5015	3323.530408361485	1
3	5016	3324.049939009633	0
3	5025	3327.315074973526	1
3	5026	3327.657318890958	0
3	5105	3382.489888097155	1
3	5106	3382.532229144193	0
3	5115	3388.114918239726	1
3	5116	3388.426077739818	0
3	5195	3443.766961570826	1
3	5196	3443.825631209464	0
3	5240	3462.48389757876	1
3	5246	3463.415034532695	0
3	5345	3552.343222218177	1
3	5346	3552.766983155692	0
3	5350	3553.079759187869	1
3	5351	3553.277339551989	0
3	5430	3596.70008474564	1
3	5431	3596.726372601676	0
3	5490	3617.900345438501	1
3	5491	3618.528895384355	0
3	5495	3618.765465140154	1
3	5496	3619.098972844521	0
3	5530	3651.358964410721	1
3	5531	3652.177005770446	0
3	5535	3652.828068016724	1
3	5536	3652.900561722663	0
3	5540	3653.067761480986	1
3	5541	3653.680638222459	0
3	5655	3751.679398612561	1
3	5656	3752.059313882498	0
3	5685	3761.412904717923	1
3	5686	3761.496417464952	0
3	5780	3818.478368682152	1
3	5781	3818.754252014918	0
3	5830	3841.25553109994	1
3	5831	3841.355959218129	0
3	5835	3841.826385316029	1
3	5836	3842.194641779404	0
3	5900	3873.112959536257	1
3	5901	3873.729086382467	0
3	5907	3874.555529345537	1
3	5911	3875.240065136053	0
3	5975	3923.939495327496	1
3	5976	3924.746238654724	0
3	5985	3926.188825467205	1
3	5986	3926.611611409611	0
3	6005	3933.76912049721	1
3	6006	3934.136306311783	0
3	6010	3934.397153285933	1
3	6011	3935.03405054364	0
3	6105	4018.886648430125	1
3	6106	4019.673594611243	0
3	6110	4020.441273796113	1
3	6111	4020.472983146424	0
3	6195	4080.964886546818	1
3	6196	4081.438123612524	0
3	6275	4140.064268251651	1
3	6276	4140.444929102244	0
3	6305	4164.740387491216	1
3	6306	4165.147817963979	0
3	6340	4184.483527375571	1
3	6341	4184.753714623442	0
3	6350	4186.125766177496	1
3	6351	4186.207220801079	0
3	6390	4199.023791536203	1
3	6396	4199.846004545868	0
3	6400	4199.940066837376	1
3	6401	4200.69330354728	0
3	6407	4201.223351463402	1
3	6411	4202.590645286294	0
3	6420	4204.247645462673	1
3	6421	4204.804146142768	0
3	6440	4210.81435312502	1
3	6441	4211.410947526796	0
3	6510	4250.991761992878	1
3	6512	4251.068250552809	2
3	6513	4251.388246944336	1
3	6516	4252.063309729913	0
3	6535	4258.167708138486	1
3	6536	4258.761709603001	0
3	6545	4260.165260271657	1
3	6546	4260.61376618264	0
3	6550	4260.834426618783	1
3	6551	4261.101066059905	0
3	6555	4261.311136868604	1
3	6556	4261.735926581926	0
3	6595	4322.609224314961	1
3	6596	4322.684645169285	0
3	6640	4347.604455002257	1
3	6641	4347.687043392003	0
3	6705	4386.124088014791	1
3	6706	4386.331618354365	0
3	6722	4393.354844994377	1
3	6727	4394.719238720055	2
3	6728	4394.761670401694	1
3	6731	4395.566953064084	0
3	6785	4426.915953342728	1
3	6786	4427.342847128074	0
3	6790	4427.497267589912	1
3	6791	4428.196387785348	0
3	6810	4446.797299301333	1
3	6811	4447.208361228042	0
3	6815	4447.451844074031	1
3	6816	4447.771940597658	0
3	6850	4465.09106179395	1
3	6851	4465.444640748568	0
3	6870	4471.937260063619	1
3	6871	4472.211013532241	0
3	6885	4476.741947095726	1
3	6886	4477.077753786891	0
3	6890	4477.133038298923	1
3	6891	4477.846886799027	0
3	6980	4535.59207607435	1
3	6981	4535.684726138448	0
3	7035	4567.077230132981	1
3	7036	4567.867806621098	0
3	7055	4574.505008573527	1
3	7056	4574.514575023342	0
3	7090	4588.369366081559	1
3	7091	4588.805106644426	0
3	7135	4620.194851307153	1
3	7136	4620.224864100246	0
3	7167	4629.77040731124	1
3	7171	4630.617618230506	0
3	7235	4715.791371921757	1
3	7236	4715.977477343236	0
3	7250	4717.976799157237	1
3	7251	4718.089776636276	0
3	7265	4726.416732382893	1
3	7266	4726.773823361911	0
3	7300	4749.816922235588	1
3	7301	4750.53517388939	0
3	7310	4751.611050514208	1
3	7311	4752.076815500877	0
3	7315	4752.820284827881	1
3	7316	4753.042500292718	0
3	7320	4753.262919936606	1
3	7321	4753.857427792739	0
3	7370	4773.919144543222	1
3	7371	4774.052494280393	0
3	7395	4789.310290617534	1
3	7396	4789.978985102557	0
3	7410	4793.458371231892	1
3	7411	4793.573551137639	0
3	7425	4798.338524290048	1
3	7426	4799.223234279523	0
3	7435	4803.153304874784	1
3	7436	4803.194136165271	0
3	7490	4819.537093442291	1
3	7491	4820.251504911821	0
3	7615	4890.550959100515	1
3	7617	4890.982602495365	2
3	7618	4891.392740413019	1
3	7631	4893.472646467186	0
3	7690	4922.059773137107	1
3	7691	4922.11354694441	0
3	7700	4922.818188967986	1
3	7701	4923.78475567674	0
3	7750	4963.778890622384	1
3	7751	4964.244538932493	0
3	7760	4967.560973844922	1
3	7761	4967.628217542651	0
3	7770	4969.076633710557	1
3	7772	4969.182623057456	2
3	7773	4969.473512492981	1
3	7776	4970.3188682165	0
3	7900	5057.771081171514	1
3	7901	5057.907954257839	0
3	7905	5058.077691111914	1
3	7906	5058.641909251614	0
3	7950	5085.077795987387	1
3	7951	5085.932978419751	0
3	7955	5086.246608993334	1
3	7956	5086.455610540161	0
3	8005	5165.450385882069	1
3	8006	5165.517599944931	0
3	8025	5181.539050459238	1
3	8026	5181.914520225089	0
3	8065	5204.38658970688	1
3	8066	5204.522197731195	0
3	8160	5266.160430355732	1
3	8161	5266.365171114442	0
3	8165	5266.611824669168	1
3	8172	5267.685826076698	2
3	8173	5267.708625477872	1
3	8176	5268.361421329894	0
3	8225	5292.829244401633	1
3	8231	5294.345204437277	0
3	8290	5322.800941299983	1
3	8292	5323.335607442982	2
3	8293	5323.577802487392	1
3	8296	5324.278157679899	0
3	8350	5368.408765828428	1
3	8351	5368.5589193993	0
3	8375	5371.629147644163	1
3	8381	5372.785231968859	0
3	8525	5481.421565648656	1
3	8531	5482.390858756386	0
3	8535	5482.673638687922	1
3	8536	5483.066419005262	0
3	8610	5540.165732290632	1
3	8612	5540.264056595702	2
3	8613	5540.515398901683	1
3	8616	5540.93378211896	0
3	8655	5558.546203921498	1
3	8656	5558.702905178665	0
3	8700	5581.47927394373	1
3	8701	5581.481892983098	0
3	8727	5591.172933492053	1
3	8731	5592.179340133108	0
3	8785	5645.451571882501	1
3	8786	5645.653788291657	0
3	8905	5778.103729591614	1
3	8906	5778.315892327275	0
3	8915	5779.619034077822	1
3	8916	5779.836641554419	0
3	8935	5785.450287193246	1
3	8936	5785.509146507236	0
3	8945	5793.107427537944	1
3	8946	5793.347100396291	0
3	9020	5845.047757967158	1
3	9021	5845.313688580239	0
3	9067	5875.615669437299	1
3	9071	5876.440444560491	0
3	9080	5879.255520085023	1
3	9081	5879.722638582244	0
3	9085	5879.899640515252	1
3	9086	5880.602547788519	0
3	9115	5895.694257015871	1
3	9116	5895.708199420862	0
3	9155	5919.396363976663	1
3	9156	5919.799955058462	0
3	9195	5941.338481834348	1
3	9196	5941.63669881859	0
3	9200	5941.88763081124	1
3	9201	5942.457965601852	0
3	9212	5944.176024181027	1
3	9217	5944.839214512225	2
3	9218	5944.907387437073	1
3	9227	5946.343485457391	2
3	9228	5946.421292326606	1
3	9231	5946.909247432889	0
3	9375	6035.632100165105	1
3	9376	6036.028405435521	0
3	9405	6048.25948479212	1
3	9431	6052.440836350565	0
3	9440	6053.471408915939	1
3	9441	6054.038210951588	0
3	9470	6081.460810457087	1
3	9472	6081.714979456492	2
3	9473	6082.008204878279	1
3	9476	6082.703837376152	0
3	9525	6126.943786185735	1
3	9526	6127.794844019852	0
3	9585	6169.994197228052	1
3	9586	6170.825865201947	0
3	9590	6170.829331496681	1
3	9591	6171.449831927863	0
3	9610	6186.100617970605	1
3	9611	6186.637815476974	0
3	9690	6240.230518356498	1
3	9691	6240.761603557559	0
3	9725	6258.608120660689	1
3	9726	6258.753211782106	0
3	9750	6276.960215180989	1
3	9751	6277.269909828645	0
3	9805	6299.109385573377	1
3	9806	6299.205614150006	0
3	9830	6304.645610914379	1
3	9831	6305.035772907206	0
3	9840	6305.834928203949	1
3	9841	6306.16340605615	0
3	9855	6314.73607940303	1
3	9856	6314.780051914994	0
3	9920	6351.963151081843	1
3	9922	6352.487177560496	2
3	9923	6352.556223731421	1
3	9926	6353.474202546271	0
3	9935	6354.680539130124	1
3	9936	6355.186717066638	0
3	9945	6355.925207863314	1
3	9946	6356.146024140812	0
3	10030	6418.40095093691	1
3	10031	6418.701045273647	0
3	10115	6497.579420291853	1
3	10116	6498.162689407605	0
3	10170	6532.234783861461	1
3	10171	6532.408275996726	0
3	10245	6559.300603767853	1
3	10246	6559.807454671439	0
3	10275	6585.706452400501	1
3	10276	6586.109390159347	0
3	10365	6646.292549553854	1
3	10366	6646.873975761545	0
3	10370	6647.460328776985	1
3	10371	6647.54993911682	0
3	10385	6649.20563712193	1
3	10386	6649.932082499401	0
3	10405	6663.974081395957	1
3	10406	6664.115217596243	0
3	10415	6665.599574492628	1
3	10416	6665.972363847199	0
3	10470	6705.458804988393	1
3	10472	6705.458970499573	2
3	10473	6705.716260848452	1
3	10476	6706.282103379422	0
3	10510	6730.156336953592	1
3	10512	6730.293241474849	2
3	10513	6730.71832817142	1
3	10521	6732.509948448009	0
3	10595	6778.265160026177	1
3	10596	6778.577668879608	0
3	10605	6781.32790545103	1
3	10606	6781.516126073184	0
3	10620	6790.72492941606	1
3	10621	6791.387462978084	0
3	10647	6797.513544584327	1
3	10651	6798.593373017328	0
3	10655	6798.771710108329	1
3	10656	6799.309589332564	0
3	10705	6827.831197107552	1
3	10706	6828.084816862755	0
3	10820	6924.995058680051	1
3	10821	6925.805068972027	0
3	11005	7040.372181946255	1
3	11006	7040.547202144168	0
3	11030	7052.226418920254	1
3	11031	7052.232662893515	0
3	11045	7055.828057833909	1
3	11046	7055.998867775167	0
3	11085	7081.56215075241	1
3	11086	7081.797684863576	0
3	11125	7125.863278903017	1
3	11127	7126.131247628304	2
3	11128	7126.363454015396	1
3	11141	7128.584534171113	0
3	11320	7238.130187686664	1
3	11321	7238.574088422586	0
3	11380	7285.62707309156	1
3	11381	7285.994155380756	0
3	11385	7286.290640377115	1
3	11386	7286.599634533303	0
3	11405	7290.814730715421	1
3	11406	7291.190572120798	0
3	11410	7291.391364368541	1
3	11411	7292.159657553992	0
3	11415	7292.303858965456	1
3	11421	7293.690632635112	0
3	11445	7307.102366566984	1
3	11446	7307.108423271184	0
3	11450	7307.401278031349	1
3	11451	7307.595511389864	0
3	11477	7321.05868106299	1
3	11481	7321.897331835701	0
3	11500	7332.149615181768	1
3	11501	7332.407807458574	0
3	11505	7332.45692807626	1
3	11509	7332.570327829561	2
3	11513	7333.606959484806	1
3	11521	7334.794101250041	0
3	11530	7337.161087874624	1
3	11532	7337.376315044831	2
3	11533	7337.908814004913	1
3	11536	7338.655991494108	0
3	11590	7393.802188797808	1
3	11591	7393.845747574948	0
3	11605	7398.036889098732	1
3	11606	7398.212813320792	0
3	11640	7443.257928585	1
3	11642	7443.551980893851	2
3	11643	7443.817118834928	1
3	11651	7445.230027741837	0
3	11710	7471.979465317368	1
3	11711	7472.137335851961	0
3	11720	7488.298192412469	1
3	11722	7488.491783669931	2
3	11723	7489.109888812829	1
3	11726	7490.10733976697	0
3	11730	7490.412902652262	1
3	11731	7490.607560248649	0
3	11760	7499.958840768678	1
3	11761	7500.601325943735	0
3	11775	7507.125221254505	1
3	11776	7507.231965021623	0
3	11845	7558.396180354693	1
3	11846	7558.878792227991	0
3	11875	7573.810257009886	1
3	11876	7574.067729357085	0
3	11900	7586.161606909975	1
3	11901	7586.595170643461	0
3	11985	7668.832535761689	1
3	11986	7668.853224580245	0
3	12040	7705.888819381457	1
3	12041	7706.024796936616	0
3	12045	7706.538269426178	1
3	12046	7706.620355412459	0
3	12050	7706.686237765293	1
3	12051	7707.146668574728	0
3	12055	7707.539948162188	1
3	12056	7708.004831545103	0
3	12060	7708.640903350786	1
3	12061	7708.956043350558	0
3	12110	7744.707159714065	1
3	12111	7744.711190020521	0
3	12175	7806.302538360046	1
3	12176	7807.114474078024	0
3	12385	7994.959939193182	1
3	12386	7995.069807114327	0
3	12410	8012.934533789177	1
3	12411	8013.290498881641	0
3	12415	8013.474140628148	1
3	12416	8013.757914280047	0
3	12435	8018.792197739831	1
3	12436	8019.320527290997	0
3	12560	8097.417690138284	1
3	12561	8098.056341354773	0
3	12600	8126.085992923995	1
3	12601	8126.657824768248	0
3	12625	8151.829010580156	1
3	12626	8152.268507432725	0
3	12630	8152.453756062921	1
3	12631	8152.755814603783	0
3	12650	8158.797961108392	1
3	12651	8158.977316641855	0
3	12715	8189.416735409243	1
3	12716	8189.686354561519	0
3	12760	8223.497686625454	1
3	12761	8223.971743961518	0
3	12850	8273.052406259824	1
3	12851	8273.379897971013	0
3	12855	8273.468051169565	1
3	12856	8274.229029610454	0
3	12865	8275.739080361988	1
3	12866	8275.781560564894	0
3	12950	8334.603300301151	1
3	12951	8334.892993742912	0
3	13020	8402.500883594402	1
3	13021	8402.559676754807	0
3	13025	8402.830980034375	1
3	13026	8403.182254217013	0
3	13050	8408.095848755758	1
3	13051	8408.533769395327	0
3	13055	8408.609969495212	1
3	13056	8408.980240513881	0
3	13095	8432.664144117259	1
3	13096	8433.519706523319	0
3	13100	8433.53543845613	1
3	13101	8434.146050654671	0
3	13105	8434.250434046478	1
3	13106	8435.030327057832	0
3	13155	8475.906774188039	1
3	13156	8475.928170638274	0
3	13215	8513.439101540938	1
3	13216	8513.669857612089	0
3	13250	8545.436724442844	1
3	13251	8545.940326905677	0
3	13305	8585.982510810638	1
3	13306	8586.871082030666	0
3	13330	8595.836491093365	1
3	13331	8596.370516963283	0
3	13365	8620.421144623136	1
3	13366	8620.901484012323	0
3	13385	8652.330637706411	1
3	13386	8652.61779300281	0
3	13420	8690.50580530365	1
3	13421	8690.947757914369	0
3	13430	8691.62631117346	1
3	13432	8691.907373584477	2
3	13438	8692.89662731647	1
3	13441	8693.864718889245	0
3	13480	8709.704072443322	1
3	13481	8710.375484758585	0
3	13485	8711.140588306643	1
3	13486	8711.213645992444	0
3	13545	8749.923360530493	1
3	13546	8749.972180013845	0
3	13565	8755.882769467282	1
3	13566	8755.975897432948	0
3	13645	8829.527863436713	1
3	13646	8830.107120243779	0
3	13670	8867.560353917793	1
3	13671	8867.784052897885	0
3	13685	8873.909966556602	1
3	13686	8874.109586161746	0
3	13690	8874.839023455173	1
3	13691	8874.980707690351	0
3	13775	8921.711438288351	1
3	13776	8921.88620548892	0
3	13885	9002.763011813236	1
3	13886	9002.821241737476	0
3	13945	9029.43598541658	1
3	13946	9029.649077077046	0
3	14010	9064.896731627767	1
3	14011	9065.297411429429	0
3	14015	9065.335775309569	1
3	14017	9065.952772447601	2
3	14018	9065.972600904958	1
3	14021	9066.426783810988	0
3	14100	9139.252660002014	1
3	14101	9139.527037810878	0
3	14120	9146.627206210444	1
3	14122	9146.957644683295	2
3	14123	9146.997618210701	1
3	14126	9147.795783128835	0
3	14140	9149.658339033497	1
3	14141	9149.903955190914	0
3	14145	9150.548400539062	1
3	14146	9150.613063650863	0
3	14185	9163.940695704763	1
3	14191	9164.752248344811	0
3	14200	9166.23590690907	1
3	14201	9166.337934023615	0
3	14265	9192.854113613242	1
3	14266	9192.981578537318	0
3	14300	9215.193572268688	1
3	14301	9215.724374181144	0
3	14325	9222.340121580471	1
3	14326	9222.854182424368	0
3	14385	9263.189383355491	1
3	14386	9263.191019216052	0
3	14395	9269.909933525054	1
3	14396	9270.081347402208	0
3	14415	9279.22841467116	1
3	14416	9279.815886856939	0
3	14465	9318.619925532881	1
3	14466	9318.84788789712	0
3	14470	9319.572745678092	1
3	14471	9319.618387817872	0
3	14610	9428.440672780714	1
3	14616	9430.094887249048	0
3	14647	9454.232550922755	1
3	14651	9454.996214902035	0
3	14740	9506.228093155341	1
3	14741	9506.591641861329	0
3	14750	9514.457815571409	1
3	14751	9515.043401965627	0
3	14785	9534.728961595732	1
3	14786	9534.810169113832	0
3	14805	9546.154195392709	1
3	14806	9546.439955775353	0
3	14865	9599.837082317599	1
3	14866	9600.344083429122	0
3	14875	9601.341807754201	1
3	14876	9601.600882159699	0
3	14895	9617.768993437058	1
3	14896	9618.149956050379	0
3	14945	9653.499972616502	1
3	14946	9654.126634186884	0
3	14975	9676.471763263644	1
3	14976	9676.841298768048	0
3	14985	9681.83361102936	1
3	14986	9682.403688303729	0
3	14990	9682.997310047696	1
3	14991	9683.378773081324	0
3	14995	9684.01224229422	1
3	14996	9684.249295876895	0
3	15015	9708.691762670399	1
3	15016	9709.249240518167	0
3	15030	9710.649929806107	1
3	15031	9711.214392573658	0
3	15055	9723.168215821947	1
3	15056	9723.65498994835	0
3	15100	9762.713749182824	1
3	15101	9762.977568876739	0
3	15145	9784.709008918097	1
3	15146	9784.871731500513	0
3	15150	9785.029631338439	1
3	15151	9785.815491183148	0
3	15175	9793.216936463579	1
3	15176	9793.749811499238	0
3	15195	9800.353092529417	1
3	15196	9800.600031288108	0
3	15230	9825.355049813492	1
3	15231	9826.224132428255	0
3	15300	9876.025699615464	1
3	15301	9876.626791518328	0
3	15345	9896.065072186916	1
3	15346	9896.232732816068	0
3	15370	9910.81573254332	1
3	15371	9910.883404080254	0
3	15395	9918.146846282771	1
3	15396	9918.346347693467	0
3	15497	9996.310755569197	1
3	15502	9997.024370109524	2
3	15503	9997.121840541772	1
3	15506	9997.657636091168	0
3	15510	9997.966082594851	1
3	15511	9998.172158045935	0
3	15515	9998.842719525192	1
3	15516	9999.156530855138	0
3	15520	9999.573754833124	1
3	15521	10000.116527123943	0
3	15535	10012.890790678598	1
3	15537	10013.137450669756	2
3	15538	10013.437546499451	1
3	15541	10013.879650957841	0
3	15550	10014.844344631086	1
3	15551	10015.798515856865	0
3	15560	10017.136512718007	1
3	15561	10017.659578953975	0
3	15620	10047.914728177168	1
3	15621	10048.672983483564	0
3	15700	10098.756588355131	1
3	15701	10099.183032041771	0
3	15765	10157.668939750184	1
3	15766	10158.258939187663	0
3	15835	10214.979321013582	1
3	15837	10215.368988437079	2
3	15838	10215.532967681039	1
3	15841	10216.345687596753	0
3	15850	10217.543955525405	1
3	15851	10217.692176124991	0
3	15935	10295.060560486366	1
3	15936	10295.077778613599	0
3	16005	10346.572150140038	1
3	16006	10347.181325818108	0
3	16025	10357.729413517647	1
3	16026	10357.994605104184	0
3	16040	10370.529208192985	1
3	16041	10370.606628332876	0
3	16100	10404.394221041847	1
3	16101	10404.673987761278	0
3	16160	10455.553510823075	1
3	16161	10455.776558780831	0
3	16225	10490.167685910374	1
3	16226	10490.928358013612	0
3	16260	10506.659229389516	1
3	16261	10506.672399311571	0
3	16330	10536.835241174398	1
3	16331	10537.556871364218	0
3	16440	10647.347438922864	1
3	16441	10647.388789990708	0
3	16465	10660.962178770172	1
3	16466	10661.283650880865	0
3	16470	10661.61749130351	1
3	16471	10661.797125496435	0
3	16500	10674.787497122789	1
3	16501	10674.926214186436	0
3	16510	10676.420994602125	1
3	16511	10676.59782501463	0
3	16525	10680.674406401172	1
3	16526	10681.379678793345	0
3	16547	10684.851585749486	1
3	16551	10685.350289844692	0
3	16560	10686.773768230914	1
3	16561	10687.362803250721	0
3	16615	10734.975865483698	1
3	16621	10735.588977738177	0
3	16705	10803.404009180563	1
3	16706	10803.66036854033	0
3	16720	10805.547074383337	1
3	16721	10806.142984013103	0
3	16745	10810.635592145187	1
3	16746	10810.875140843148	0
3	16780	10827.574133168856	1
3	16781	10827.765503344476	0
3	16830	10842.196682127044	1
3	16831	10842.3040348888	0
3	16865	10869.057053360492	1
3	16866	10869.709995398884	0
3	16885	10876.62548134024	1
3	16891	10877.854700489644	0
3	16925	10897.03777160614	1
3	16931	10897.906323023823	0
3	16965	10916.609869221271	1
3	16966	10917.010455545499	0
3	16970	10917.286805453133	1
3	16971	10917.773369578314	0
3	16975	10917.805852924808	1
3	16976	10918.76089508086	0
3	16980	10918.930029725435	1
3	16981	10919.657189035318	0
3	17050	10963.629812915043	1
3	17051	10963.931401827388	0
3	17060	10964.924585022617	1
3	17061	10965.163057202908	0
3	17070	10965.985418271788	1
3	17072	10966.601334077214	2
3	17073	10966.646655955284	1
3	17082	10967.143807485605	2
3	17083	10967.742282262144	1
[...]
6	39065	25030.310176415394	0.57730994665
6	39079	25032.487668481609	1.386436890872
6	39082	25033.137535139127	1.2852244805
6	39090	25037.587644633214	0.940086481767
6	39100	25049.704817930894	0.829442406539
6	39105	25057.249626116389	0.734287474817
6	39110	25066.424288575395	0.480545677664
6	39115	25073.92140433622	0.485658943839
6	39130	25077.201463178672	1.718255047355
6	39140	25079.216126216892	0.411633970961
6	39165	25085.904574618696	2.172484464099
6	39202	25093.80687583179	4.716568958899
6	39224	25108.0449232123	0.783396656578
6	39229	25108.711617828035	0.702095547447
6	39240	25114.640066708033	0.422231914802
6	39250	25118.547753826215	0.818604809418
6	39255	25125.51153716857	0.819708766835
6	39285	25151.958894485931	0.480648420379
6	39290	25152.891757294105	0.721022230014
6	39295	25155.119548784895	0.708706685156
6	39300	25163.217096767303	0.482840447035
6	39315	25176.554461799588	0.532129208697
6	39325	25188.2683869898	0.787859709747
6	39370	25198.971974199844	0.888227903114
6	39385	25204.842329738883	0.600687881093
6	39400	25217.214085188627	0.882277742261
6	39415	25226.738844430943	0.417864770861
6	39500	25285.25524182955	0.508459925326
6	39510	25291.52860225712	2.070092523946
6	39515	25303.387111306809	0.976586276246
6	39535	25334.288609764895	0.689262102125
6	39542	25341.371665497512	0.94948220267
6	39550	25342.277131273473	0.502214528069
6	39565	25355.729763865413	0.436918258341
6	39577	25364.748422525423	0.801938596787
6	39580	25365.213701606794	1.059780362573
6	39585	25368.906489250816	0.534289173456
6	39595	25380.052617292734	0.519641001383
6	39610	25387.512324080273	0.973742432706
6	39622	25399.642649521451	0.920114008989
6	39650	25431.995265709641	0.461361280223
6	39655	25435.474333008908	0.699447187642
6	39735	25533.832293036139	0.657471540663
6	39740	25536.551098109268	0.517194147129
6	39765	25548.265685789341	1.330638584041
6	39777	25551.309781148461	0.940519892098
6	39825	25567.610705849209	0.824994085263
6	39835	25574.448705682643	2.389360594666
6	39840	25575.541646000124	0.737670315662
6	39870	25608.820082388603	0.807892564498
6	39875	25627.78212596741	0.9578602897
6	39900	25658.288543660366	0.599024766218
6	39930	25686.683908200157	0.654735443555
6	39945	25707.646165413187	0.585754554439
6	39965	25725.564539799625	1.193911513281
6	39982	25739.162353260498	2.398879215913
6	40025	25749.431689262454	2.629077338545
6	40035	25752.526195179953	0.752979040937
6	40059	25769.047547466572	2.317654083157
6	40062	25770.016328972935	1.112780325579
6	40070	25771.34208704958	1.031787916479
6	40087	25782.571760851489	0.552350714523
6	40090	25783.202977795265	0.934277837093
6	40105	25789.902571392396	2.282100881806
6	40160	25821.263299775716	0.856511860061
6	40187	25832.972545443078	2.790205645057
6	40202	25839.327039001557	0.720810250845
6	40220	25842.776079048357	3.452630133377
6	40232	25850.057941721843	1.334950063609
6	40235	25850.635339990721	1.690041585474
6	40250	25856.591325848158	1.268576537201
6	40279	25881.137668997369	1.106635505821
6	40282	25881.566656445612	1.457887254779
6	40300	25884.981737142049	0.910024514694
6	40340	25917.998282421963	1.335189444105
6	40350	25923.009224332776	0.651441675238
6	40357	25937.121318543289	0.708465219848
6	40375	25941.093810365081	4.439939606972
6	40390	25947.776428578865	0.649795966223
6	40395	25957.873947252338	0.789117322816
6	40410	25971.240169435805	0.873159951158
6	40430	25978.738771376264	1.949683657335
6	40437	25984.715681282245	0.929044226231
6	40440	25985.386263746675	1.500351919849
6	40455	26002.960343655261	0.401988767181
6	40465	26005.758502427071	2.095955328525
6	40470	26006.419582107617	0.422511386592
6	40485	26027.073396920346	0.890923196636
6	40545	26047.919088294941	0.609176729107
6	40550	26048.766022329453	0.585890197521
6	40590	26060.164913025634	1.705872633666
6	40595	26063.936774498603	0.853687472874
6	40605	26068.72615182653	0.737402739733
6	40625	26084.126675356309	0.597586644255
6	40642	26089.000824923829	0.409896268044
6	40690	26112.023267637113	0.48785407627
6	40700	26118.870773987075	0.889263148699
6	40710	26126.509276393439	0.996193635955
6	40715	26130.79623084271	0.414922347059
6	40722	26131.893800275981	0.974383161869
6	40794	26165.599321771468	1.077581369436
6	40832	26186.377628359149	1.403987261327
6	40835	26187.191026266754	1.461864487398
6	40845	26193.265953117773	0.844683953654
6	40850	26194.629982109667	0.77638684134
6	40860	26213.936853145319	0.483113224898
6	40865	26215.015802548413	0.899154172465
6	40899	26229.730161290055	2.764360484435
6	40915	26233.527169081581	0.936584270885
6	40920	26241.666187272701	0.472447025683
6	40930	26251.854587715311	0.662676812196
6	40965	26286.047578928685	1.765513910078
6	40970	26289.375992326715	0.422352316929
6	41000	26305.541208450351	1.414829265379
6	41014	26307.893487625036	1.418667917949
6	41017	26308.335036462711	1.942686503241
6	41030	26312.622866044504	0.442758763582
6	41057	26319.17619450483	1.234791051381
6	41070	26325.831252682863	0.958974469686
6	41090	26341.107187256284	0.923223426007
6	41095	26350.456292096021	0.56579234628
6	41115	26364.813063965842	1.269014277274
6	41140	26395.133986320966	0.670093676262
6	41147	26407.233200529588	0.658057393366
6	41150	26408.175835917934	1.27944474268
6	41170	26442.028799793049	1.308283675119
6	41179	26443.034087420799	0.90932106548
6	41217	26459.2767528625	0.978527740994
6	41240	26486.227124435512	0.890324262539
6	41245	26490.893731629084	0.665522128716
6	41250	26495.18774678898	0.936260924861
6	41275	26506.637444577089	3.949531632761
6	41285	26513.417915733627	0.510866413591
6	41305	26520.814370215506	0.551274741068
6	41320	26523.014075122329	1.939319309592
6	41352	26533.598834934504	0.968116481137
6	41357	26534.116741510014	1.397952425055
6	41367	26535.708360030362	1.446013985722
6	41375	26538.703325820626	0.421420673421
6	41392	26545.594282242833	0.787125705904
6	41395	26546.412932017111	1.579333594074
6	41420	26558.971845368831	2.347283938062
6	41425	26564.668348786182	0.795098367427
6	41430	26566.249262005635	0.406529519055
6	41465	26613.351539725934	0.756670795009
6	41487	26635.670562688059	0.880733623309
6	41510	26649.538815482289	2.428359060405
6	41555	26673.987879745851	1.357717435183
6	41575	26683.907035786502	0.974772037053
6	41625	26700.32148797939	0.987195127337
6	41650	26709.474818272938	0.902485456957
6	41665	26727.574203170286	0.604743717797
6	41675	26741.857931474561	0.933247520169
6	41687	26748.921053451336	0.993141558676
6	41709	26756.288596720633	0.685200853087
6	41720	26761.823045624003	0.574038023828
6	41727	26763.87561481323	0.667750574043
6	41730	26764.539551844987	1.215428613135
6	41752	26770.251585241754	0.946028401255
6	41755	26770.785837083051	2.747899834613
6	41760	26771.771029128296	0.867599791382
6	41765	26773.019799354562	0.664567507058
6	41780	26783.517901949777	0.892722701002
6	41790	26785.9296411146	0.887265619338
6	41795	26786.986532895595	0.450328260288
6	41815	26801.595681667884	0.535064233793
6	41825	26804.881332940094	1.508607840845
6	41832	26806.717164056967	0.533739914326
6	41862	26812.699735622985	0.833460170005
6	41885	26833.97889564855	1.792401735603
6	41895	26837.409713966106	1.02593993698
6	41930	26845.996838591829	2.233375766598
6	41961	26860.804976230983	0.482926229255
6	42010	26884.296454524973	0.490489251353
6	42040	26903.284347757162	0.499700913066
6	42045	26908.945495319704	0.775333939912
6	42057	26922.665016445685	0.780593275279
6	42060	26923.336577212326	0.842993841451
6	42082	26928.210179942765	0.946355362973
6	42090	26932.53200240416	0.557454323489
6	42137	26967.104713388692	0.888259244384
6	42150	26987.063336700576	0.78514847476
6	42155	26991.603843295996	0.927275833534
6	42180	27009.145734613541	4.326364102558
6	42195	27020.109287889066	0.82919329945
6	42205	27022.800288764647	1.115325361302
6	42210	27027.016031527065	0.458061276609
6	42222	27044.804509569302	1.143830781784
6	42227	27045.766104705136	2.156948142266
6	42230	27046.74326419683	1.054988493317
6	42285	27092.98151025078	0.428046841687
6	42312	27117.728788808412	0.501137527684
6	42317	27118.229239242156	0.793626495969
6	42365	27140.029408964494	2.32026288747
6	42370	27143.127168806165	0.779325630888
6	42405	27159.425201749446	2.998931460935
6	42425	27163.962994148871	2.468625857481
6	42447	27168.110652390347	0.98098421027
6	42500	27185.275431431728	2.09172629914
6	42505	27186.346343035019	0.903990135109
6	42515	27194.543505853708	1.687630077246
6	42532	27199.834849122408	2.53372797235
6	42540	27201.642368010988	2.447550164354
6	42545	27204.183930544463	0.580301437993
6	42550	27207.102830311501	0.84869180941
6	42601	27223.460372822578	4.927928586773
6	42625	27228.750682789639	0.552286079992
6	42647	27237.13437701447	0.852608557757
6	42650	27237.723755445071	1.918099557934
6	42665	27244.61930842203	0.653332390497
6	42680	27275.201601056038	0.761288394267
6	42685	27277.463662470407	0.875190533837
6	42695	27287.864058678408	0.465863956325
6	42700	27288.593758883282	0.637273441441
6	42715	27296.623245270424	1.201253036794
6	42720	27297.921377543717	2.72965691734
6	42740	27302.382463451086	4.150102505604
6	42750	27306.470096498334	0.921330208373
6	42762	27313.21696725982	0.668174842652
6	42775	27330.230267760171	0.482950970391
6	42790	27340.621481328403	2.685725871408
6	42795	27344.23387389025	0.974068529252
6	42810	27362.49761848792	0.453111147834
6	42815	27363.781084157619	0.975002465071
6	42840	27393.263448969538	0.620267455233
6	42865	27406.11488541548	1.714138234966
6	42902	27442.462588878106	0.836562333861
6	42915	27446.62944395812	1.263660426552
6	42947	27463.413621904823	1.614517287965
6	42950	27464.251231655694	2.701556599546
6	42960	27468.896953979243	1.62208459453
6	43012	27512.918875838768	1.694448662451
6	43020	27514.824506502523	2.043926788854
6	43035	27522.256433784081	1.436637776396
6	43040	27529.700534861165	0.995525271539
6	43047	27530.470926044351	0.596179350093
6	43055	27535.391774975339	0.993982621096
6	43080	27543.430288693107	1.795534139612
6	43097	27546.629694932653	2.536314468272
6	43120	27557.340848157916	0.81536302804
6	43142	27577.710048714145	1.40138337241
6	43145	27578.56206251374	1.449244873004
6	43155	27583.994707836822	0.510226861248
6	43160	27585.923588775935	0.432141326787
6	43175	27592.493348911711	4.73147683741
6	43190	27595.665881822015	0.572101391526
6	43210	27603.343896250781	0.535399920493
6	43230	27614.737313756977	0.676193491882
6	43237	27615.474066299673	0.405918136332
6	43245	27622.912446522623	0.820512541337
6	43250	27630.870329200979	0.790847863536
6	43269	27636.727489762933	0.633890078124
6	43272	27637.678364551061	1.195720534417
6	43280	27643.084473057719	0.718545214599
6	43305	27657.59663740125	0.921023803251
6	43310	27659.197484794489	0.508554192679
6	43315	27660.628822793386	0.569843020709
6	43325	27665.497630116515	1.901820498814
6	43335	27672.962376080115	0.966185922375
6	43342	27675.658324494532	0.995705714775
6	43350	27680.385799303784	0.622576498426
6	43360	27692.710452040792	0.799876851169
6	43380	27703.984063158864	0.914061400248
6	43410	27718.861403512439	2.253553536501
6	43415	27728.011015906333	0.52800565795
6	43460	27750.81713766384	1.237647489073
6	43465	27753.847597421592	0.435256938729
6	43470	27776.559906676171	0.418581113452
6	43475	27779.47729806756	0.54294027877
6	43487	27786.891394923707	0.69770288649
6	43497	27790.979687145489	0.811010792991
6	43500	27791.50936134909	0.561956531188
6	43510	27797.075025665006	0.993329694029
6	43522	27810.061564508681	1.304145781372
6	43525	27810.544518293994	2.142722779372
6	43567	27853.010333799008	0.617608678667
6	43590	27858.254588345766	2.543171538955
6	43620	27885.808837933901	0.670215017581
6	43645	27895.633287752051	0.569433468487
6	43670	27926.737598682835	0.526943847816
6	43675	27934.098943947004	0.867012587236
6	43700	27955.220934497529	0.94010362681
6	43722	27965.647730069165	1.252204278178
6	43725	27966.145977805811	1.776166699966
6	43755	27979.102142566786	0.755195002817
6	43790	27997.111326438406	0.957844841154
6	43795	28001.520427256833	0.613339281129
6	43800	28002.263073560249	0.528319172282
6	43805	28003.373333751646	0.747797459876
6	43815	28011.779987814554	0.695268349722
6	43827	28014.607183929026	0.888472375367
6	43840	28020.107563918016	0.916683705198
6	43847	28031.510216387774	0.707107978221
6	43850	28032.505995580687	1.120432530131
6	43855	28033.663789190099	0.651506107487
6	43865	28062.421603693193	0.478853586968
6	43880	28071.580552482767	0.973349768901
6	43885	28075.979492041289	0.425077403709
6	43925	28092.574315988297	0.759574074764
6	43935	28107.058647889513	0.407447052188
6	43945	28128.866945690468	0.567974084849
6	43950	28132.516743170579	0.808983628452
6	43962	28137.554177801749	2.520334257223
6	43965	28138.138390052617	0.890719920344
6	43970	28149.057491122676	0.81994799613
6	43980	28159.910454725801	0.691329807555
6	43985	28162.095023691471	0.57052946086
6	43995	28167.185125573601	1.860450590082
6	44000	28177.512110084705	0.929719338519
6	44035	28197.316920176553	0.847653899575
6	44067	28206.503610110652	0.975315371016
6	44072	28207.176175987624	1.059133935923
6	44085	28239.221653838723	0.897104981402
6	44165	28316.115839197586	0.595225983625
6	44182	28324.883113037266	0.99114126754
6	44205	28338.740227803082	0.514993954962
6	44210	28340.083450542536	0.607403820381
6	44215	28357.151565700539	0.628626535041
6	44230	28360.862336710812	1.46958021312
6	44252	28384.417161642862	0.432241104124
6	44255	28385.377571438308	1.191491525169
6	44267	28394.234781547957	2.18007872035
6	44275	28395.682396433567	0.667907727184
6	44289	28399.560046758986	2.679701862734
6	44297	28401.27685544609	2.137172964253
6	44300	28401.826535901538	2.772185625237
6	44310	28410.546850663539	0.880562915234
6	44340	28437.34435603139	0.942626388138
6	44365	28449.041286353838	2.469168794937
6	44375	28450.708161593641	1.25903242278
6	44392	28459.774606427645	2.329719439883
6	44397	28460.374863797987	0.833186345222
6	44405	28461.979888032519	1.517452195748
6	44425	28472.59263131748	0.413403540896
6	44430	28477.279719006675	0.959355333587
6	44455	28503.968819529745	0.918082539504
6	44460	28508.024385674023	0.955015481962
6	44480	28529.308029044195	0.937943007983
6	44540	28561.173034992915	0.696039645746
6	44562	28570.356983655914	0.637656607712
6	44565	28571.228663668911	0.98393768845
6	44575	28576.490492128916	0.85148533904
6	44580	28582.661631934322	0.506591433007
6	44627	28602.19354172612	2.520710834203
6	44630	28602.936688387277	1.148779756069
6	44652	28607.581626203762	0.480797541421
6	44662	28609.302197233833	1.321966008207
6	44665	28610.070945230512	2.924399618727
6	44677	28611.443707365828	0.713636767472
6	44710	28627.456362847031	2.138115247199
6	44730	28631.952825270318	1.015176271737
6	44735	28634.394730041511	0.545000281092
6	44770	28649.041002061791	0.751364209596
6	44790	28653.322914286766	2.293983827157
6	44797	28657.056052806657	0.871741481684
6	44800	28657.990389752956	1.197851457163
6	44835	28689.110979607873	0.442750753276
6	44852	28691.169116054206	1.107635550482
6	44857	28692.111504811617	2.503125348932
6	44900	28734.146268720304	0.762554730941
6	44927	28749.203961213676	1.44026511507
6	44950	28762.267975572341	0.961948713081
6	44965	28768.334594317335	0.61756936335
6	44980	28779.759663179153	2.419389096934
6	44985	28782.898436337178	0.548732704576
6	44995	28792.982802302181	0.538740306301
6	45000	28797.153363289877	0.778155990643
6	45005	28807.844893499715	0.884853333188
6	45100	28845.204718370236	0.699823842151
6	45110	28859.515237682461	0.52962814644
6	45125	28873.137287231461	0.42815212314
6	45135	28893.543982572808	0.800076391036
6	45149	28897.882952181095	1.184322806892
6	45152	28898.349507079212	1.266260264338
6	45164	28900.015989994623	3.91921170825
6	45181	28902.416071980253	1.246165902653
6	45237	28929.581949662305	0.966663730377
6	45250	28933.097702170498	0.515827852208
6	45260	28936.894258042739	0.667983413534
6	45275	28953.697591594785	2.16676875443
6	45305	28961.324699939744	0.775869638359
6	45320	28969.401285369545	0.836093440559
6	45325	28972.544218156758	0.563464766927
6	45335	28977.584387434011	2.09875201607
6	45342	28982.280189615819	0.876224539662
6	45352	28983.672989288024	0.901957666448
6	45355	28984.189065401866	0.934697573409
6	45375	29008.675647626921	1.862403573085
6	45380	29009.846291102497	0.639556830144
6	45410	29025.381804019901	2.978188349451
6	45415	29027.023759553138	0.699743307289
6	45450	29043.526637061294	1.118226895555
6	45462	29046.55616414052	0.983935795234
6	45484	29060.29744859028	0.9931495253
6	45497	29064.729595375249	0.64723389768
6	45500	29065.157235251928	0.455940683177
6	45515	29080.080453362251	0.644233787945
6	45522	29085.456297466929	0.512570879329
6	45530	29088.362644780109	0.640561647667
6	45540	29097.768787519808	0.736049242737
6	45545	29101.024215880275	0.419828829868
6	45550	29101.601047427062	0.417311185971
6	45555	29104.489802190189	0.850319367414
6	45582	29126.094548864605	0.920428653554
6	45590	29131.851329424134	0.947083135601
6	45595	29132.366052072986	0.506928639207
6	45605	29140.862726373529	0.601307984069
6	45610	29141.558940970436	0.551424234547
6	45620	29154.064764022346	0.400664149737
6	45635	29166.75318905446	1.971933894278
6	45672	29180.924135081273	0.838191097602
6	45675	29181.610250050331	0.77068909155
6	45690	29196.246569930128	0.616224049451
6	45695	29197.648430190274	0.467800258519
6	45709	29208.076659069199	0.595285272179
6	45725	29212.731409519407	1.55541954514
6	45730	29216.7094436528	0.499022686901
6	45760	29238.196032651278	1.38117122156
6	45797	29259.981447532386	0.679200226674
6	45812	29275.936389272632	0.412944998546
6	45824	29277.350058493456	1.263734649217
6	45827	29278.019986638306	2.234441819296
6	45842	29284.744309378838	1.447417021794
6	45855	29288.230300288186	1.949531456286
6	45865	29290.166650559935	0.511187217691
6	45875	29292.035729231188	0.489844578644
6	45897	29296.902207024676	0.99433212243
6	45905	29298.620076066156	0.424291409599
6	45960	29324.376005602116	4.1852624356
6	45976	29325.746191488286	0.601300887124
6	46000	29340.648333759173	0.612139566476
6	46007	29341.989743196157	0.990458745928
6	46017	29344.896879404607	0.656606757361
6	46025	29346.622293606215	0.45631970251
6	46030	29347.831935651224	0.473040262284
6	46035	29349.933334390744	0.823476654151
6	46050	29362.997918917805	0.726624896238
6	46117	29405.093686361333	0.77208563895
6	46140	29418.049250659335	1.172369603379
6	46170	29427.481272731945	0.615721318405
6	46180	29432.560659322502	0.48319102712
6	46210	29464.592676483233	0.906692300178
6	46245	29489.278776106188	0.623473793315
6	46257	29495.778296141489	0.973026040662
6	46260	29496.25655081172	0.841759914057
6	46282	29500.988576404765	0.922548150265
6	46290	29502.378809419196	0.759201249174
6	46295	29504.03846505322	0.908219575835
6	46357	29520.65763909255	4.820616894818
6	46389	29548.516830825706	1.058302054256
6	46397	29550.300558291276	1.161808929273
6	46410	29558.239374149696	0.401262183301
6	46420	29570.429902387678	0.777461966407
6	46432	29577.859657207928	0.598146334663
6	46435	29578.385368088824	0.943401014144
6	46470	29597.862380128076	0.961924128048
6	46490	29617.890494456134	0.965583679127
6	46530	29651.188841829968	1.019375906989
6	46552	29658.745606836073	0.406819658075
6	46634	29700.868238585833	0.529620533018
6	46667	29723.23306882374	0.453091141349
6	46680	29732.539301541397	0.973154884204
6	46705	29754.477142067879	0.513929539034
6	46730	29794.340926216708	2.504558814122
6	46750	29802.376790328425	3.358428630151
6	46765	29808.953924935431	1.393514521394
6	46794	29831.047141495223	1.63526955986
6	46805	29833.288009130505	2.713065325189
6	46840	29857.395934938498	0.816273966571
6	46845	29859.564931091731	0.568967807246
6	46855	29889.085332331554	0.72147923219
6	46870	29892.607418893672	1.410856581487
6	46927	29918.497147894972	2.342418116934
6	46932	29919.07706527472	1.246579109748
6	46961	29940.373483416108	1.619129287246
6	46964	29940.857286383906	2.221556615504
6	46995	29977.554760613389	0.62588225971
6	47020	29996.410741381329	0.778767229756

