version 2
run First_exit_5-9-20191114-11:42:25-8842
attr configname First_exit_5
attr datetime 20191114-11:42:25
attr experiment First_exit_5
attr inifile omnetpp.ini
attr iterationvars ""
attr iterationvarsf ""
attr measurement ""
attr network ResponseTimeNetwork
attr processid 8842
attr repetition 9
attr replication #9
attr resultdir results
attr runnumber 9
attr seedset 9
param **.Source.interArrivalTime exponential(4s)
param **.jobPriority bernoulli(0.4)
param **.PS.serviceTimeU1 "uniform(0.4s, 1.0s)"
param **.PS.serviceTimeU2 "uniform(1s, 1.2s)"
param **.SS1.serviceTime exponential(0.4s)
param **.SS2.serviceTime exponential(0.8s)
param **.PS.exitProbability bernoulli(0.5)

vector 0 ResponseTimeNetwork.QueueU2 queueLength:vector ETV
attr interpolationmode sample-hold
attr title "queue length, vector"
vector 1 ResponseTimeNetwork.QueueU1 queueLength:vector ETV
attr interpolationmode sample-hold
attr title "queue length, vector"
vector 2 ResponseTimeNetwork.sink lifeTimeU2:vector ETV
attr interpolationmode none
attr title "lifetime of arrived jobs U2, vector"
attr unit s
vector 3 ResponseTimeNetwork.sink totalServiceTimeU2:vector ETV
attr interpolationmode none
attr title "the total time spent  by arrived jobs U2, vector"
attr unit s
vector 4 ResponseTimeNetwork.sink lifeTime:vector ETV
attr interpolationmode none
attr title "lifetime of arrived jobs, vector"
attr unit s
vector 5 ResponseTimeNetwork.sink totalServiceTime:vector ETV
attr interpolationmode none
attr title "the total time spent  by arrived jobs, vector"
attr unit s
vector 6 ResponseTimeNetwork.sink lifeTimeU1:vector ETV
attr interpolationmode none
attr title "lifetime of arrived jobs U1, vector"
attr unit s
vector 7 ResponseTimeNetwork.sink totalServiceTimeU1:vector ETV
attr interpolationmode none
attr title "the total time spent  by arrived jobs U1, vector"
attr unit s
vector 8 ResponseTimeNetwork.SS2 queueLength:vector ETV
attr interpolationmode sample-hold
attr title "queue length, vector"
vector 9 ResponseTimeNetwork.SS1 queueLength:vector ETV
attr interpolationmode sample-hold
attr title "queue length, vector"
0	25160	10005.821114214179	1
0	25161	10006.294541325649	0
0	25200	10014.784901701042	1
0	25201	10015.076220199433	0
0	25210	10015.966079781847	1
0	25211	10015.991046599592	0
0	25240	10024.82428916361	1
0	25266	10029.283041593308	0
0	25315	10051.632276312633	1
0	25316	10051.684037561631	0
0	25320	10051.993827491091	1
0	25321	10052.406102195578	0
0	25355	10063.235809894706	1
0	25366	10064.636129095188	0
0	25375	10066.749096879849	1
0	25376	10066.822752323598	0
0	25385	10068.219362659415	1
0	25386	10068.685958736471	0
0	25390	10069.198251297021	1
0	25391	10069.61551012987	0
0	25395	10069.885550232936	1
0	25396	10070.051090627384	0
0	25400	10070.450985749466	1
0	25401	10070.931197634979	0
0	25405	10071.095505987195	1
0	25407	10071.165422194479	2
0	25408	10071.611744936869	1
0	25411	10072.066155463258	0
0	25495	10099.895441068094	1
0	25496	10100.487151936453	0
0	25599	10149.206986018452	1
0	25614	10150.910176706192	2
0	25633	10153.707822257339	1
0	25652	10156.492190201731	2
0	25653	10156.770148664073	1
0	25661	10158.181896918931	0
0	25740	10179.268379683364	1
0	25746	10180.698896411252	0
0	25755	10181.680715669272	1
0	25756	10182.205045171201	0
0	25760	10182.654664753124	1
0	25761	10182.908299756774	0
0	25795	10189.457721458611	1
0	25796	10189.773416736598	0
0	25810	10192.180430968364	1
0	25811	10192.996813882595	0
0	25825	10205.166210911101	1
0	25826	10205.179628814205	0
0	25850	10220.866757783716	1
0	25851	10221.170483047952	0
0	25860	10224.091875282492	1
0	25861	10224.374265926361	0
0	25900	10239.724644470165	1
0	25901	10240.137943342693	0
0	25970	10268.58101240894	1
0	25971	10269.307116316314	0
0	26025	10299.759604331274	1
0	26026	10300.25401490435	0
0	26030	10300.346985209994	1
0	26031	10301.004101537559	0
0	26055	10316.223055495753	1
0	26056	10316.538297403531	0
0	26085	10325.491400623206	1
0	26086	10325.946556538429	0
0	26105	10330.883609856346	1
0	26107	10331.020080816756	2
0	26113	10331.963573078944	1
0	26121	10333.417624114167	0
0	26205	10357.311469258034	1
0	26206	10357.644364802142	0
0	26220	10359.32858866855	1
0	26221	10359.575470153544	0
0	26280	10376.441209475283	1
0	26282	10376.992300659828	2
0	26283	10377.208838984791	1
0	26286	10378.146610416194	0
0	26290	10378.558748875482	1
0	26291	10378.87260371661	0
0	26330	10396.520140478512	1
0	26331	10396.636644388915	0
0	26340	10398.094263103495	1
0	26341	10398.134984342035	0
0	26345	10398.649671014921	1
0	26346	10399.048927254582	0
0	26350	10399.292530409963	1
0	26351	10399.958084220978	0
0	26355	10400.101788790413	1
0	26356	10400.795434140115	0
0	26370	10403.261139452875	1
0	26371	10403.811142634714	0
0	26400	10420.683924273773	1
0	26401	10420.719119231983	0
0	26460	10465.282985352171	1
0	26461	10465.966083970563	0
0	26475	10469.721346810732	1
0	26476	10469.783650265347	0
0	26480	10470.266067753404	1
0	26481	10470.693840346431	0
0	26505	10473.353361158467	1
0	26506	10473.858894295895	0
0	26660	10577.304132337893	1
0	26661	10577.956136395215	0
0	26780	10630.467451689261	1
0	26781	10630.769406447166	0
0	26795	10632.83061355746	1
0	26796	10632.948362640302	0
0	26820	10645.962035858661	1
0	26822	10646.118940785782	2
0	26823	10646.499562949683	1
0	26826	10646.991054781988	0
0	26895	10691.858024032433	1
0	26896	10692.649307065674	0
0	26905	10693.653355266089	1
0	26906	10693.825893790958	0
0	26935	10702.255142851905	1
0	26937	10702.366616569564	2
0	26938	10702.476288541972	1
0	26942	10702.555881637214	2
0	26943	10703.271393194429	1
0	26946	10703.811703781977	0
0	26955	10705.535034450561	1
0	26956	10705.840069051157	0
0	27020	10736.012842451786	1
0	27021	10736.677272799752	0
0	27030	10738.794955788656	1
0	27031	10739.422258912828	0
0	27040	10740.475973904889	1
0	27041	10741.182508234124	0
0	27045	10741.65486125907	1
0	27046	10741.775163875011	0
0	27055	10742.980099263484	1
0	27056	10743.357620265336	0
0	27105	10752.210868404222	1
0	27106	10752.462457807961	0
0	27110	10752.642230902765	1
0	27111	10753.157639292528	0
0	27180	10799.537782137215	1
0	27181	10799.716590614304	0
0	27190	10801.27960171104	1
0	27191	10801.390408329492	0
0	27197	10801.929550611668	1
0	27202	10802.363343019565	2
0	27203	10802.466119674885	1
0	27206	10803.126468754619	0
0	27210	10804.050685762893	1
0	27211	10804.076299221733	0
0	27215	10804.214719470389	1
0	27216	10804.750924673689	0
0	27235	10809.513486730944	1
0	27236	10809.539381224088	0
0	27245	10810.276088626643	1
0	27246	10811.002751762199	0
0	27250	10811.467432937394	1
0	27251	10811.831654291752	0
0	27255	10811.97852831679	1
0	27256	10812.321779600031	0
0	27260	10812.419638696666	1
0	27261	10813.20418890646	0
0	27275	10816.484600826516	1
0	27276	10816.503790782153	0
0	27335	10864.884819116306	1
0	27336	10865.307635374679	0
0	27445	10906.855002938384	1
0	27446	10906.942009012598	0
0	27450	10907.147061755465	1
0	27451	10907.741007144434	0
0	27552	10934.064554324231	1
0	27556	10935.243627144755	0
0	27565	10936.038775477204	1
0	27566	10936.163853232455	0
0	27582	10938.141630838748	1
0	27586	10939.1099374452	0
0	27640	10972.009751279888	1
0	27646	10973.70371175612	0
0	27655	10974.746168603606	1
0	27656	10975.057281690845	0
0	27692	10989.813682049263	1
0	27701	10991.555048446562	0
0	27710	10993.641630085998	1
0	27711	10993.753143125294	0
0	27765	11010.998612374895	1
0	27766	11011.466871121734	0
0	27770	11011.631669747174	1
0	27771	11012.196199110917	0
0	27775	11012.280420713648	1
0	27776	11012.636558659629	0
0	27790	11015.44831715862	1
0	27791	11015.792097994613	0
0	27795	11016.022912290094	1
0	27797	11016.390524666126	2
0	27798	11016.639840592744	1
0	27801	11017.113593770119	0
0	27815	11019.540026205321	1
0	27816	11019.862144840935	0
0	27862	11057.079000016727	1
0	27866	11057.92941012572	0
0	27882	11059.994298358146	1
0	27884	11060.48137659575	2
0	27888	11061.38607036861	1
0	27891	11062.385540841458	0
0	27895	11062.806296126018	1
0	27896	11063.042406421372	0
0	27915	11065.971951528248	1
0	27917	11066.308216395123	2
0	27918	11066.422620901999	1
0	27921	11066.876345897534	0
0	27925	11067.069686510987	1
0	27927	11067.074410361581	2
0	27929	11067.556647915136	3
0	27930	11067.810892802824	2
0	27933	11068.387345894773	1
0	27937	11069.054674829606	2
0	27938	11069.060334984653	1
0	27941	11069.726461134965	0
0	27950	11071.018271461544	1
0	27956	11072.171084838414	0
0	27960	11073.11737310681	1
0	27961	11073.152715987021	0
0	27970	11075.825045855273	1
0	27971	11076.786276216782	0
0	27980	11077.969054624818	1
0	27981	11078.538088888897	0
0	28045	11102.994188091211	1
0	28046	11103.327980073013	0
0	28055	11104.263704678252	1
0	28056	11104.993656013704	0
0	28065	11106.887217624302	1
0	28066	11107.620031964025	0
0	28090	11115.91084077719	1
0	28091	11116.751261973823	0
0	28099	11117.04340552738	1
0	28104	11117.317148673546	2
0	28109	11118.040976369953	3
0	28110	11118.317133510602	2
0	28119	11119.22291103854	3
0	28120	11119.695409310446	2
0	28123	11120.677535220864	1
0	28132	11121.582020530719	2
0	28133	11121.924276068131	1
0	28139	11122.021119827491	2
0	28144	11122.803895557504	3
0	28145	11123.561228725197	2
0	28153	11124.717296422296	1
0	28161	11125.898974341689	0
0	28167	11126.372194564274	1
0	28171	11127.709126110025	0
0	28179	11128.046070692484	1
0	28186	11129.865677194832	0
0	28260	11163.29140393386	1
0	28266	11164.53264918639	0
0	28410	11265.126602946902	1
0	28411	11265.850939995455	0
0	28430	11274.655148348968	1
0	28431	11274.681555322606	0
0	28455	11286.874641478245	1
0	28457	11287.146469454442	2
0	28458	11287.183275312914	1
0	28466	11288.497824474826	0
0	28470	11288.855821525073	1
0	28471	11289.221747966792	0
0	28475	11289.758408055377	1
0	28476	11289.984773249954	0
0	28510	11295.387987888362	1
0	28511	11295.818769958117	0
0	28560	11313.917340707222	1
0	28561	11314.254514208679	0
0	28580	11318.835508605432	1
0	28581	11319.043114503377	0
0	28585	11319.922906439709	1
0	28586	11319.976871862586	0
0	28590	11320.215329573439	1
0	28591	11320.668016202233	0
0	28670	11349.613400838894	1
0	28671	11349.810371532176	0
0	28675	11349.919462540279	1
0	28677	11350.589170446809	2
0	28678	11350.661048035581	1
0	28681	11351.387741987665	0
0	28685	11351.508952016528	1
0	28687	11351.842631876145	2
0	28688	11352.339416111658	1
0	28691	11353.03192113538	0
0	28710	11364.278638142747	1
0	28711	11364.448965960145	0
0	28780	11414.859115492597	1
0	28781	11415.152525551641	0
0	28790	11416.09604053778	1
0	28791	11416.677988674595	0
0	28800	11417.544565359062	1
0	28806	11418.986531639342	0
0	28825	11430.474597151908	1
0	28827	11431.071146386674	2
0	28828	11431.077523768211	1
0	28837	11431.706513337119	2
0	28838	11432.073376210809	1
0	28841	11432.821871425009	0
0	28855	11434.56620167636	1
0	28856	11435.118913884893	0
0	28875	11441.070016705668	1
0	28876	11441.212842797765	0
0	28880	11441.52366092281	1
0	28881	11441.812605410765	0
0	28885	11441.992490037477	1
0	28886	11442.685258768077	0
0	28890	11443.240689555509	1
0	28891	11443.357281168035	0
0	28900	11445.445996438765	1
0	28901	11446.169595455855	0
0	28915	11450.499075917231	1
0	28916	11450.831796022304	0
0	28929	11452.989321667121	1
0	28936	11454.308635719118	0
0	28970	11465.742167050884	1
0	28971	11466.255436080375	0
0	29052	11492.256393122653	1
0	29056	11493.127363920723	0
0	29100	11507.066679440238	1
0	29102	11507.284840915338	2
0	29113	11509.198909562999	1
0	29116	11510.190069943932	0
0	29125	11512.110230626004	1
0	29126	11512.332962845648	0
0	29160	11526.857166618654	1
0	29161	11527.169985893264	0
0	29170	11527.863462712118	1
0	29171	11528.478329187387	0
0	29180	11529.902226902729	1
0	29181	11530.146286111173	0
0	29242	11576.675411228999	1
0	29244	11577.345092652924	2
0	29253	11578.371349297471	1
0	29266	11580.679691005318	0
0	29277	11581.546712796128	1
0	29306	11586.583920640086	0
0	29340	11598.426236052767	1
0	29341	11598.469834059954	0
0	29360	11602.510120403089	1
0	29361	11602.920414931751	0
0	29365	11602.935826355249	1
0	29366	11603.505598803475	0
0	29380	11606.561789535143	1
0	29381	11606.567405133916	0
0	29385	11606.765797165858	1
0	29386	11607.136727081042	0
0	29497	11639.517052513135	1
0	29501	11640.456701235637	0
0	29585	11726.85662966866	1
0	29596	11728.906913678625	0
0	29670	11766.145426112062	1
0	29671	11766.970660304505	0
0	29725	11789.809080368098	1
0	29726	11790.040611122831	0
0	29770	11826.213232748642	1
0	29771	11826.367643338449	0
0	29795	11831.603371508628	1
0	29796	11832.19462771435	0
0	29815	11838.508871651404	1
0	29816	11838.811380896926	0
0	29865	11862.811520843732	1
0	29866	11863.242329149379	0
0	29885	11871.518751317815	1
0	29886	11871.938854082707	0
0	29990	11916.435657122692	1
0	29991	11917.375051265354	0
0	30000	11918.672310005711	1
0	30001	11919.069075025389	0
0	30045	11936.788006403609	1
0	30046	11937.000504807698	0
0	30080	11972.400144796092	1
0	30086	11973.430954199598	0
0	30102	11975.080389019081	1
0	30106	11975.981879000812	0
0	30122	11977.470351555621	1
0	30126	11978.566304819453	0
0	30130	11979.387746242869	1
0	30131	11979.41639348532	0
0	30165	11997.635106134086	1
0	30166	11998.324448712109	0
0	30185	12004.755535623939	1
0	30186	12005.112456681687	0
0	30205	12008.696853658521	1
0	30206	12009.218028504903	0
0	30210	12009.43009027186	1
0	30211	12010.014566840407	0
0	30215	12010.284880126593	1
0	30216	12010.747811123252	0
0	30220	12010.906505321672	1
0	30221	12011.151111916442	0
0	30235	12025.460742694276	1
0	30241	12026.282830553529	0
0	30250	12027.525130036813	1
0	30251	12027.724061267564	0
0	30260	12028.40122360854	1
0	30261	12029.119276833089	0
0	30275	12031.756235019537	1
0	30276	12032.291884324184	0
0	30290	12037.617414894044	1
0	30291	12038.051442906632	0
0	30295	12038.444038794945	1
0	30296	12038.935936614404	0
0	30300	12039.403079783937	1
0	30301	12039.579598995297	0
0	30340	12061.158168702533	1
0	30341	12061.237018577633	0
0	30350	12063.369974418657	1
0	30351	12063.653688996673	0
0	30355	12063.850567667388	1
0	30356	12064.38629744413	0
0	30360	12064.847437940991	1
0	30361	12064.859724468381	0
0	30370	12066.472513134824	1
0	30371	12066.838130542223	0
0	30390	12075.32972803797	1
0	30391	12075.829522862549	0
0	30395	12076.053148453578	1
0	30402	12076.420227291506	2
0	30403	12077.113622546134	1
0	30406	12077.536350590394	0
0	30410	12077.661369954025	1
0	30412	12078.017041658053	2
0	30413	12078.180552220469	1
0	30416	12078.720951728554	0
0	30420	12079.285548507378	1
0	30421	12079.596535002052	0
0	30425	12079.862427087449	1
0	30426	12080.422397631298	0
0	30435	12081.420197258397	1
0	30436	12081.929554946146	0
0	30440	12082.076108533881	1
0	30441	12082.813431509196	0
0	30450	12083.895178164879	1
0	30452	12083.959601721942	2
0	30453	12084.342901580377	1
0	30457	12085.01612732152	2
0	30458	12085.331562850081	1
0	30462	12085.929470971096	2
0	30463	12086.311633319749	1
0	30467	12086.822884594501	2
0	30468	12086.966105323719	1
0	30471	12087.69509753889	0
0	30500	12096.131941189385	1
0	30501	12096.797465327895	0
0	30505	12096.819033528449	1
0	30506	12097.636745261541	0
0	30515	12098.707881270647	1
0	30516	12099.193854207872	0
0	30570	12119.978712797768	1
0	30571	12120.151773740567	0
0	30585	12122.256667433105	1
0	30586	12122.655929233837	0
0	30600	12124.573799543225	1
0	30601	12124.811604167873	0
0	30605	12125.083311154115	1
0	30606	12125.539105888994	0
0	30610	12125.787741184629	1
0	30611	12126.263956333816	0
0	30622	12126.975291809872	1
0	30627	12127.700120993843	2
0	30628	12127.972149105346	1
0	30637	12129.102003633401	2
0	30638	12129.372529031452	1
0	30641	12129.852322759921	0
0	30655	12131.827680715354	1
0	30656	12132.060728290042	0
0	30662	12132.799156089811	1
0	30666	12133.873279982915	0
0	30680	12135.968623748228	1
0	30682	12136.101423087115	2
0	30683	12136.497545636682	1
0	30686	12137.133421648763	0
0	30715	12145.611726431805	1
0	30716	12146.05347147427	0
0	30727	12147.368007862122	1
0	30731	12148.380456936426	0
0	30735	12149.01494861681	1
0	30736	12149.288125164222	0
0	30775	12170.281032458492	1
0	30776	12171.034419907005	0
0	30810	12175.202146304057	1
0	30811	12175.496538138569	0
0	30840	12189.609220468204	1
0	30841	12189.891175271444	0
0	30850	12190.619327227586	1
0	30851	12191.310011967983	0
0	30865	12205.548070848598	1
0	30866	12205.754039746635	0
0	30895	12211.439987535994	1
0	30897	12212.108390611129	2
0	30899	12212.129920531623	3
0	30900	12212.214405390817	2
0	30908	12213.487796220799	1
0	30911	12214.320541975471	0
0	30915	12214.86536478727	1
0	30916	12214.980785204061	0
0	30927	12216.46476352928	1
0	30932	12217.386678857017	2
0	30933	12217.712842104502	1
0	30942	12218.949720056205	2
0	30943	12219.621903855132	1
0	30946	12220.613789696351	0
0	30960	12227.737849919594	1
0	30966	12228.930032964688	0
0	30970	12229.393537649234	1
0	30971	12229.486256323833	0
0	30980	12230.648711755615	1
0	30981	12231.048744928122	0
0	30990	12232.682853765267	1
0	30991	12233.177948739305	0
0	31045	12253.200918867061	1
0	31046	12253.669184025468	0
0	31060	12255.330113045207	1
0	31061	12256.003575078068	0
0	31070	12258.247034811546	1
0	31071	12258.391351632149	0
0	31075	12258.550468516483	1
0	31076	12259.224859617538	0
0	31100	12268.66888801952	1
0	31101	12268.984384559543	0
0	31110	12270.097382633807	1
0	31111	12270.617654476108	0
0	31115	12271.086077567091	1
0	31116	12271.339510884302	0
0	31135	12273.642927559413	1
0	31147	12275.172612215995	2
0	31153	12276.001759420221	1
0	31156	12276.997829557794	0
0	31165	12277.645227547744	1
0	31167	12277.901254992387	2
0	31168	12278.391814982637	1
0	31171	12278.880936472236	0
0	31215	12290.634509465301	1
0	31216	12291.112567789062	0
0	31235	12299.625552837412	1
0	31236	12299.797836826947	0
0	31250	12301.530883841642	1
0	31251	12301.945633243416	0
0	31300	12317.611122417914	1
0	31301	12317.781161273124	0
0	31400	12371.961872415149	1
0	31402	12372.360209486975	2
0	31403	12372.516133776453	1
0	31406	12373.046806339181	0
0	31450	12384.980630907197	1
0	31451	12385.215954706509	0
0	31485	12397.655461851171	1
0	31486	12397.937346048693	0
0	31490	12398.359119780021	1
0	31491	12398.433367489691	0
0	31520	12417.950955487785	1
0	31522	12417.961856330359	2
0	31523	12418.366916831344	1
0	31526	12418.937716091139	0
0	31600	12453.590633398015	1
0	31601	12454.167329059319	0
0	31605	12454.265752884658	1
0	31612	12455.441964341886	2
0	31613	12455.495949147699	1
0	31616	12456.426900358742	0
0	31625	12456.970044679382	1
0	31626	12457.643287548062	0
0	31640	12459.862639906165	1
0	31646	12460.66454070302	0
0	31657	12461.487364077621	1
0	31659	12461.661628739963	2
0	31661	12461.736271948321	3
0	31670	12463.103120473151	2
0	31678	12464.819365293284	1
0	31686	12466.216034100468	0
0	31690	12466.719366944247	1
0	31691	12467.096497246747	0
0	31700	12468.595918335432	1
0	31709	12468.89564666916	2
0	31714	12469.399300334975	3
0	31715	12469.966943391723	2
0	31718	12470.386461632264	1
0	31722	12470.906074810972	2
0	31723	12471.30542047893	1
0	31727	12471.891616161346	2
0	31728	12472.218996827382	1
0	31731	12473.020881021426	0
0	31745	12485.469392174402	1
0	31746	12485.815736905628	0
0	31752	12486.194167126596	1
0	31756	12487.151198356322	0
0	31760	12487.988554234357	1
0	31766	12488.472869710487	0
0	31810	12503.565941298002	1
0	31811	12504.261601275849	0
0	31820	12505.612645328951	1
0	31821	12505.751459997031	0
0	31830	12506.804372571695	1
0	31831	12507.235009123266	0
0	31870	12519.213002567769	1
0	31871	12519.320270959602	0
0	31930	12554.462755779747	1
0	31931	12554.633612676096	0
0	31935	12554.822161692672	1
0	31936	12555.326844000389	0
0	32010	12588.928591486681	1
0	32011	12589.192248769734	0
0	32015	12589.329925515862	1
0	32017	12589.413376028812	2
0	32018	12589.859881220829	1
0	32021	12590.714992740775	0
0	32025	12590.722041605092	1
0	32026	12591.412227463887	0
0	32030	12591.771238952036	1
0	32032	12591.777101787623	2
0	32033	12591.993362836844	1
0	32037	12592.276197440486	2
0	32038	12592.569222560457	1
0	32041	12593.384478336598	0
0	32050	12595.07979214445	1
0	32051	12595.136743089235	0
0	32055	12595.666692902824	1
0	32056	12595.954021380893	0
0	32080	12617.670158962023	1
0	32081	12617.917285805726	0
0	32085	12618.125988413304	1
0	32086	12618.462126468001	0
0	32110	12632.025319783851	1
0	32111	12632.078424724302	0
0	32130	12637.88445692313	1
0	32131	12638.229323111119	0
0	32170	12652.921453977843	1
0	32171	12653.362250553871	0
0	32265	12709.793043145851	1
0	32266	12710.006542811327	0
0	32295	12716.086473352107	1
0	32296	12716.840652292463	0
0	32335	12732.601149692159	1
0	32336	12732.905580502929	0
0	32365	12740.232735427382	1
0	32366	12740.726721857624	0
0	32380	12749.165603075408	1
0	32381	12749.216726922036	0
0	32385	12749.386020421039	1
0	32386	12749.915749317898	0
0	32390	12750.2240011537	1
0	32391	12750.50425709535	0
0	32395	12751.049761901768	1
0	32396	12751.381153304433	0
0	32430	12772.855613737763	1
0	32431	12773.133684992328	0
0	32455	12784.658671495	1
0	32456	12784.88484571582	0
0	32515	12821.466196940542	1
0	32516	12822.014537446386	0
0	32530	12823.778611091976	1
0	32546	12826.412409899016	0
0	32560	12830.013482926092	1
0	32561	12830.730030659802	0
0	32575	12833.379090196308	1
0	32576	12834.06194514534	0
0	32610	12853.445586963388	1
0	32611	12853.890792285803	0
0	32620	12854.591858194647	1
0	32621	12855.262684851495	0
0	32625	12855.476713916602	1
0	32632	12855.926337896161	2
0	32633	12856.725690236997	1
0	32636	12857.704570877349	0
0	32640	12857.81409852834	1
0	32641	12858.591678807542	0
0	32655	12861.799100648309	1
0	32656	12862.129385214653	0
0	32660	12862.400699673849	1
0	32661	12862.547735274797	0
0	32680	12869.190719574954	1
0	32681	12869.719528151449	0
0	32690	12870.849704235705	1
0	32691	12871.17987819878	0
0	32720	12881.548892045769	1
0	32721	12882.42084818127	0
0	32725	12882.826539211183	1
0	32726	12883.136474560698	0
0	32735	12884.946205295069	1
0	32736	12885.329621839554	0
0	32745	12887.322463356875	1
0	32746	12888.042567774383	0
0	32755	12889.515779183063	1
0	32756	12889.653469224795	0
0	32760	12889.682930014081	1
0	32761	12890.538456950904	0
0	32765	12890.572947517893	1
0	32766	12891.324790765074	0
0	32785	12897.618387405307	1
0	32787	12897.777804162543	2
0	32788	12898.260032414468	1
0	32792	12898.550150116415	2
0	32793	12899.254109923039	1
0	32796	12899.987519581393	0
0	32800	12900.151064535571	1
0	32802	12900.271328177697	2
0	32803	12900.542905459051	1
0	32807	12901.2331214795	2
0	32808	12901.318037759989	1
0	32812	12901.607494722442	2
0	32813	12902.133759542426	1
0	32817	12902.338412124245	2
0	32819	12902.733088749341	3
0	32825	12903.621709236235	2
0	32833	12905.190923892206	1
0	32854	12907.627458271007	2
0	32858	12908.495152117324	1
0	32862	12908.501902042584	2
0	32863	12909.426840485738	1
0	32867	12909.747030498977	2
0	32868	12909.833494322666	1
0	32872	12909.921547507339	2
0	32873	12910.381649625872	1
0	32877	12910.797658365272	2
0	32878	12911.222701358202	1
0	32882	12911.387652402865	2
0	32883	12911.682617631846	1
0	32887	12911.801391166291	2
0	32888	12912.583831412404	1
0	32892	12912.705726164909	2
0	32898	12913.974308205129	1
0	32902	12914.709924836613	2
0	32903	12914.78006558345	1
0	32907	12915.073254085624	2
0	32908	12915.577634680563	1
0	32919	12917.033657198487	2
0	32921	12917.318972160311	3
0	32925	12918.006330508705	2
0	32928	12918.549440179452	1
0	32936	12920.408499830462	0
0	33010	12942.435001463194	1
0	33011	12942.81470515721	0
0	33015	12942.906837681143	1
0	33016	12943.371559858345	0
0	33030	12946.845621425086	1
0	33031	12946.901491580685	0
0	33070	12960.530983809633	1
0	33071	12961.369558681789	0
0	33075	12961.461599339896	1
0	33081	12963.092224178891	0
0	33090	12964.206633928811	1
0	33091	12964.431341935191	0
0	33135	13005.823861824779	1
0	33136	13006.22379664246	0
0	33190	13034.605892821127	1
0	33191	13034.851389811062	0
0	33210	13039.176996780302	1
0	33211	13039.499023951597	0
0	33225	13041.080058240551	1
0	33226	13041.770536549669	0
0	33230	13041.945690256523	1
0	33242	13043.319074713378	2
0	33243	13044.023767254222	1
0	33252	13044.813891008387	2
0	33253	13044.994467826187	1
0	33256	13045.540924513805	0
0	33265	13047.075177047959	1
0	33266	13047.708213777035	0
0	33272	13048.117677391234	1
0	33276	13048.903320110063	0
0	33282	13049.531748424886	1
0	33286	13050.480389602841	0
0	33365	13099.201984876921	1
0	33366	13099.291065758181	0
0	33385	13103.745724037872	1
0	33386	13104.483257339812	0
0	33395	13105.293783808647	1
0	33396	13106.07109456543	0
0	33405	13106.781439356839	1
0	33406	13107.284925101056	0
0	33485	13135.835037720895	1
0	33486	13135.905682737171	0
0	33535	13163.811667954784	1
0	33536	13164.440929918999	0
0	33715	13257.256526560647	1
0	33716	13257.423749259135	0
0	33735	13260.415185077743	1
0	33737	13260.518660502122	2
0	33738	13260.772313432636	1
0	33742	13260.867429024927	2
0	33743	13261.521602363892	1
0	33749	13262.348831873506	2
0	33754	13262.619248274713	3
0	33755	13263.432132658044	2
0	33763	13264.381868443133	1
0	33766	13264.911811466662	0
0	33785	13272.502994773399	1
0	33786	13272.649867351347	0
0	33790	13272.803207488358	1
0	33792	13272.851701405132	2
0	33793	13273.52299641589	1
0	33796	13274.050471034034	0
0	33855	13290.197774227072	1
0	33856	13290.326723276174	0
0	33885	13305.311112543142	1
0	33886	13305.853696398763	0
0	33895	13306.571161826789	1
0	33896	13306.989208185347	0
0	33905	13310.364154352544	1
0	33906	13310.842047269747	0
0	33915	13312.596688410596	1
0	33917	13312.659202040394	2
0	33918	13313.236458796767	1
0	33921	13313.897467964088	0
0	33925	13314.058777532237	1
0	33926	13314.333343436282	0
0	33937	13316.171026285929	1
0	33946	13317.987550443387	0
0	33955	13318.486207970676	1
0	33956	13319.16834848409	0
0	33965	13320.215265524306	1
0	33966	13320.626680379383	0
0	33990	13326.63907288585	1
0	33992	13327.042789483308	2
0	33993	13327.252255602844	1
0	33996	13327.69692154905	0
0	34000	13327.715042738377	1
0	34001	13328.631670659931	0
0	34030	13333.868417545909	1
0	34032	13333.930749025312	2
0	34033	13334.253740885822	1
0	34036	13334.984748238619	0
0	34060	13338.517330158941	1
0	34061	13339.36855268209	0
0	34170	13374.227267632196	1
0	34171	13374.48258718935	0
0	34180	13375.615169949007	1
0	34181	13375.699979000839	0
0	34190	13377.123645919916	1
0	34191	13377.44050949232	0
0	34310	13464.824680969607	1
0	34311	13465.516719681359	0
0	34350	13475.648063493522	1
0	34351	13475.685590030337	0
0	34355	13475.753552766527	1
0	34356	13476.354524731487	0
0	34370	13490.458873962382	1
0	34371	13490.603925768342	0
0	34375	13491.360131639508	1
0	34377	13491.470741167759	2
0	34378	13491.561874251869	1
0	34382	13491.573157399821	2
0	34383	13492.020515685119	1
0	34386	13492.440734684477	0
0	34390	13492.539273015706	1
0	34392	13492.565122077568	2
0	34393	13492.901185517768	1
0	34401	13494.366026034775	0
0	34405	13494.822219573257	1
0	34406	13495.222887048042	0
0	34410	13495.281738361291	1
0	34411	13495.649910769621	0
0	34425	13499.851308258653	1
0	34427	13499.997157842187	2
0	34428	13500.004234547927	1
0	34431	13500.58621820441	0
0	34440	13502.72974424368	1
0	34441	13502.968165445132	0
0	34475	13520.460041789266	1
0	34476	13521.147009543428	0
0	34480	13521.171438566521	1
0	34481	13522.143789909692	0
0	34520	13542.986201439643	1
0	34521	13543.224415091544	0
0	34580	13583.626496426616	1
0	34581	13584.275303085413	0
0	34600	13606.105957612161	1
0	34601	13606.312445588166	0
0	34615	13608.430134112226	1
0	34616	13609.109341023773	0
0	34635	13612.349282290593	1
0	34637	13612.389417617343	2
0	34638	13612.640318416654	1
0	34642	13612.935700141767	2
0	34643	13613.12790648722	1
0	34646	13613.619329554251	0
0	34650	13613.77111038556	1
0	34651	13614.182442105784	0
0	34660	13615.820259684051	1
0	34661	13616.230033740016	0
0	34710	13636.615517061677	1
0	34711	13636.733732544036	0
0	34770	13663.961532568346	1
0	34771	13664.614570906156	0
0	34785	13668.079622950426	1
0	34786	13668.562571673309	0
0	34790	13669.057974613158	1
0	34791	13669.085916969766	0
0	34795	13669.283756853398	1
0	34796	13669.772584538701	0
0	34805	13670.738685910684	1
0	34807	13670.855615510296	2
0	34808	13671.133027455797	1
0	34812	13671.427184291437	2
0	34813	13671.82541515816	1
0	34817	13672.331793516771	2
0	34818	13672.666494607069	1
0	34822	13673.363301959703	2
0	34823	13673.384421624318	1
0	34826	13673.801634067977	0
0	34835	13675.122574082028	1
0	34836	13675.475965981684	0
0	34845	13677.542192308532	1
0	34846	13677.655803098612	0
0	34865	13680.933281395895	1
0	34866	13681.545504000238	0
0	34875	13682.910591775189	1
0	34876	13683.460172249996	0
0	34920	13699.2829998954	1
0	34921	13699.495136935306	0
0	35025	13732.995309712484	1
0	35026	13733.411680599055	0
0	35105	13759.812515255249	1
0	35106	13760.165012691956	0
0	35110	13760.465229085558	1
0	35111	13760.880551458564	0
0	35150	13777.522981002593	1
0	35151	13777.80749693977	0
0	35210	13803.351815926545	1
0	35211	13803.82509353899	0
0	35240	13810.795779057164	1
0	35241	13811.24027754608	0
0	35265	13818.248700686694	1
0	35266	13818.649369712208	0
0	35285	13823.243377394629	1
0	35286	13823.374845384731	0
0	35300	13828.320115984921	1
0	35301	13828.530968888034	0
0	35340	13848.400713406496	1
0	35341	13848.917139131897	0
0	35400	13890.097079494051	1
0	35401	13890.709663627246	0
0	35410	13893.603776978746	1
0	35411	13893.963195342381	0
0	35425	13895.689826556998	1
0	35426	13896.173699304689	0
0	35430	13896.206996404955	1
0	35434	13897.007120705427	2
0	35438	13898.040474683227	1
0	35442	13898.309046776552	2
0	35448	13899.597426781937	1
0	35457	13901.225259877918	2
0	35458	13901.417452615633	1
0	35461	13902.262944516021	0
0	35525	13930.305413843384	1
0	35526	13930.690060794997	0
0	35555	13960.621483249563	1
0	35556	13960.998883875217	0
0	35565	13962.008838904376	1
0	35566	13962.28689490792	0
0	35630	13985.064119070936	1
0	35631	13985.179390864323	0
0	35640	13986.395264360148	1
0	35641	13986.691510855097	0
0	35675	13999.541717877588	1
0	35676	14000.303457640765	0
0	35700	14006.575957514499	1
0	35701	14006.928822325729	0
0	35730	14013.149372187402	1
0	35732	14013.279863600863	2
0	35751	14015.397823519986	3
0	35755	14016.26233281473	2
0	35764	14017.383439751171	3
0	35765	14017.548018466572	2
0	35773	14019.035024596408	1
0	35779	14019.417357109149	2
0	35783	14020.171434761241	1
0	35791	14021.570734592929	0
0	35795	14021.643307215754	1
0	35797	14021.859196701834	2
0	35798	14022.391734181933	1
0	35801	14023.101272724319	0
0	35830	14035.981099873065	1
0	35831	14036.203329314279	0
0	35840	14036.85780934873	1
0	35841	14037.578083218621	0
0	35857	14039.863351178048	1
0	35861	14040.927313931652	0
0	35875	14044.854766311507	1
0	35882	14045.754076132241	2
0	35883	14045.894205145462	1
0	35886	14046.543295818538	0
0	35970	14067.124748419849	1
0	35971	14067.131426669435	0
0	36005	14073.321812610374	1
0	36007	14073.739440551339	2
0	36008	14074.193236670156	1
0	36017	14075.203849068479	2
0	36019	14075.505839834453	3
0	36020	14075.566162124208	2
0	36028	14076.903354065611	1
0	36036	14078.464984409304	0
0	36070	14110.427145656497	1
0	36071	14110.696612111654	0
0	36075	14110.699857756687	1
0	36076	14111.469467769505	0
0	36090	14114.693055309747	1
0	36091	14115.492472199197	0
0	36095	14115.980508378477	1
0	36096	14116.094643927072	0
0	36100	14116.149826326225	1
0	36107	14116.691258021627	2
0	36108	14117.196204681447	1
0	36111	14118.063145388555	0
0	36150	14127.162236803458	1
0	36151	14127.43290048153	0
0	36160	14128.266142533627	1
0	36162	14128.778761615624	2
0	36163	14129.142259394741	1
0	36166	14129.977466843687	0
0	36180	14132.057937995806	1
0	36181	14132.517604550944	0
0	36200	14139.031339089398	1
0	36201	14139.259372355884	0
0	36225	14149.050683713106	1
0	36227	14149.391539597031	2
0	36228	14149.504325412183	1
0	36231	14150.276415245018	0
0	36325	14214.49533745152	1
0	36326	14214.986498779968	0
0	36335	14215.524595345168	1
0	36336	14216.122011012329	0
0	36360	14249.231048309979	1
0	36367	14250.483388486843	2
0	36368	14250.617048826456	1
0	36376	14251.623005159913	0
0	36384	14252.145013857974	1
0	36397	14253.742015811752	2
0	36398	14254.432110178532	1
0	36402	14254.465371393457	2
0	36403	14255.373323041402	1
0	36407	14255.572622513458	2
0	36408	14256.063961150559	1
0	36411	14256.833563400774	0
0	36495	14309.652271974842	1
0	36496	14309.775609425331	0
0	36500	14310.241351659463	1
0	36501	14310.546828291674	0
0	36510	14311.4091808168	1
0	36512	14311.619215548883	2
0	36513	14311.814559803122	1
0	36517	14311.983071202658	2
0	36518	14312.458131282973	1
0	36522	14312.689253437236	2
0	36523	14313.440568212011	1
0	36526	14314.116163748141	0
0	36530	14314.636950140313	1
0	36532	14314.672705035101	2
0	36533	14315.003579895023	1
0	36536	14315.659522478061	0
0	36550	14318.263733246157	1
0	36551	14318.981503347857	0
0	36575	14335.751721944738	1
0	36576	14335.857638387708	0
0	36590	14337.409590221544	1
0	36591	14338.073428365134	0
0	36615	14352.189845409866	1
0	36616	14352.608251501576	0
0	36625	14355.773474555422	1
0	36626	14356.479979927507	0
0	36715	14396.474634182533	1
0	36716	14396.66520292921	0
0	36815	14440.80035245641	1
0	36826	14442.601661860634	0
0	36830	14442.719091082809	1
0	36839	14443.807733255391	2
0	36844	14444.543733348091	3
0	36845	14444.66364806366	2
0	36853	14445.636025713355	1
0	36856	14446.360957747203	0
0	36862	14446.824086198079	1
0	36867	14447.134779179271	2
0	36868	14447.940743007203	1
0	36877	14448.904320262519	2
0	36878	14449.205004456844	1
0	36881	14449.703757114308	0
0	36895	14452.668134730587	1
0	36896	14452.832888941972	0
0	37025	14509.465730964908	1
0	37026	14509.485141416914	0
0	37050	14515.394256648538	1
0	37051	14515.66457086798	0
0	37055	14516.128744569266	1
0	37057	14516.147752214165	2
0	37058	14516.268725252349	1
0	37061	14516.88848663565	0
0	37115	14535.689020231566	1
0	37116	14536.070292939432	0
0	37125	14537.893882248456	1
0	37126	14538.35216843187	0
0	37215	14615.363731867083	1
0	37216	14616.333712310243	0
0	37220	14616.392496634536	1
0	37221	14616.794385955615	0
0	37225	14616.821001473038	1
0	37227	14617.248025445379	2
0	37228	14617.644092003528	1
0	37231	14618.590579862233	0
0	37235	14618.71464522012	1
0	37236	14619.005963808663	0
0	37242	14619.514492105245	1
0	37247	14619.939354715195	2
0	37248	14620.679710889134	1
0	37251	14621.138929448408	0
0	37305	14632.666719209682	1
0	37306	14633.622446406835	0
0	37310	14633.854807561467	1
0	37311	14634.096635624224	0
0	37320	14637.279532914998	1
0	37321	14637.322487059203	0
0	37325	14637.773415881506	1
0	37326	14638.064513133527	0
0	37330	14638.534441861464	1
0	37331	14638.826605523858	0
0	37335	14638.846163124419	1
0	37336	14639.56754869429	0
0	37345	14641.504883763398	1
0	37346	14641.661266204631	0
0	37355	14642.517955698929	1
0	37356	14642.822724053366	0
0	37470	14738.339326307506	1
0	37476	14739.790775121294	0
0	37480	14740.180839109911	1
0	37481	14740.402765913319	0
0	37485	14740.506994922305	1
0	37486	14741.069079963967	0
0	37495	14742.595492229952	1
0	37496	14742.722712344057	0
0	37567	14784.248651540864	1
0	37572	14784.761439124474	2
0	37573	14785.30407754401	1
0	37582	14786.264324101947	2
0	37583	14786.877685320417	1
0	37586	14787.814139947568	0
0	37590	14788.164455113293	1
0	37591	14788.230698823643	0
0	37595	14788.322250976924	1
0	37596	14788.68606661632	0
0	37600	14789.30873038449	1
0	37601	14789.543989608197	0
0	37610	14791.036503114431	1
0	37611	14791.226251435221	0
0	37700	14868.90391184963	1
0	37702	14868.954505855164	2
0	37703	14869.039924509224	1
0	37706	14869.941558083432	0
0	37755	14884.697631630257	1
0	37756	14885.143657298227	0
0	37825	14924.944105525421	1
0	37826	14925.132201241611	0
0	37845	14928.325846046273	1
0	37846	14928.775369557144	0
0	37865	14931.680708590799	1
0	37866	14932.10884723411	0
0	37895	14942.238185714005	1
0	37896	14942.934447048234	0
0	37920	14949.239310680464	1
0	37921	14949.780041232036	0
0	37960	14971.84828649151	1
0	37961	14972.335020892357	0
0	37985	14982.092363005827	1
0	37986	14982.150435777659	0
0	37990	14982.19928907142	1
0	37991	14982.731696134432	0
0	38000	14984.94600440261	1
0	38001	14985.125034791767	0
0	38040	15003.173013558832	1
0	38041	15003.565685456021	0
0	38070	15014.155254336756	1
0	38071	15014.590458580808	0
0	38115	15046.030348649595	1
0	38117	15046.162349223338	2
0	38118	15046.499191460443	1
0	38121	15047.21738759434	0
0	38125	15047.610252310832	1
0	38127	15047.661717597239	2
0	38128	15047.898600306466	1
0	38131	15048.85037353892	0
0	38205	15092.29335300226	1
0	38206	15092.592286622614	0
0	38210	15092.975197275005	1
0	38211	15093.435334392308	0
0	38325	15175.102735689865	1
0	38326	15175.209379506809	0
0	38380	15233.124715519496	1
0	38381	15233.550971496398	0
0	38390	15234.373917141549	1
0	38391	15234.598513135793	0
0	38415	15240.671775340135	1
0	38417	15240.752583324022	2
0	38418	15241.01700978275	1
0	38427	15242.065043890026	2
0	38428	15242.665768374322	1
0	38431	15243.13454102106	0
0	38490	15279.541084499788	1
0	38491	15280.041444343588	0
0	38545	15319.744975254054	1
0	38546	15319.764797466344	0
0	38555	15324.211907330423	1
0	38556	15324.690140546929	0
0	38570	15326.248418056938	1
0	38571	15326.875795940201	0
0	38575	15327.055390390208	1
0	38576	15327.686649462425	0
0	38580	15327.797711311351	1
0	38581	15328.283877637547	0
0	38600	15334.270925494616	1
0	38601	15334.646446814698	0
0	38615	15341.48802408561	1
0	38616	15341.508618801007	0
0	38625	15343.503476031529	1
0	38626	15344.315503117878	0
0	38630	15344.866772203188	1
0	38631	15345.220083470566	0
0	38635	15345.247648696693	1
0	38637	15345.471936254349	2
0	38638	15345.790120775549	1
0	38641	15346.198342394939	0
0	38650	15347.216094726601	1
0	38651	15347.631232827391	0
0	38655	15347.78624387596	1
0	38656	15348.119595661854	0
0	38660	15348.556441321868	1
0	38661	15349.059812309967	0
0	38670	15350.537696587441	1
0	38671	15351.103891689082	0
0	38675	15351.127832501155	1
0	38681	15352.441323249259	0
0	38690	15355.831267935146	1
0	38691	15356.131499967761	0
0	38720	15366.955377242224	1
0	38721	15367.444211107436	0
0	38727	15367.748898161864	1
0	38731	15368.791916942866	0
0	38747	15370.908002594223	1
0	38751	15371.864762541811	0
0	38757	15372.122409518289	1
0	38761	15373.102496759613	0
0	38850	15425.022370498218	1
0	38851	15425.885900673568	0
0	38870	15428.841323546805	1
0	38871	15428.861918946996	0
0	38940	15478.730516876277	1
0	38941	15479.593540836345	0
0	38945	15479.917551806253	1
0	38946	15480.331072249483	0
0	38960	15488.383380642284	1
0	38962	15488.631777034478	2
0	38963	15488.924652054661	1
0	38971	15490.558976473228	0
0	39000	15496.078639292986	1
0	39002	15496.296552572755	2
0	39003	15496.463157790368	1
0	39006	15497.379607927966	0
0	39035	15502.387988882336	1
0	39036	15502.887739198541	0
0	39130	15531.378469625667	1
0	39146	15533.817262706792	0
0	39180	15543.677275771129	1
0	39181	15543.835323831796	0
0	39255	15596.618478215312	1
0	39259	15596.817364511118	2
0	39263	15598.192016073614	1
0	39271	15599.439331382717	0
0	39280	15600.059069336889	1
0	39281	15600.805535847497	0
0	39285	15601.155944440433	1
0	39286	15601.40806368458	0
0	39315	15611.304598290325	1
0	39316	15611.635959741316	0
0	39400	15651.919869445665	1
0	39401	15652.325631529521	0
0	39440	15690.017953353861	1
0	39441	15690.338989002837	0
0	39485	15714.972304227941	1
0	39486	15715.268893146303	0
0	39490	15715.29542172735	1
0	39491	15716.26146260842	0
0	39495	15717.045189761137	1
0	39497	15717.061083261819	2
0	39498	15717.212853668418	1
0	39502	15717.86831894945	2
0	39503	15718.063985542881	1
0	39506	15718.690312704791	0
0	39510	15718.760006067977	1
0	39512	15719.545967728828	2
0	39513	15719.581733144841	1
0	39517	15720.21710758983	2
0	39518	15720.296288301817	1
0	39521	15721.259392963092	0
0	39525	15721.342924651991	1
0	39526	15721.846404658699	0
0	39535	15722.952708474233	1
0	39537	15722.963827518472	2
0	39539	15723.377649955804	3
0	39541	15723.71192226256	4
0	39542	15723.913669102333	3
0	39546	15724.019199285597	4
0	39547	15724.608243567097	3
0	39551	15724.804589452126	4
0	39553	15725.251272829468	5
0	39554	15725.561932630624	4
0	39558	15725.945906925452	5
0	39560	15726.217022916418	6
0	39561	15726.220261079512	5
0	39565	15726.806453189411	6
0	39566	15726.841394365925	5
0	39570	15726.942419825371	6
0	39571	15727.641528573652	5
0	39574	15728.1223011004	4
0	39578	15728.327190270834	5
0	39579	15728.760712947204	4
0	39582	15729.367171473588	3
0	39586	15729.74697462679	4
0	39587	15729.939535251512	3
0	39590	15730.928091304443	2
0	39593	15731.586717209472	1
0	39597	15731.747313577166	2
0	39598	15732.068456667402	1
0	39602	15732.32920896891	2
0	39603	15732.828368782784	1
0	39607	15732.899263992948	2
0	39608	15733.601819043626	1
0	39611	15734.048404461025	0
0	39630	15739.874102993912	1
0	39631	15739.904780682579	0
0	39670	15753.972833864831	1
0	39671	15754.018931096756	0
0	39685	15755.929104958677	1
0	39686	15756.581797646416	0
0	39715	15774.617202708869	1
0	39721	15775.547748159837	0
0	39775	15803.959436541655	1
0	39776	15804.170763469908	0
0	39815	15817.835177003261	1
0	39816	15817.893062232456	0
0	39835	15826.038589638031	1
0	39836	15826.514336535388	0
0	39860	15830.963844728574	1
0	39861	15831.857240287371	0
0	39920	15855.025775264579	1
0	39921	15855.90437303378	0
0	39940	15859.173252178146	1
0	39941	15859.356670728251	0
0	39965	15867.392399553211	1
0	39966	15867.857844271637	0
0	39975	15868.633839918802	1
0	39976	15869.049368882037	0
0	39990	15870.914345083971	1
0	39991	15871.034072255989	0
0	40010	15872.982988328839	1
0	40011	15873.296817719104	0
0	40015	15873.584558046495	1
0	40016	15874.047449973557	0
0	40030	15877.355700535509	1
0	40031	15877.529171227312	0
0	40055	15891.213681581944	1
0	40056	15891.410593429956	0
0	40060	15891.591309417384	1
0	40061	15892.250176196176	0
0	40145	15963.822576052963	1
0	40146	15964.243302268909	0
0	40185	15977.726704097903	1
0	40186	15977.873761819389	0
0	40200	15993.953643207887	1
0	40201	15994.196191338948	0
0	40295	16036.152986590398	1
0	40296	16036.558400375609	0
0	40305	16038.080475884376	1
0	40306	16038.282173237092	0
0	40315	16039.103934992135	1
0	40316	16039.656385686276	0
0	40325	16040.505317078992	1
0	40326	16040.928251536963	0
0	40370	16056.01023940083	1
0	40376	16057.185066548727	0
0	40400	16065.392073073859	1
0	40401	16065.843718358215	0
0	40412	16066.755552237932	1
0	40421	16069.017032438417	0
0	40435	16071.177096241638	1
0	40436	16071.322891583299	0
0	40535	16126.06963017494	1
0	40536	16126.224996130792	0
0	40540	16126.342579388153	1
0	40541	16127.068901270274	0
0	40555	16135.372914076868	1
0	40556	16135.760583800109	0
0	40580	16140.588280313095	1
0	40581	16140.798563708421	0
0	40585	16141.025340346232	1
0	40586	16141.768737636237	0
0	40630	16160.190427924039	1
0	40631	16160.667360720341	0
0	40650	16163.337704578614	1
0	40651	16163.475673029117	0
0	40660	16164.626040212067	1
0	40661	16164.984063266462	0
0	40685	16176.976677695349	1
0	40692	16177.981657012089	2
0	40693	16178.282517754372	1
0	40701	16180.040557939179	0
0	40710	16181.312993902356	1
0	40712	16181.423102276324	2
0	40719	16181.889179756964	3
0	40735	16184.930429566643	2
0	40738	16185.359321928062	1
0	40747	16186.757497220282	2
0	40748	16186.930564303734	1
0	40751	16187.334772429979	0
0	40755	16187.540190318551	1
0	40757	16187.663002878515	2
0	40758	16188.299158072928	1
0	40761	16188.743645303408	0
0	40765	16188.774627065741	1
0	40766	16189.454146832871	0
0	40785	16202.012797077357	1
0	40786	16202.463003201537	0
0	40825	16237.470567110973	1
0	40826	16237.788593440573	0
0	40840	16242.036774674028	1
0	40841	16242.274458136528	0
0	40845	16242.336426064517	1
0	40846	16243.154801119563	0
0	40850	16243.24654342836	1
0	40851	16243.730584108948	0
0	40860	16244.895262707898	1
0	40862	16245.235091400673	2
0	40863	16245.367404475406	1
0	40866	16246.346197411854	0
0	40870	16246.784444379429	1
0	40871	16247.137372746289	0
0	40875	16247.539828429475	1
0	40876	16247.706370929832	0
0	40925	16260.68003968052	1
0	40926	16261.071539284563	0
0	40945	16268.645318759255	1
0	40946	16268.645652288099	0
0	40950	16269.022275586389	1
0	40951	16269.074235127906	0
0	41015	16301.984748778293	1
0	41016	16302.380271988631	0
0	41020	16303.074950077209	1
0	41021	16303.371821396881	0
0	41025	16303.71356562254	1
0	41026	16303.98015403076	0
0	41030	16304.085707332868	1
0	41032	16304.401372096516	2
0	41033	16304.701673482674	1
0	41036	16305.253420520796	0
0	41045	16307.170399743404	1
0	41046	16307.532768364754	0
0	41067	16315.683133872646	1
0	41076	16317.888762977117	0
0	41082	16317.97693556517	1
0	41086	16319.838972859879	0
0	41145	16336.288679716689	1
0	41146	16336.585496011251	0
0	41155	16338.318510716814	1
0	41156	16339.090377965636	0
0	41160	16339.652522877944	1
0	41161	16339.655241934975	0
0	41325	16417.671982951565	1
0	41326	16418.505734192121	0
0	41335	16419.61290016078	1
0	41336	16420.037823534671	0
0	41355	16423.722301831301	1
0	41356	16423.997896850519	0
0	41375	16427.486808563443	1
0	41376	16427.510541410957	0
0	41385	16428.884765584922	1
0	41386	16429.705129286889	0
0	41425	16441.956040236418	1
0	41426	16442.477966113939	0
0	41445	16446.560908839856	1
0	41446	16446.923560506972	0
0	41490	16476.691662701859	1
0	41491	16476.97366020514	0
0	41505	16482.114365092023	1
0	41506	16482.153272589601	0
0	41565	16508.438599065025	1
0	41569	16508.790557481898	2
0	41571	16509.022529282373	3
0	41585	16511.337872406326	2
0	41591	16511.809506467534	3
0	41596	16512.463519967971	4
0	41597	16512.843945667146	3
0	41610	16514.378944316551	2
0	41618	16515.510500426402	1
0	41621	16516.145227149499	0
0	41630	16517.625070123744	1
0	41631	16517.765205670192	0
0	41635	16518.499395728494	1
0	41636	16518.666351546996	0
0	41645	16519.551965293521	1
0	41646	16519.851524946324	0
0	41655	16521.089439902506	1
0	41656	16521.331689456941	0
0	41695	16548.204346806285	1
0	41696	16548.411902889261	0
0	41725	16553.984796377879	1
0	41732	16554.598355994833	2
0	41733	16554.937359453228	1
0	41736	16555.471112009839	0
0	41755	16558.24863161354	1
0	41756	16558.437454001235	0
0	41775	16564.237581233405	1
0	41776	16564.252217792179	0
0	41795	16568.292556386514	1
0	41796	16568.541413093427	0
0	41800	16568.912490203627	1
0	41801	16568.961305133462	0
0	41835	16579.88655886633	1
0	41837	16579.924227271527	2
0	41838	16580.213704011105	1
0	41841	16581.184615157759	0
0	41845	16581.292702083492	1
0	41846	16581.897465640567	0
0	41875	16588.964217760028	1
0	41876	16588.967166697967	0
0	41940	16600.429920844654	1
0	41941	16600.832873065961	0
0	41955	16602.491428666916	1
0	41961	16603.403173439604	0
0	41967	16603.848744301037	1
0	41971	16604.735474444673	0
0	41980	16605.383983388641	1
0	41981	16605.782651359092	0
0	41990	16606.462234590123	1
0	41991	16607.059840618333	0
0	41995	16607.168433927364	1
0	42001	16608.871580096965	0
0	42005	16608.909768157068	1
0	42011	16610.231109162679	0
0	42017	16610.416446460225	1
0	42022	16611.336440887694	2
0	42023	16611.940679529475	1
0	42031	16613.000924675984	0
0	42105	16663.105661582059	1
0	42106	16663.12869394663	0
0	42190	16725.733625712813	1
0	42192	16725.925471605202	2
0	42194	16726.09987072514	3
0	42195	16726.318677148412	2
0	42198	16727.003509550498	1
0	42202	16727.382817265344	2
0	42204	16727.421100232609	3
0	42205	16727.50346217966	2
0	42208	16727.963676874762	1
0	42212	16728.178864580719	2
0	42214	16728.368460268002	3
0	42215	16728.939895448371	2
0	42218	16729.465362282054	1
0	42221	16730.409374196831	0
0	42262	16744.725777895623	1
0	42267	16745.040478096925	2
0	42268	16745.723198877343	1
0	42282	16747.422146580948	2
0	42283	16747.986195387573	1
0	42286	16748.507917071248	0
0	42295	16749.876588563462	1
0	42296	16750.466522756794	0
0	42315	16752.974687370352	1
0	42316	16753.242783211234	0
0	42320	16753.773589400046	1
0	42321	16753.775634126241	0
0	42325	16754.082833115525	1
0	42326	16754.303911065046	0
0	42340	16756.605744540594	1
0	42341	16756.75369922972	0
0	42345	16756.863016789831	1
0	42351	16757.872248584839	0
0	42395	16768.427037622323	1
0	42396	16768.958603082236	0
0	42465	16803.27732856376	1
0	42469	16803.957829564529	2
0	42478	16805.336445691531	1
0	42481	16806.000320371568	0
0	42490	16806.907400050885	1
0	42491	16807.62745921587	0
0	42505	16809.297545659845	1
0	42507	16809.657478899248	2
0	42508	16809.877419499824	1
0	42516	16811.101678422051	0
0	42580	16845.485552544829	1
0	42581	16845.614284946992	0
0	42605	16850.64451038728	1
0	42606	16851.211877156122	0
0	42610	16851.496358991294	1
0	42611	16851.612622088267	0
0	42615	16851.742518923334	1
0	42616	16852.268583721834	0
0	42705	16902.621549047093	1
0	42706	16902.722617080352	0
0	42725	16908.334800413796	1
0	42726	16909.113114811732	0
0	42735	16910.281177848948	1
0	42737	16910.404036627982	2
0	42738	16910.563488698143	1
0	42742	16911.208252400234	2
0	42743	16911.548696083107	1
0	42746	16912.20092529305	0
0	42750	16912.297594918223	1
0	42752	16912.684523781878	2
0	42753	16913.154152144908	1
0	42756	16913.983680281553	0
0	42760	16914.482112346981	1
0	42761	16914.840704268355	0
0	42772	16916.20200401131	1
0	42776	16916.96342853286	0
0	42785	16918.128688145112	1
0	42786	16918.764803871233	0
0	42805	16922.026378661591	1
0	42806	16922.276763545982	0
0	42830	16925.650227276897	1
0	42831	16926.135150052154	0
0	42840	16926.924345976453	1
0	42842	16927.312003350867	2
0	42843	16927.649883647329	1
0	42846	16928.343689165097	0
0	42870	16936.684482193106	1
0	42871	16937.337220650266	0
0	42875	16937.701945178697	1
0	42876	16938.178661825654	0
0	42930	16961.432728342772	1
0	42931	16961.517888236681	0
0	42975	16975.52862022577	1
0	42976	16976.349794638426	0
0	43032	17010.271628120493	1
0	43059	17013.736846034784	2
0	43063	17014.87168782205	1
0	43071	17015.821385168709	0
0	43085	17025.520917184893	1
0	43086	17025.674155164304	0
0	43092	17026.128801616886	1
0	43096	17027.234427766808	0
0	43105	17029.426745000113	1
0	43106	17029.809521680051	0
0	43112	17030.450294755143	1
0	43116	17031.562282980099	0
0	43122	17032.014893806194	1
0	43126	17032.71133231605	0
0	43130	17032.822940723613	1
0	43131	17033.667270890582	0
0	43230	17074.263401501555	1
0	43231	17074.512098330259	0
0	43235	17075.173521241123	1
0	43236	17075.176070657931	0
0	43295	17104.580087545991	1
0	43296	17105.051397151905	0
0	43335	17129.367870907472	1
0	43336	17129.394615563772	0
0	43440	17200.990108049932	1
0	43441	17201.366188057666	0
0	43455	17206.384152636482	1
0	43456	17206.586656574574	0
0	43470	17212.697470088677	1
0	43486	17215.555175203343	0
0	43495	17218.079854358412	1
0	43496	17218.720715815599	0
0	43530	17225.615495587379	1
0	43531	17225.859637783903	0
0	43610	17260.280794891912	1
0	43611	17260.495480781551	0
0	43675	17286.859178643635	1
0	43676	17286.867749844389	0
0	43680	17287.03902523548	1
0	43681	17287.282880348749	0
0	43685	17287.786061288378	1
0	43686	17288.12569583076	0
0	43695	17289.770942629444	1
0	43696	17290.671796154885	0
0	43715	17296.312647711889	1
0	43716	17296.352959432726	0
0	43725	17298.730229664956	1
0	43726	17299.355312813996	0
0	43730	17299.88174493377	1
0	43731	17300.098664469822	0
0	43760	17317.892028573662	1
0	43761	17318.396580027414	0
0	43785	17326.208285193601	1
0	43786	17326.36025549152	0
0	43797	17327.690079519931	1
0	43801	17328.720510554233	0
0	43820	17332.570813764313	1
0	43821	17332.900010965256	0
0	43825	17332.942314780091	1
0	43826	17333.795372436479	0
0	43830	17334.010467515528	1
0	43831	17334.377285111513	0
0	43850	17341.081894099375	1
0	43851	17341.664493544171	0
0	43885	17349.497199439027	1
0	43886	17349.527374983051	0
0	43895	17351.155062899163	1
0	43896	17351.164861073795	0
0	43970	17373.867139835342	1
0	43971	17373.926398985661	0
0	44060	17413.745871912018	1
0	44061	17414.1160402752	0
0	44110	17431.177455437821	1
0	44111	17431.228465902138	0
0	44150	17440.25634719661	1
0	44161	17442.994652462627	0
0	44225	17463.778438488896	1
0	44232	17464.495005537927	2
0	44233	17464.533783720358	1
0	44241	17465.865355451656	0
0	44247	17466.712969280066	1
0	44251	17467.398759487755	0
0	44255	17467.442818202389	1
0	44261	17468.61626437271	0
0	44265	17469.307455286292	1
0	44272	17469.717539370696	2
0	44273	17470.392359164655	1
0	44276	17470.804050329532	0
0	44280	17471.042765525864	1
0	44281	17471.480972533319	0
0	44365	17536.179483893235	1
0	44367	17536.747663290453	2
0	44368	17537.013344310167	1
0	44372	17537.151237528042	2
0	44373	17537.653406986211	1
0	44379	17537.857148065589	2
0	44383	17539.052612971178	1
0	44391	17540.157566477301	0
0	44410	17544.60109334788	1
0	44411	17544.690509746619	0
0	44440	17567.067327893929	1
0	44441	17567.480693446138	0
0	44460	17570.650781188398	1
0	44461	17570.863357833332	0
0	44485	17574.455092593005	1
0	44486	17574.909106119778	0
0	44500	17578.871556023784	1
0	44501	17579.136414599908	0
0	44505	17579.562550440531	1
0	44506	17579.800017305627	0
0	44510	17580.151554583285	1
0	44511	17580.653299470875	0
0	44586	17619.9232228877	1
0	44619	17625.090921105783	2
0	44628	17626.925950130254	1
0	44631	17627.88406963492	0
0	44635	17628.108232709791	1
0	44636	17628.682409125326	0
0	44640	17628.982109594476	1
0	44641	17629.373539158881	0
0	44645	17629.629958005044	1
0	44646	17630.0056930473	0
0	44680	17649.787455071549	1
0	44681	17650.442596682779	0
0	44700	17668.06660706804	1
0	44701	17668.633941474548	0
0	44715	17671.404675954711	1
0	44716	17671.655469513581	0
0	44725	17672.511302824006	1
0	44727	17673.156740532857	2
0	44728	17673.376639105416	1
0	44732	17673.906960096658	2
0	44733	17674.050567679237	1
0	44736	17674.885813687173	0
0	44745	17676.420295070312	1
0	44746	17676.841281961482	0
0	44775	17686.257907535252	1
0	44776	17686.758541495576	0
0	44865	17701.974628085515	1
0	44866	17702.47913841859	0
0	44910	17726.036293839762	1
0	44911	17726.590237906309	0
0	44922	17727.350664165062	1
0	44929	17728.522078785057	2
0	44961	17733.594771772225	3
0	44965	17734.400739250814	2
0	44968	17735.145115042075	1
0	44971	17735.997069755539	0
0	44995	17746.460939414297	1
0	44996	17746.489514092856	0
0	45000	17746.489791240057	1
0	45001	17747.050541904556	0
0	45035	17761.733015386927	1
0	45036	17762.346610233488	0
0	45055	17765.607576543864	1
0	45056	17766.354955485311	0
0	45115	17809.755789663595	1
0	45116	17809.848925643677	0
0	45130	17812.46074114928	1
0	45131	17812.663947257257	0
0	45140	17813.663109271156	1
0	45141	17814.063330889804	0
0	45145	17814.168328282269	1
0	45146	17814.961870738756	0
0	45150	17815.237584091847	1
0	45151	17815.512864884999	0
0	45182	17821.254952802401	1
0	45184	17821.435419063482	2
0	45189	17821.942431691024	3
0	45190	17822.745315372307	2
0	45193	17823.492919174178	1
0	45196	17824.317991678991	0
0	45205	17824.927234855785	1
0	45206	17825.425181082569	0
0	45220	17827.538526294418	1
0	45231	17830.17923294141	0
0	45312	17850.059883070405	1
0	45322	17851.16818581694	2
0	45323	17851.68651508801	1
0	45326	17852.103167245028	0
0	45370	17891.828556001331	1
0	45371	17891.975350739423	0
0	45385	17894.994958832014	1
0	45386	17895.659186344351	0
0	45420	17904.258782071249	1
0	45421	17905.046066793897	0
0	45425	17905.084066850586	1
0	45426	17905.661877564671	0
0	45450	17914.801746597463	1
0	45451	17915.021629582423	0
0	45480	17933.304288032782	1
0	45481	17934.174350400126	0
0	45545	17970.183851441417	1
0	45546	17970.280680725705	0
0	45565	17974.708025328982	1
0	45566	17974.967639847276	0
0	45685	18048.009831713274	1
0	45686	18048.482300549669	0
0	45710	18051.679588790418	1
0	45711	18052.392592605282	0
0	45800	18112.875517355047	1
0	45801	18112.966822684552	0
0	45840	18139.560281613025	1
0	45841	18139.997031699555	0
0	45845	18140.19713081166	1
0	45846	18140.944264561651	0
0	45860	18143.537782826542	1
0	45861	18143.585576575311	0
0	45925	18176.956422461793	1
0	45927	18177.527166052281	2
0	45928	18177.539100226553	1
0	45936	18178.982105853527	0
0	45950	18181.996356244427	1
0	45951	18182.62454716836	0
0	45955	18183.054946939222	1
0	45956	18183.156458614235	0
0	45960	18183.643952887979	1
0	45961	18183.654132969612	0
0	45970	18184.451383106984	1
0	45971	18185.204114611009	0
0	45975	18185.524285111708	1
0	45976	18185.968946213862	0
0	45980	18186.144485064867	1
0	45986	18187.341045467211	0
0	46015	18199.098664816492	1
0	46021	18200.481328294194	0
0	46045	18209.758062436438	1
0	46047	18210.020475752539	2
0	46048	18210.0333156807	1
0	46051	18210.898782546644	0
0	46060	18211.543745912959	1
0	46062	18211.997844114347	2
0	46063	18212.142198609176	1
0	46066	18213.028629864274	0
0	46080	18215.908060602042	1
0	46082	18216.274712810175	2
0	46084	18216.472750074897	3
0	46085	18216.569430041328	2
0	46088	18217.084201254478	1
0	46091	18218.071728439551	0
0	46095	18218.183710082494	1
0	46096	18218.892401024668	0
0	46110	18222.056387658976	1
0	46112	18222.176439838515	2
0	46118	18223.352852460705	1
0	46121	18223.87504060288	0
0	46130	18225.986028932735	1
0	46131	18226.55414797802	0
0	46140	18227.798840308972	1
0	46141	18228.479244620965	0
0	46180	18241.191749702486	1
0	46181	18241.374822986125	0
0	46197	18243.63046363634	1
0	46199	18243.957153453827	2
0	46203	18245.136424979082	1
0	46206	18245.798141144289	0
0	46225	18258.773981965949	1
0	46226	18259.278230541439	0
0	46265	18272.133949696691	1
0	46266	18272.465849491202	0
0	46285	18297.087540018682	1
0	46286	18297.77079350555	0
0	46300	18302.73791546074	1
0	46301	18303.142775586805	0
0	46320	18306.648947839958	1
0	46321	18307.551275825462	0
0	46330	18309.114590454483	1
0	46331	18309.263038767612	0
0	46375	18324.55770359098	1
0	46376	18325.232973408508	0
0	46382	18325.895876885699	1
0	46386	18326.946438983869	0
0	46410	18334.195815897861	1
0	46411	18334.619667116727	0
0	46420	18335.791751468083	1
0	46421	18336.031511016364	0
0	46480	18369.340126834819	1
0	46482	18369.558801413396	2
0	46483	18369.832929895073	1
0	46487	18369.967712702361	2
0	46493	18370.9529571746	1
0	46496	18371.384753858483	0
0	46505	18372.350316858886	1
0	46511	18373.629962689178	0
0	46575	18391.964883880213	1
0	46581	18393.664075125475	0
0	46615	18411.189905279823	1
0	46616	18411.552793021647	0
0	46625	18413.434935725949	1
0	46626	18414.227635746427	0
0	46635	18417.254061021215	1
0	46636	18417.315275546885	0
0	46640	18417.402197323811	1
0	46641	18418.184937237692	0
0	46645	18418.473835590734	1
0	46646	18419.009896667697	0
0	46675	18432.017440865079	1
0	46676	18432.124626351692	0
0	46687	18433.598619925114	1
0	46691	18434.156445623832	0
0	46702	18435.489256040521	1
0	46711	18437.194000208416	0
0	46724	18437.766388806707	1
0	46726	18438.636379245973	2
0	46738	18440.789342540075	1
0	46741	18441.253492136943	0
0	46745	18441.765718414763	1
0	46746	18441.7757774047	0
0	46780	18480.855297156954	1
0	46781	18481.49065698873	0
0	46872	18525.241243642437	1
0	46874	18525.40868691133	2
0	46878	18526.351556870032	1
0	46882	18526.518948207413	2
0	46883	18526.75874724767	1
0	46892	18527.482413716504	2
0	46893	18527.859178976731	1
0	46896	18528.452357511891	0
0	46950	18561.756409451991	1
0	46951	18562.11891725442	0
0	46960	18563.512949138486	1
0	46962	18563.815166279529	2
0	46963	18564.115968520373	1
0	46967	18564.57333440644	2
0	46968	18564.684800680766	1
0	46972	18564.845137854872	2
0	46973	18565.520051973911	1
0	46976	18565.97557501117	0
0	46980	18566.157977217847	1
0	46986	18567.121025491359	0
0	46992	18567.570180472509	1
0	46994	18567.633901925426	2
0	47008	18570.082254618353	1
0	47011	18570.738047849427	0
0	47039	18576.516206585768	1
0	47046	18578.326764265833	0
0	47070	18585.381600905471	1
0	47071	18585.50285624389	0
0	47115	18611.357482861547	1
0	47116	18611.539243057851	0
0	47165	18630.027691419515	1
0	47166	18630.729503454837	0
0	47222	18669.302969483309	1
0	47231	18670.83426578709	0
0	47240	18672.25584068015	1
0	47241	18672.441145295101	0
0	47250	18673.183576082692	1
0	47251	18673.608428572082	0
0	47260	18674.737970701459	1
0	47261	18675.223453084463	0
0	47280	18683.237658612407	1
0	47281	18683.39334431376	0
0	47345	18712.828745340401	1
0	47346	18713.032992824977	0
0	47375	18720.767031466773	1
0	47391	18722.784446397494	0
0	47445	18753.944147863976	1
0	47446	18754.105861338701	0
0	47545	18789.316467828855	1
0	47546	18790.084730986292	0
0	47562	18791.789828059104	1
0	47566	18793.157982813633	0
0	47570	18793.521014812705	1
0	47571	18794.034459731421	0
0	47592	18817.563249881712	1
0	47596	18818.540555683696	0
0	47665	18843.496892948895	1
0	47666	18844.298108779411	0
0	47780	18922.238833318334	1
0	47781	18922.424952122447	0
0	47815	18935.194420593342	1
0	47817	18935.85684545236	2
0	47818	18935.965547107021	1
0	47827	18936.726653669528	2
0	47828	18936.817873746157	1
0	47836	18938.338492701343	0
0	47860	18949.45596239265	1
0	47861	18949.693447291478	0
0	47900	18962.784299535647	1
0	47901	18963.189301243504	0
0	47950	18990.859580619295	1
0	47951	18991.391406922324	0
0	47990	19008.239322456737	1
0	47991	19008.37006237652	0
0	47995	19008.484902371214	1
0	47996	19009.208261297651	0
0	48040	19030.844438348041	1
0	48042	19030.915954872565	2
0	48043	19031.489977271339	1
0	48046	19032.157281273786	0
0	48050	19032.58841948148	1
0	48052	19033.041554768324	2
0	48053	19033.082468798334	1
0	48056	19034.011674644841	0
0	48070	19036.233838649797	1
0	48072	19036.325117673431	2
0	48073	19036.867396558316	1
0	48076	19037.440799267551	0
0	48080	19037.886518505556	1
0	48081	19037.984688931106	0
0	48120	19049.628084357076	1
0	48121	19049.7278680936	0
0	48130	19051.092508784123	1
0	48131	19051.285668656745	0
0	48145	19054.982478999745	1
0	48146	19055.363093236906	0
0	48150	19055.399113590717	1
0	48151	19056.075342271223	0
0	48160	19058.490936004309	1
0	48161	19058.826574457763	0
0	48165	19059.500730370361	1
0	48166	19059.529126474867	0
0	48170	19059.881507927468	1
0	48171	19060.285978822317	0
0	48220	19072.389031375291	1
0	48221	19072.48908210523	0
0	48240	19082.681897183546	1
0	48241	19082.836738202413	0
0	48272	19091.183309404955	1
0	48277	19091.975048627707	2
0	48278	19092.207434904084	1
0	48294	19094.215532461582	2
0	48314	19097.231014193752	3
0	48320	19098.755976528184	2
0	48323	19099.589097090693	1
0	48327	19099.604632387051	2
0	48328	19099.991207290277	1
0	48332	19100.305762798661	2
0	48333	19100.477214913605	1
0	48337	19100.616022662741	2
0	48338	19101.178665474313	1
0	48341	19101.609111357643	0
0	48355	19103.264405351814	1
0	48356	19103.749433175722	0
0	48410	19144.479098913498	1
0	48411	19145.090427045027	0
0	48455	19156.052665158097	1
0	48456	19156.224294754547	0
0	48485	19175.019403902414	1
0	48486	19175.025297762404	0
0	48500	19184.919782136955	1
0	48501	19185.219198768963	0
0	48520	19210.104456022404	1
0	48521	19210.40251579023	0
0	48650	19283.487776441339	1
0	48651	19284.061493459078	0
0	48660	19285.682973138632	1
0	48661	19285.942428704923	0
0	48670	19286.453864810737	1
0	48671	19286.977203711275	0
0	48690	19315.463909720143	1
0	48691	19315.764853858327	0
0	48695	19315.965461751577	1
0	48696	19316.250732578322	0
0	48705	19317.72193691741	1
0	48706	19317.856724912265	0
0	48745	19347.847689872769	1
0	48746	19348.200902006492	0
0	48760	19349.708103148807	1
0	48761	19350.53918847833	0
0	48765	19350.828466284919	1
0	48766	19351.051916593361	0
0	48800	19358.293944487713	1
0	48801	19358.78576968452	0
0	48805	19359.20318353472	1
0	48806	19359.741578643676	0
0	48845	19371.61010714813	1
0	48846	19371.976792570605	0
0	48850	19372.417182277236	1
0	48856	19373.385731277318	0
0	48910	19395.540924359303	1
0	48911	19395.829173133397	0
0	48925	19397.66123359394	1
0	48926	19398.536115001147	0
0	48970	19416.432691676914	1
0	48971	19416.949585044763	0
0	48995	19442.545371017921	1
0	48996	19442.577360786023	0
0	49005	19443.306087096171	1
0	49006	19444.108504023068	0
0	49020	19446.64006980681	1
0	49021	19447.125619961718	0
0	49030	19448.476159475531	1
0	49031	19448.733140988111	0
0	49112	19516.750277788458	1
0	49116	19518.035351550597	0
0	49120	19518.221980849756	1
0	49121	19518.475891655981	0
0	49127	19518.768103852156	1
0	49131	19519.5964074908	0
0	49145	19520.925738875312	1
0	49147	19521.100377366098	2
0	49148	19521.322794451302	1
0	49156	19522.612483356258	0
0	49260	19575.094883440923	1
0	49262	19575.330722343657	2
0	49263	19575.387961798661	1
0	49266	19575.822866638644	0
0	49272	19575.963640990646	1
0	49276	19576.815541484008	0
0	49305	19602.869982839364	1
0	49306	19603.602648610772	0
0	49315	19604.186579741298	1
0	49316	19604.864104270014	0
0	49367	19622.401760829646	1
0	49371	19623.844795376284	0
0	49425	19641.828205180883	1
0	49426	19642.382773294436	0
0	49435	19643.457822262717	1
0	49436	19643.932417118692	0
0	49440	19644.174112798524	1
0	49441	19644.80712706745	0
0	49460	19650.513650341355	1
0	49461	19650.524120429223	0
0	49500	19672.560292615007	1
0	49501	19672.920578715351	0
0	49525	19701.717846251159	1
0	49526	19702.293112322567	0
0	49535	19703.822672136746	1
0	49536	19703.860735329585	0
0	49615	19739.40922540206	1
0	49616	19739.490639244273	0
0	49630	19741.189561786874	1
0	49632	19741.561555417335	2
0	49633	19741.60789523176	1
0	49636	19742.338338437491	0
0	49745	19768.615896262683	1
0	49746	19768.799219792926	0
0	49755	19770.383930618977	1
0	49756	19770.520627970822	0
0	49765	19771.557611333492	1
0	49766	19772.37778737146	0
0	49852	19830.82496816567	1
0	49859	19831.157058216461	2
0	49868	19832.718699102103	1
0	49886	19836.459595609781	0
0	49892	19837.095118708701	1
0	49896	19837.89839694104	0
0	49900	19837.901834729217	1
0	49901	19838.77201475771	0
0	49925	19845.735131870991	1
0	49926	19846.028447493408	0
0	49930	19846.584351395343	1
0	49931	19846.630920906514	0
0	49935	19846.970798187311	1
0	49937	19847.125317316684	2
0	49938	19847.182088238103	1
0	49942	19847.224869898527	2
0	49943	19847.795493526021	1
0	49947	19847.815883412578	2
0	49948	19848.49345339356	1
0	49951	19848.981503653862	0
0	49960	19852.388639052136	1
0	49961	19853.12971468799	0
0	49972	19854.891279413507	1
0	49976	19856.295953490462	0
0	49980	19856.656670462393	1
0	49981	19857.102645373035	0
0	50005	19872.52872315197	1
0	50006	19873.180969670366	0
0	50015	19874.149205955784	1
0	50017	19874.199093960846	2
0	50018	19874.820417817959	1
0	50026	19875.911329414228	0
0	50030	19875.961638940836	1
0	50037	19876.896293615809	2
0	50038	19877.090921542419	1
0	50046	19878.401316817522	0
0	50065	19895.638889438513	1
0	50066	19896.187057432544	0
0	50095	19900.844914239685	1
0	50096	19901.433403198493	0
0	50155	19913.593951452439	1
0	50156	19914.126848373711	0
0	50175	19918.615735419985	1
0	50182	19919.761638554425	2
0	50184	19920.032460890244	3
0	50185	19920.279667296591	2
0	50196	19921.385079072175	3
0	50205	19922.890568642323	2
0	50213	19924.443960887664	1
0	50216	19925.009035046916	0
0	50240	19942.669709241778	1
0	50241	19942.962745382865	0
0	50255	19944.778255517034	1
0	50257	19944.876450391507	2
0	50259	19945.112808510625	3
0	50260	19945.438481577522	2
0	50263	19945.92373349293	1
0	50266	19946.630572558463	0
0	50320	19973.313238151719	1
0	50322	19973.543548966846	2
0	50328	19974.56164169672	1
0	50331	19975.338845190937	0
0	50335	19975.766823198166	1
0	50336	19976.171003023554	0
0	50340	19976.232009364371	1
0	50342	19976.240855619334	2
0	50343	19976.778417038005	1
0	50346	19977.24748653613	0
0	50350	19977.615151415905	1
0	50351	19977.809927458754	0
0	50390	19995.563725203655	1
0	50391	19995.813607344637	0
0	50420	20023.873812439812	1
0	50421	20024.393031647532	0
0	50505	20075.465267744066	1
0	50506	20075.781269923136	0
0	50519	20077.557048445312	1
0	50524	20077.799836942124	2
0	50528	20079.345292480665	1
0	50537	20080.357492739489	2
0	50539	20080.372648679599	3
0	50540	20080.961672049484	2
0	50543	20081.826554190789	1
0	50546	20082.266069858291	0
0	50550	20082.412069817649	1
0	50552	20082.425345480381	2
0	50553	20082.693504889079	1
0	50557	20083.185153726398	2
0	50558	20083.486838563301	1
0	50562	20083.675489824167	2
0	50564	20084.233920569786	3
0	50565	20084.26498623267	2
0	50568	20084.799297007687	1
0	50571	20085.573023689167	0
0	50575	20086.115004647599	1
0	50577	20086.352903660261	2
0	50578	20086.493705956406	1
0	50582	20087.192318070229	2
0	50583	20087.43352152696	1
0	50586	20087.88867637585	0
0	50590	20088.513772693636	1
0	50591	20088.767558075488	0
0	50595	20089.337268034429	1
0	50596	20089.697488064925	0
0	50600	20090.293006767695	1
0	50601	20090.431871863316	0
0	50605	20090.486991898481	1
0	50606	20090.960618560017	0
0	50650	20114.213485876558	1
0	50651	20114.38476691293	0
0	50680	20128.789107728219	1
0	50681	20129.153091725442	0
0	50685	20129.257883641679	1
0	50686	20129.666687119068	0
0	50697	20130.501297578498	1
0	50701	20131.88732259289	0
0	50745	20160.783425763047	1
0	50746	20161.308394182066	0
0	50820	20191.578103218065	1
0	50822	20192.092377895901	2
0	50823	20192.212503061644	1
0	50826	20193.005603807946	0
0	50890	20217.253026536662	1
0	50891	20217.574806571884	0
0	50940	20238.44070535332	1
0	50946	20239.851275426325	0
0	50955	20241.23518952338	1
0	50956	20242.131917538168	0
0	51075	20332.551879910031	1
0	51076	20332.564491819034	0
0	51090	20334.681067958393	1
0	51091	20334.822903132208	0
0	51170	20375.80628064373	1
0	51171	20376.095280629029	0
0	51190	20380.221657113519	1
0	51191	20380.813139420477	0
0	51220	20386.007999832911	1
0	51221	20386.434749415	0
0	51225	20386.568226104449	1
0	51226	20387.213184422716	0
0	51255	20399.096440812153	1
0	51256	20399.479849181832	0
0	51280	20418.979649318982	1
0	51281	20419.700330717855	0
0	51285	20419.830670220864	1
0	51291	20420.738985862111	0
0	51365	20458.027265426308	1
0	51366	20458.443761972526	0
0	51372	20458.98237022121	1
0	51376	20459.641631339865	0
0	51390	20461.534576492373	1
0	51391	20461.619424293213	0
0	51410	20474.094646996917	1
0	51411	20474.282251904693	0
0	51490	20519.073059927146	1
0	51491	20519.207581092587	0
0	51500	20520.229677095925	1
0	51501	20520.603581496124	0
0	51520	20525.79202474914	1
0	51521	20526.257828037504	0
0	51570	20570.502369565717	1
0	51571	20570.860335029545	0
0	51587	20576.825414882036	1
0	51591	20577.815730209526	0
0	51595	20577.827235058926	1
0	51596	20578.796817420394	0
0	51675	20644.376487799735	1
0	51676	20644.842551945658	0
0	51685	20646.705900246039	1
0	51686	20647.565517110507	0
0	51725	20666.171886043037	1
0	51726	20666.458446705979	0
0	51735	20667.270467239561	1
0	51736	20667.683921980238	0
0	51790	20690.68656522407	1
0	51791	20691.10613889198	0
0	51865	20728.870400067954	1
0	51866	20729.261195504094	0
0	51915	20750.244226459121	1
0	51916	20750.837863955458	0
0	51930	20756.506842317886	1
0	51931	20756.654125090402	0
0	51940	20758.678856706727	1
0	51941	20758.913163044201	0
0	51950	20761.760513981334	1
0	51951	20762.272935734625	0
0	51960	20764.134935474703	1
0	51961	20764.421238461352	0
0	51975	20768.396935720932	1
0	51977	20768.480505978073	2
0	51978	20769.24269001541	1
0	51981	20769.658595618105	0
0	52000	20773.7303819831	1
0	52001	20773.855747285101	0
0	52115	20820.482144685552	1
0	52116	20820.696332962587	0
0	52140	20825.512620757934	1
0	52146	20826.735248582545	0
0	52150	20827.074676950447	1
0	52151	20827.698438994042	0
0	52160	20829.36155855129	1
0	52161	20829.951712423873	0
0	52175	20832.773372909104	1
0	52176	20832.977805939368	0
0	52210	20841.884639254223	1
0	52211	20841.929739306316	0
0	52225	20844.119757458853	1
0	52226	20844.306756175534	0
0	52295	20872.295575477359	1
0	52296	20872.52473540652	0
0	52300	20872.576349271055	1
0	52301	20873.135979624245	0
0	52310	20874.563824884102	1
0	52311	20874.80806929707	0
0	52315	20875.244982740167	1
0	52316	20875.250130625679	0
0	52365	20894.431189562097	1
0	52371	20895.551950306962	0
0	52395	20899.524612225987	1
0	52396	20900.490632343889	0
0	52447	20944.719567138391	1
0	52461	20947.730262422947	0
0	52470	20948.787880413309	1
0	52471	20949.639149840468	0
0	52490	20954.101451872785	1
0	52491	20954.818443480769	0
0	52580	20997.502729994698	1
0	52581	20997.776836146041	0
0	52705	21086.884393702428	1
0	52706	21086.887965203865	0
0	52720	21091.910513312738	1
0	52721	21092.190642621838	0
0	52725	21092.43176384469	1
0	52727	21092.511557179562	2
0	52728	21092.761147853271	1
0	52731	21093.641077209501	0
0	52735	21094.10530512523	1
0	52736	21094.324946841322	0
0	52755	21097.731064646749	1
0	52756	21098.443787605013	0
0	52760	21099.073544865113	1
0	52766	21100.189801372565	0
0	52795	21113.382412741313	1
0	52796	21114.064591633869	0
0	52820	21123.693112814952	1
0	52821	21124.232481450002	0
0	52830	21125.377485722194	1
0	52831	21125.963850710188	0
0	52840	21126.641274479626	1
0	52841	21127.491988292868	0
0	52855	21129.211288404224	1
0	52856	21129.666117318219	0
0	52910	21144.064549971428	1
0	52911	21144.204240482399	0
0	53000	21171.397068047549	1
0	53006	21172.487383227102	0
0	53060	21193.084919506437	1
0	53061	21193.278598320851	0
0	53070	21194.726663304989	1
0	53072	21194.762891898053	2
0	53073	21195.21604938432	1
0	53076	21195.830370938726	0
0	53095	21198.450749009167	1
0	53096	21198.841856145519	0
0	53225	21255.334852262533	1
0	53226	21255.415318009491	0
0	53255	21266.845203763744	1
0	53261	21267.564385388486	0
0	53270	21268.382848782319	1
0	53271	21268.697292564178	0
0	53275	21269.056374029503	1
0	53276	21269.660328725048	0
0	53280	21270.08231112024	1
0	53282	21270.22694267515	2
0	53283	21270.546195241877	1
0	53287	21271.296188738958	2
0	53288	21271.302835776958	1
0	53297	21272.104264227668	2
0	53299	21272.322012444068	3
0	53300	21272.589313828222	2
0	53309	21273.273872569978	3
0	53310	21273.958897223718	2
0	53328	21276.786967307304	1
0	53331	21277.698687113936	0
0	53340	21278.937871322932	1
0	53341	21279.236722430165	0
0	53380	21288.330924164754	1
0	53381	21288.751025962281	0
0	53470	21330.470604474007	1
0	53471	21330.699235747663	0
0	53475	21331.022275209274	1
0	53476	21331.238026010805	0
0	53480	21331.866831000838	1
0	53481	21332.129358285806	0
0	53500	21335.369635764375	1
0	53501	21335.584407742436	0
0	53545	21359.886249472741	1
0	53546	21360.44705400298	0
0	53695	21425.792853260343	1
0	53697	21425.797581785168	2
0	53698	21426.638662805542	1
0	53701	21427.270121295511	0
0	53760	21450.632848985083	1
0	53761	21451.451056210931	0
0	53765	21451.682056226514	1
0	53766	21452.152493613448	0
0	53775	21455.126057478477	1
0	53776	21455.940521382148	0
0	53780	21456.368479482989	1
0	53781	21456.739817006447	0
0	53835	21487.12541967812	1
0	53836	21487.504349451545	0
0	53870	21496.80172191874	1
0	53871	21497.084425660088	0
0	53922	21512.133262021524	1
0	53927	21513.218634408141	2
0	53928	21513.381365065059	1
0	53931	21513.976177186488	0
0	54010	21545.34787002437	1
0	54011	21545.58949500829	0
0	54020	21547.208030070763	1
0	54021	21547.743700908479	0
0	54050	21561.077283626549	1
0	54051	21561.240636998231	0
0	54055	21561.686996115591	1
0	54056	21561.857126289376	0
0	54085	21570.287931416186	1
0	54086	21570.482351453132	0
0	54095	21571.526283245158	1
0	54096	21571.844465972478	0
0	54105	21573.404525950496	1
0	54106	21573.431016010212	0
0	54125	21577.033823912084	1
0	54126	21577.21168881248	0
0	54130	21577.516610451121	1
0	54131	21577.888970763919	0
0	54165	21592.336058746391	1
0	54166	21592.406059208973	0
0	54170	21592.596147283671	1
0	54171	21593.351132082003	0
0	54205	21600.921281451577	1
0	54206	21601.376497654064	0
0	54210	21602.014134385586	1
0	54211	21602.297761222214	0
0	54215	21602.978591050355	1
0	54217	21603.14260042025	2
0	54218	21603.165610488371	1
0	54221	21603.654452718521	0
0	54225	21603.660441631398	1
0	54226	21604.631004929036	0
0	54230	21604.985897261469	1
0	54231	21605.485324868472	0
0	54240	21607.322147123384	1
0	54241	21607.74645241256	0
0	54245	21608.507021048223	1
0	54246	21608.741020104886	0
0	54405	21696.62958938218	1
0	54411	21697.496533072014	0
0	54420	21698.877234047987	1
0	54421	21699.026261285879	0
0	54580	21786.894220417635	1
0	54581	21787.139269894289	0
0	54585	21787.68675093209	1
0	54586	21788.13845514578	0
0	54660	21841.190516443612	1
0	54661	21841.829738049056	0
0	54675	21847.133701023388	1
0	54676	21847.305049485513	0
0	54680	21847.899925109542	1
0	54681	21848.242786002378	0
0	54685	21848.337520513886	1
0	54687	21848.475785938026	2
0	54688	21849.237721881256	1
0	54691	21850.062680008295	0
0	54705	21852.606043010475	1
0	54706	21852.88776116652	0
0	54715	21853.915212037872	1
0	54716	21854.347846261473	0
0	54825	21895.187768389346	1
0	54826	21895.546261297328	0
0	54870	21903.181777761504	1
0	54872	21903.209996660063	2
0	54873	21903.499270435658	1
0	54876	21903.935838991779	0
0	54880	21903.999905137034	1
0	54882	21904.001491165978	2
0	54889	21904.893464083656	3
0	54890	21905.124426535986	2
0	54893	21905.973562831714	1
0	54896	21906.484418896728	0
0	54900	21906.511777011456	1
0	54902	21906.606601298164	2
0	54903	21907.322367076997	1
0	54906	21907.762723705314	0
0	54910	21908.038285248347	1
0	54911	21908.663540718706	0
0	54915	21908.665968735251	1
0	54917	21908.861274725477	2
0	54918	21909.449910080108	1
0	54922	21909.602088461341	2
0	54923	21910.366369245854	1
0	54926	21910.962537154929	0
0	54930	21911.092383060845	1
0	54931	21911.75879035988	0
0	54950	21915.576835480818	1
0	54951	21916.301206970312	0
0	54960	21917.835834561193	1
0	54961	21917.869840975389	0
0	54985	21921.815248983392	1
0	54986	21922.143624985117	0
0	55005	21926.086214498121	1
0	55006	21926.798888154114	0
0	55010	21926.857640994928	1
0	55011	21927.418014113577	0
0	55085	21962.00322313774	1
0	55086	21962.525862919171	0
0	55095	21963.53158330917	1
0	55096	21963.589349570721	0
0	55100	21963.592471703977	1
0	55102	21963.654274396177	2
0	55103	21964.379377628527	1
0	55106	21965.351721143526	0
0	55115	21966.99398635578	1
0	55116	21967.080809535571	0
0	55135	21973.984386819825	1
0	55136	21974.335281829241	0
0	55165	21997.087156893321	1
0	55166	21997.798932596517	0
0	55190	22012.721265775908	1
0	55191	22012.944851285804	0
0	55225	22033.900557441468	1
0	55226	22034.178606036487	0
0	55410	22166.172018540404	1
0	55411	22166.476681816962	0
0	55415	22166.529407496918	1
0	55416	22167.345577044191	0
0	55420	22167.401292457315	1
0	55421	22168.031365062168	0
0	55425	22168.307514860567	1
0	55426	22168.613787900901	0
0	55475	22187.662238199548	1
0	55476	22187.902919163335	0
0	55485	22188.774701672699	1
0	55487	22189.101050169261	2
0	55488	22189.256803894987	1
0	55497	22190.416153076153	2
0	55499	22190.620848871653	3
0	55500	22190.757312005445	2
0	55503	22191.424195533631	1
0	55507	22191.773523371155	2
0	55508	22192.157599264862	1
0	55512	22192.376304982071	2
0	55513	22192.798902324973	1
0	55517	22193.094276713783	2
0	55518	22193.380224117324	1
0	55522	22193.747707194702	2
0	55523	22193.980276517025	1
0	55527	22194.607764441041	2
0	55528	22194.670233623092	1
0	55531	22195.656390048345	0
0	55535	22195.915347517634	1
0	55536	22196.492779361424	0
0	55545	22199.833636626257	1
0	55546	22200.316592175863	0
0	55585	22223.36469433648	1
0	55586	22223.822699873346	0
0	55735	22329.046136747086	1
0	55736	22329.250894479463	0
0	55740	22329.358481460509	1
0	55746	22330.117102480363	0
0	55755	22330.722323525983	1
0	55756	22331.202173333065	0
0	55800	22347.353819154226	1
0	55801	22347.356725629149	0
0	55810	22348.435809883992	1
0	55811	22348.663666337366	0
0	55820	22349.846628097967	1
0	55821	22350.207672702158	0
0	55830	22351.430276673307	1
0	55831	22352.003141992269	0
0	55840	22353.38836507446	1
0	55841	22353.474514799807	0
0	55905	22380.622698926168	1
0	55906	22380.961220821627	0
0	55950	22419.058515297608	1
0	55951	22419.508689294135	0
0	55980	22438.353090919351	1
0	55981	22438.618450081309	0
0	55995	22442.700031699475	1
0	55996	22442.906840742296	0
0	56005	22445.181809491716	1
0	56006	22445.291696636442	0
0	56010	22445.79253650916	1
0	56012	22445.87175842696	2
0	56013	22446.057275882985	1
0	56017	22446.631618217784	2
0	56018	22446.773669936617	1
0	56022	22446.851801311756	2
0	56023	22447.619654796987	1
0	56027	22447.884957381672	2
0	56028	22448.05617014758	1
0	56031	22449.02254548405	0
0	56055	22462.363859925224	1
0	56056	22462.602698360235	0
0	56085	22466.685603636246	1
0	56086	22467.267022119999	0
0	56100	22469.678262065314	1
0	56101	22469.697191913434	0
0	56130	22478.975762444657	1
0	56131	22479.797343525265	0
0	56145	22482.182781883488	1
0	56146	22482.641660128589	0
0	56170	22488.499773233082	1
0	56171	22488.611987792897	0
0	56225	22518.189649225305	1
0	56226	22518.452391918016	0
0	56245	22529.581146430486	1
0	56246	22529.878335513872	0
0	56250	22530.227324023316	1
0	56251	22530.609944782731	0
0	56265	22537.429408719061	1
0	56266	22537.652033878937	0
0	56270	22537.885101051286	1
0	56271	22538.428760580606	0
0	56275	22538.804417555332	1
0	56276	22539.042650036448	0
0	56290	22540.770529486889	1
0	56291	22541.328003468798	0
0	56345	22593.052608591305	1
0	56346	22593.545087183895	0
0	56355	22594.569766158501	1
0	56356	22594.920504432334	0
0	56390	22612.350019351343	1
0	56391	22612.425260604413	0
0	56437	22630.849695748598	1
0	56441	22632.201122326332	0
[...]
7	75349	29888.833973617337	0.663210563548
7	75354	29889.641102375041	1.588978824497
7	75357	29890.548870504366	4.215689211505
7	75360	29891.340327576918	0.791457072552
7	75377	29897.491766175147	0.883123087231
7	75392	29899.214156707919	3.622386547166
7	75395	29900.128051660753	0.913894952834
7	75420	29908.838323839196	0.754950098833
7	75425	29909.662134130019	2.341036389766
7	75440	29913.656667994383	0.685121333553
7	75452	29918.755964647441	2.954324903361
7	75532	29931.655247360909	1.269886535958
7	75585	29945.410302071063	2.004979190606
7	75595	29951.254313957861	0.411400596844
7	75610	29955.880040642306	1.670440586827
7	75640	29964.657908321637	3.483291925038
7	75652	29972.91131824563	0.924043025961
7	75680	29985.024261843739	0.592675639968
7	75700	29989.673993889907	0.514470553864
8	25380	10067.388243133286	1
8	25381	10068.218780285387	0
8	26947	10703.811703781977	1
8	26951	10705.06767896961	0
8	26990	10727.702254670815	1
8	26991	10728.530263158663	0
8	26995	10729.18673076805	1
8	26996	10729.350353816974	0
8	27050	10742.212546397749	1
8	27051	10742.632705540677	0
8	27060	10744.250036203071	1
8	27061	10744.535834344379	0
8	27240	10810.222370230252	1
8	27241	10810.245872144087	0
8	27780	11013.058949144253	1
8	27781	11013.991984675667	0
8	27785	11014.735723150876	1
8	27786	11014.950901931918	0
8	27792	11015.792097994613	1
8	27794	11016.022912290094	0
8	27872	11058.892543443604	1
8	27881	11059.994298358146	0
8	27900	11063.87084268493	1
8	27901	11064.129179572951	0
8	27907	11064.792433599181	1
8	27916	11066.308216395123	0
8	27922	11066.876345897534	1
8	27924	11067.069686510987	0
8	27965	11074.1316890637	1
8	27966	11075.822069538082	0
8	28035	11100.611528808532	1
8	28036	11101.802733410824	0
8	28040	11102.257271045422	1
8	28041	11102.722074384412	0
8	28565	11314.951482916168	1
8	28566	11314.977675205108	0
8	28570	11315.585205193527	1
8	28571	11316.644354334035	0
8	28575	11317.360461425948	1
8	28579	11318.835508605432	0
8	28682	11351.387741987665	1
8	28684	11351.508952016528	0
8	28785	11415.955122387386	1
8	28786	11416.053846132393	0
8	29120	11510.782771704844	1
8	29121	11511.593037325293	0
8	30407	12077.536350590394	1
8	30409	12077.661369954025	0
8	30445	12083.243995485719	1
8	30449	12083.895178164879	0
8	30459	12085.331562850081	1
8	30461	12085.929470971096	0
8	30475	12088.432094225861	1
8	30476	12088.528935042399	0
8	30575	12120.809203970182	1
8	30576	12121.107682972384	0
8	30645	12130.322864011977	1
8	30654	12131.827680715354	0
8	31055	12255.246066725663	1
8	31056	12255.31528238663	0
8	31065	12256.540156392749	1
8	31066	12257.592787720337	0
8	31095	12267.916889913237	1
8	31096	12268.27047435579	0
8	31697	12468.001051309317	1
8	31699	12468.595918335432	0
8	31825	12506.466035060468	1
8	31826	12506.49158912657	0
8	32022	12590.714992740775	1
8	32024	12590.722041605092	0
8	32027	12591.412227463887	1
8	32029	12591.771238952036	0
8	32045	12593.803009906297	1
8	32046	12594.204185822564	0
8	32727	12883.136474560698	1
8	32731	12884.642412984355	0
8	32809	12901.318037759989	1
8	32811	12901.607494722442	0
8	32814	12902.133759542426	1
8	32816	12902.338412124245	0
8	32841	12905.770786864601	1
8	32853	12907.627458271007	0
8	32914	12916.574396580098	1
8	32918	12917.033657198487	0
8	33985	13325.339889863953	1
8	33986	13326.376810350234	0
8	34387	13492.440734684477	1
8	34389	13492.539273015706	0
8	34470	13520.12867595182	1
8	34471	13520.287710941681	0
8	34620	13609.774546565212	1
8	34625	13610.549063859796	2
8	34626	13611.1411711804	1
8	34632	13611.883270338354	2
8	34634	13612.349282290593	1
8	34636	13612.389417617343	0
8	34647	13613.619329554251	1
8	34649	13613.77111038556	0
8	34652	13614.182442105784	1
8	34656	13615.293500231752	0
8	34802	13670.480862260544	1
8	34806	13670.855615510296	0
8	34824	13673.384421624318	1
8	34831	13674.735758485026	0
8	34915	13698.545150136828	1
8	34916	13698.57975211469	0
8	35335	13847.206279173513	1
8	35336	13848.204326896551	0
8	35405	13891.65806650817	1
8	35406	13893.43910683626	0
8	35415	13894.454132997754	1
8	35416	13894.699808826292	0
8	35789	14020.994453936845	1
8	35794	14021.643307215754	0
8	35872	14044.724771173828	1
8	35874	14044.854766311507	0
8	35915	14057.421738817357	1
8	35916	14058.959162339737	0
8	36155	14127.915143522246	1
8	36159	14128.266142533627	0
8	36502	14310.546828291674	1
8	36505	14311.122856907702	2
8	36511	14311.619215548883	1
8	36516	14311.983071202658	0
8	36527	14314.116163748141	1
8	36529	14314.636950140313	0
8	36540	14316.629904049507	1
8	36541	14316.944265341419	0
8	36545	14317.751335006007	1
8	36546	14318.155754959621	0
8	36620	14353.213634763614	1
8	36621	14355.534367794958	0
8	36665	14375.254566157602	1
8	36666	14375.649848405704	0
8	36670	14376.096156764183	1
8	36671	14378.519451785696	0
8	36887	14450.195383923054	1
8	36891	14452.211818695993	0
8	37040	14513.782068361118	1
8	37046	14514.941337009531	0
8	37120	14536.574914748548	1
8	37121	14537.449966008627	0
8	37490	14741.758760737266	1
8	37491	14741.889456761242	0
8	37605	14790.089871063123	1
8	37606	14790.770276219851	0
8	37925	14950.695503306279	1
8	37926	14951.450503889663	0
8	37995	14983.485866024484	1
8	37996	14984.202707722574	0
8	38195	15089.907362883038	1
8	38196	15090.22756114503	0
8	38620	15342.424078951742	1
8	38621	15343.368748184916	0
8	38632	15345.220083470566	1
8	38634	15345.247648696693	0
8	38665	15349.655613341184	1
8	38666	15350.128967572873	0
8	39275	15599.891219819448	1
8	39276	15599.92703569265	0
8	39507	15718.690312704791	1
8	39511	15719.545967728828	0
8	39514	15719.581733144841	1
8	39516	15720.21710758983	0
8	39519	15720.296288301817	1
8	39527	15721.846404658699	2
8	39530	15722.807474871561	3
8	39536	15722.963827518472	2
8	39540	15723.71192226256	1
8	39543	15723.913669102333	2
8	39545	15724.019199285597	1
8	39548	15724.608243567097	2
8	39559	15726.217022916418	1
8	39564	15726.806453189411	0
8	39612	15734.048404461025	1
8	39616	15736.656159615126	0
8	39635	15740.408712506418	1
8	39636	15742.058004907039	0
8	39840	15827.225201084658	1
8	39841	15827.512981907776	0
8	39845	15828.16820829295	1
8	39846	15829.047918827387	0
8	39850	15829.752727399368	1
8	39851	15830.153567826168	0
8	39855	15830.726711954528	1
8	39856	15830.950230543006	0
8	39970	15868.325215604003	1
8	39971	15868.50447058398	0
8	40590	16142.238119964591	1
8	40591	16142.570024260801	0
8	40744	16186.075579037741	1
8	40746	16186.757497220282	0
8	40752	16187.334772429979	1
8	40754	16187.540190318551	0
8	40867	16246.346197411854	1
8	40869	16246.784444379429	0
8	40872	16247.137372746289	1
8	40874	16247.539828429475	0
8	40940	16266.740689291937	1
8	40941	16267.854715987382	0
8	41105	16324.439182466525	1
8	41106	16324.624201842653	0
8	41140	16334.879806046448	1
8	41144	16336.288679716689	0
8	41147	16336.585496011251	1
8	41151	16338.185256882404	0
8	41495	16477.627829780544	1
8	41496	16479.624355135868	0
8	41500	16480.319080310185	1
8	41501	16481.291542905827	0
8	41627	16516.868709415847	1
8	41629	16517.625070123744	0
8	41742	16556.00608996982	1
8	41746	16556.894645687846	0
8	41780	16564.855451269559	1
8	41781	16564.980215753378	0
8	41830	16579.247023969322	1
8	41831	16579.380276039923	0
8	41975	16605.191130686578	1
8	41979	16605.383983388641	0
8	41985	16606.358601689122	1
8	41986	16606.377588215217	0
8	42199	16727.003509550498	1
8	42201	16727.382817265344	0
8	42209	16727.963676874762	1
8	42211	16728.178864580719	0
8	42290	16749.327343095953	1
8	42291	16749.497356434043	0
8	42330	16755.020246193899	1
8	42331	16755.232991947749	0
8	42485	16806.645332586162	1
8	42486	16806.878075270293	0
8	42747	16912.20092529305	1
8	42749	16912.297594918223	0
8	42780	16917.418392887355	1
8	42781	16918.066077091405	0
8	42850	16928.838726939885	1
8	42851	16930.796552098925	0
8	42855	16931.227356844778	1
8	42866	16936.390164643952	0
8	43690	17288.667473274692	1
8	43691	17289.715491333373	0
8	43810	17330.487407559762	1
8	43811	17330.761688400627	0
8	43815	17331.257589736356	1
8	43819	17332.570813764313	0
8	43855	17342.305766438511	1
8	43856	17342.501982497523	0
8	43965	17373.260566018538	1
8	43966	17373.458182497756	0
8	44450	17569.394096025407	1
8	44456	17570.280174011948	0
8	44705	17669.333501658766	1
8	44710	17670.439802118046	2
8	44714	17671.404675954711	1
8	44724	17672.511302824006	0
8	45330	17852.90595834046	1
8	45331	17854.390806421499	0
8	45335	17854.80291296472	1
8	45336	17854.823412089951	0
8	45410	17902.301704847413	1
8	45411	17903.171335195344	0
8	45415	17903.571725120641	1
8	45416	17904.219636918935	0
8	46070	18213.809918246592	1
8	46071	18214.147821992526	0
8	46075	18214.691490216956	1
8	46079	18215.908060602042	0
8	46135	18227.204596414217	1
8	46136	18227.609252309061	0
8	46680	18432.821734479008	1
8	46681	18432.869962989204	0
8	48085	19038.633735037184	1
8	48086	19039.235474753923	0
8	48140	19054.301729851265	1
8	48144	19054.982478999745	0
8	48155	19056.866161360524	1
8	48156	19058.124354077224	0
8	48345	19102.276390150678	1
8	48346	19102.502929926274	0
8	48350	19103.074699263816	1
8	48351	19103.076822478618	0
8	48840	19370.561026732873	1
8	48844	19371.61010714813	0
8	49015	19445.915259914794	1
8	49016	19446.381934260368	0
8	49137	19520.103868934483	1
8	49144	19520.925738875312	0
8	49620	19739.96397255256	1
8	49621	19740.506867244174	0
8	49845	19830.26362548426	1
8	49846	19830.331542803999	0
8	49932	19846.630920906514	1
8	49936	19847.125317316684	0
8	49939	19847.182088238103	1
8	49941	19847.224869898527	0
8	49944	19847.795493526021	1
8	49946	19847.815883412578	0
8	49955	19849.789379681703	1
8	49956	19852.214623035893	0
8	50012	19874.085449770882	1
8	50014	19874.149205955784	0
8	50347	19977.24748653613	1
8	50349	19977.615151415905	0
8	50355	19978.2572548615	1
8	50356	19980.993296407318	0
8	50569	20084.799297007687	1
8	50572	20085.573023689167	2
8	50574	20086.115004647599	1
8	50576	20086.352903660261	0
8	51185	20379.539369892649	1
8	51186	20380.203274135207	0
8	51495	20519.94514230828	1
8	51496	20520.042322937614	0
8	51945	20759.507173456428	1
8	51946	20761.636646535509	0
8	51955	20763.153432246606	1
8	51959	20764.134935474703	0
8	51965	20764.834019774041	1
8	51970	20767.283140010935	2
8	51971	20768.311298720085	1
8	51974	20768.396935720932	0
8	52155	20828.490881686346	1
8	52159	20829.36155855129	0
8	52305	20873.803741987155	1
8	52306	20874.008294217712	0
8	52715	21090.358504580078	1
8	52716	21091.257906953203	0
8	52732	21093.641077209501	1
8	52734	21094.10530512523	0
8	52737	21094.324946841322	1
8	52741	21095.285994265551	0
8	53294	21272.041515658771	1
8	53296	21272.104264227668	0
8	53335	21278.503815839321	1
8	53336	21278.716690935751	0
8	54015	21546.057586702369	1
8	54016	21547.083696158725	0
8	54160	21591.630600082997	1
8	54161	21591.784559821565	0
8	54692	21850.062680008295	1
8	54695	21850.722540226658	2
8	54696	21851.704303152302	1
8	54701	21852.375313518909	0
8	54897	21906.484418896728	1
8	54899	21906.511777011456	0
8	54907	21907.762723705314	1
8	54914	21908.665968735251	0
8	55110	21966.019585480391	1
8	55111	21966.278756956636	0
8	55540	22197.09541816303	1
8	55541	22199.823409284395	0
8	55985	22439.549915745349	1
8	55986	22440.094759815523	0
8	55990	22440.913256019365	1
8	55994	22442.700031699475	0
8	56000	22443.447178563625	1
8	56009	22445.79253650916	0
8	56280	22539.563057728838	1
8	56285	22540.241061906822	2
8	56286	22540.621101918133	1
8	56289	22540.770529486889	0
8	56295	22541.806782541904	1
8	56296	22543.349497571342	0
8	56925	22833.568009580756	1
8	56931	22835.117183375782	0
8	57345	22940.476468114194	1
8	57346	22941.880061187305	0
8	57355	22943.306420592767	1
8	57356	22943.610265043054	0
8	57362	22944.200762734192	1
8	57364	22944.326803386871	0
8	57450	22958.016054225349	1
8	57451	22958.113925873643	0
8	57455	22959.101593512871	1
8	57456	22959.664265959086	0
8	57720	23046.221421218253	1
8	57721	23046.664141703857	0
8	57965	23138.463986310856	1
8	57966	23138.999711889331	0
8	57980	23141.68272348889	1
8	57981	23143.386334280574	0
8	58220	23230.156384441866	1
8	58221	23230.504454496338	0
8	58672	23405.750722743004	1
8	58674	23405.926745718348	0
8	58677	23406.45774632943	1
8	58680	23407.105388464491	2
8	58681	23407.197293971287	1
8	58684	23407.653048795747	0
8	58687	23407.775923856063	1
8	58689	23408.0185571179	0
8	58722	23414.502407824556	1
8	58725	23414.914799858751	2
8	58726	23414.946658042626	1
8	58731	23415.703637040913	0
8	58752	23417.995707189891	1
8	58756	23419.434014670976	0
8	58762	23419.910142204032	1
8	58769	23420.89150481681	0
8	59270	23578.161394689554	1
8	59271	23578.539090918145	0
8	59710	23770.628371041837	1
8	59711	23771.477150639994	0
8	60195	23950.056336333486	1
8	60196	23951.034888104561	0
8	60205	23952.605290758682	1
8	60210	23953.155124592181	2
8	60211	23953.156346987468	1
8	60216	23954.379471455938	0
8	60610	24123.849765672207	1
8	60611	24125.176992090492	0
8	60630	24129.088204590239	1
8	60631	24132.051279607626	0
8	61065	24324.769798813936	1
8	61066	24324.919538790283	0
8	61090	24337.871498268546	1
8	61091	24338.08386617747	0
8	61380	24419.602821138077	1
8	61381	24419.857460063293	0
8	61705	24552.366246398538	1
8	61706	24552.959877988341	0
8	62567	24913.961624954571	1
8	62569	24914.486591910845	0
8	62725	24938.242513429152	1
8	62726	24938.498909512236	0
8	62945	25015.991497098967	1
8	62946	25017.296545175213	0
8	62950	25017.928143589181	1
8	62951	25018.359050776399	0
8	62990	25024.427542448724	1
8	62991	25024.612157741849	0
8	63360	25196.754369515155	1
8	63361	25197.046884812356	0
8	63370	25198.206493850692	1
8	63371	25198.618573591144	0
8	63385	25200.296778448051	1
8	63386	25200.939796511371	0
8	64005	25481.507042572545	1
8	64006	25482.366563255023	0
8	64055	25501.691564186551	1
8	64056	25501.701043824549	0
8	64065	25503.141011526552	1
8	64066	25503.23715870899	0
8	64310	25617.325362385902	1
8	64311	25617.822785716306	0
8	64572	25697.49410041964	1
8	64576	25698.505764128535	0
8	64680	25720.149628724933	1
8	64681	25720.615784760949	0
8	64685	25721.159882117866	1
8	64686	25722.287292060459	0
8	65570	26051.126145684469	1
8	65571	26052.042643501619	0
8	65852	26154.926488261585	1
8	65854	26155.745313454103	0
8	66240	26313.201010486973	1
8	66241	26313.88210998346	0
8	66255	26315.902033558404	1
8	66256	26315.930691852675	0
8	66264	26316.836184302134	1
8	66274	26318.066178126686	0
8	66277	26318.843781351507	1
8	66280	26319.341463165241	2
8	66281	26319.404664108669	1
8	66284	26320.190165234361	0
8	66557	26412.411924285083	1
8	66559	26412.512196399228	0
8	66577	26415.384394756951	1
8	66581	26417.696507144267	0
8	66592	26419.009283336964	1
8	66594	26419.379902324674	0
8	66604	26420.304445104734	1
8	66609	26420.875763003789	0
8	66747	26493.219148125179	1
8	66751	26494.405281476407	0
8	66825	26504.415444299217	1
8	66829	26506.309792859153	0
8	67135	26622.566802034024	1
8	67136	26624.63254666437	0
8	67140	26625.056023574402	1
8	67141	26625.313621668617	0
8	67145	26626.005953353743	1
8	67151	26627.893209483561	0
8	67180	26632.85028189562	1
8	67181	26633.361442216338	0
8	67350	26691.455098040479	1
8	67351	26691.922564013702	0
8	67535	26750.376687092941	1
8	67536	26750.718649550051	0
8	68445	27136.055628377569	1
8	68446	27136.996969716383	0
8	69502	27603.177968416017	1
8	69505	27603.688357138381	2
8	69506	27605.170184931715	1
8	69511	27606.20693526803	0
8	69515	27606.644514395431	1
8	69520	27607.246576211443	2
8	69521	27609.667766625962	1
8	69524	27609.749664748962	0
8	69532	27611.181652394698	1
8	69534	27611.246327345713	0
8	69555	27614.364486249739	1
8	69556	27614.705339053658	0
8	69560	27615.252216076258	1
8	69561	27617.481247151122	0
8	70060	27858.327978677877	1
8	70061	27858.439647532276	0
8	70356	27936.938930353794	1
8	70364	27938.18816556278	0
8	70865	28147.050054080466	1
8	70866	28147.803926572206	0
8	71015	28250.099600503697	1
8	71016	28250.955697937095	0
8	71062	28263.340919642601	1
8	71064	28263.794908143614	0
8	71212	28327.890462332135	1
8	71216	28328.798356884116	0
8	71810	28528.81271177979	1
8	71811	28531.085797883454	0
8	71815	28531.751116743614	1
8	71819	28533.054433023148	0
8	71915	28547.77725915442	1
8	71916	28548.974426298883	0
8	71980	28569.987904592702	1
8	71981	28570.786653431618	0
8	71985	28571.700592004015	1
8	71986	28571.848954344428	0
8	72265	28727.522733041754	1
8	72266	28729.057956087436	0
8	72270	28729.750864501424	1
8	72271	28729.794905138194	0
8	72652	28851.766132759322	1
8	72655	28852.463631837601	2
8	72656	28853.749644912791	1
8	72661	28854.255658905278	0
8	73055	29033.506415226988	1
8	73056	29035.199341348819	0
8	73185	29073.785249098003	1
8	73186	29073.793551529522	0
8	73380	29117.454973471981	1
8	73384	29118.11987072386	0
8	73712	29198.03063560133	1
8	73714	29198.27113791576	0
8	73805	29241.832255786403	1
8	73806	29242.169478089657	0
8	74360	29503.846209289617	1
8	74361	29504.740545381211	0
8	74387	29508.479037528048	1
8	74389	29508.72379192161	0
8	74395	29510.206245351984	1
8	74396	29510.577248291667	0
8	74579	29562.52711120833	1
8	74582	29563.317021884288	2
8	74584	29564.023458568294	1
8	74591	29565.094291938126	0
8	74745	29628.162924792107	1
8	74746	29630.2161577995	0
8	75460	29920.044143117659	1
8	75461	29920.335316218367	0
8	75465	29921.286152110413	1
8	75466	29921.932817115761	0
8	75470	29922.889661235489	1
8	75471	29923.076670607342	0
8	75519	29930.284252426982	1
8	75524	29931.060220276128	0
8	75529	29931.227762585062	1
8	75534	29931.656162571194	0
8	75537	29932.548926157526	1
8	75540	29933.136271498421	2
8	75541	29936.144502968516	1
8	75544	29936.909291245769	0
9	25616	10151.218329059018	1
9	25618	10151.22095984384	0
9	25634	10153.707822257339	1
9	25636	10153.882056221975	0
9	26535	10482.997051455135	1
9	26536	10483.247352771782	0
9	28210	11134.149049693693	1
9	28211	11134.342756383262	0
9	29254	11578.371349297471	1
9	29256	11578.432334638874	0
9	29267	11580.679691005318	1
9	29269	11580.691467348715	0
9	29490	11638.974919772281	1
9	29491	11639.148245506944	0
9	30800	12174.488984873686	1
9	30801	12174.545693552161	0
9	33647	13232.106839721652	1
9	33649	13232.395758054783	0
9	33652	13233.044252915962	1
9	33654	13233.077567733991	0
9	35972	14067.131426669435	1
9	35974	14067.316291583006	0
9	36827	14442.601661860634	1
9	36831	14442.87419183099	0
9	41900	16594.191336517829	1
9	41901	16595.040184753289	0
9	41925	16598.649636671825	1
9	41926	16598.689286116702	0
9	44579	17619.20511269252	1
9	44581	17619.651859625243	0
9	44867	17702.47913841859	1
9	44869	17702.891048821826	0
9	45275	17844.034307297837	1
9	45276	17844.544557465597	0
9	46709	18436.427167604436	1
9	46714	18437.203786648075	0
9	48279	19092.207434904084	1
9	48281	19092.373896536832	0
9	49687	19755.23696831475	1
9	49690	19755.977639099173	2
9	49691	19756.233029011514	1
9	49694	19756.524749844188	0
9	53915	21511.28418247816	1
9	53916	21511.887147133998	0
9	54815	21893.725002145644	1
9	54816	21894.208941395835	0
9	54827	21895.546261297328	1
9	54829	21895.596408752369	0
9	61260	24375.957636621572	1
9	61261	24376.291183194517	0
9	65031	25855.11264932914	1
9	65036	25855.708618542227	0
9	65042	25857.277789173268	1
9	65046	25857.753548335887	0
9	65057	25859.529744712629	1
9	65059	25859.707413292645	0
9	67395	26709.086005587106	1
9	67396	26709.117218696498	0
9	67405	26710.125028781998	1
9	67406	26710.457712652726	0
9	67499	26744.578716439896	1
9	67501	26744.871718568304	0
9	67665	26813.827491547643	1
9	67669	26814.415746581569	0
9	68285	27066.079980720777	1
9	68286	27066.119592313364	0
9	68742	27278.05980542889	1
9	68746	27278.744543879952	0
9	68751	27278.990283555399	1
9	68753	27279.149135461639	0
9	69212	27468.973470351104	1
9	69214	27469.318803020489	0
9	70087	27862.568480648727	1
9	70089	27862.658801569434	0
9	70102	27864.660711440046	1
9	70104	27864.737365731754	0
9	70349	27936.449004533972	1
9	70351	27936.754415943436	0
9	71322	28365.287960104635	1
9	71324	28365.353737780606	0
9	71744	28518.481340015975	1
9	71746	28518.704369459628	0
9	72844	28946.765018093069	1
9	72846	28946.785648363746	0
9	72849	28947.414922741144	1
9	72851	28948.075579833533	0
9	73017	29023.416712338249	1
9	73019	29023.906973387595	0
9	73489	29142.738254637425	1
9	73491	29142.99434697435	0
9	73497	29143.582591543082	1
9	73506	29144.370512739672	0

