version 2
run First_exit_8-13-20191114-11:42:32-8897
attr configname First_exit_8
attr datetime 20191114-11:42:32
attr experiment First_exit_8
attr inifile omnetpp.ini
attr iterationvars ""
attr iterationvarsf ""
attr measurement ""
attr network ResponseTimeNetwork
attr processid 8897
attr repetition 13
attr replication #13
attr resultdir results
attr runnumber 13
attr seedset 13
param **.Source.interArrivalTime exponential(4s)
param **.jobPriority bernoulli(0.4)
param **.PS.serviceTimeU1 "uniform(0.4s, 1.0s)"
param **.PS.serviceTimeU2 "uniform(1s, 1.2s)"
param **.SS1.serviceTime exponential(0.4s)
param **.SS2.serviceTime exponential(0.8s)
param **.PS.exitProbability bernoulli(0.8)

vector 0 ResponseTimeNetwork.QueueU2 queueLength:vector ETV
attr interpolationmode sample-hold
attr title "queue length, vector"
vector 1 ResponseTimeNetwork.sink lifeTimeU2:vector ETV
attr interpolationmode none
attr title "lifetime of arrived jobs U2, vector"
attr unit s
vector 2 ResponseTimeNetwork.sink totalServiceTimeU2:vector ETV
attr interpolationmode none
attr title "the total time spent  by arrived jobs U2, vector"
attr unit s
vector 3 ResponseTimeNetwork.sink lifeTime:vector ETV
attr interpolationmode none
attr title "lifetime of arrived jobs, vector"
attr unit s
vector 4 ResponseTimeNetwork.sink totalServiceTime:vector ETV
attr interpolationmode none
attr title "the total time spent  by arrived jobs, vector"
attr unit s
vector 5 ResponseTimeNetwork.SS2 queueLength:vector ETV
attr interpolationmode sample-hold
attr title "queue length, vector"
vector 6 ResponseTimeNetwork.QueueU1 queueLength:vector ETV
attr interpolationmode sample-hold
attr title "queue length, vector"
vector 7 ResponseTimeNetwork.SS1 queueLength:vector ETV
attr interpolationmode sample-hold
attr title "queue length, vector"
vector 8 ResponseTimeNetwork.sink lifeTimeU1:vector ETV
attr interpolationmode none
attr title "lifetime of arrived jobs U1, vector"
attr unit s
vector 9 ResponseTimeNetwork.sink totalServiceTimeU1:vector ETV
attr interpolationmode none
attr title "the total time spent  by arrived jobs U1, vector"
attr unit s
0	65178	10000.031976284585	5
0	65180	10000.061027095042	6
0	65181	10000.518181110657	5
0	65185	10000.766146401316	6
0	65186	10000.956920882146	5
0	65189	10001.863922989479	4
0	65193	10001.886790060849	5
0	65194	10002.312549486774	4
0	65197	10002.855828475318	3
0	65200	10003.348736773822	2
0	65204	10003.584010824112	3
0	65205	10004.150892361598	2
0	65209	10004.364022677251	3
0	65211	10004.379126154251	4
0	65213	10004.462825420014	5
0	65215	10004.563450995112	6
0	65216	10005.00630375796	5
0	65220	10005.449612323893	6
0	65221	10005.61116120589	5
0	65224	10006.062727918215	4
0	65227	10006.538023826359	3
0	65230	10007.333025276074	2
0	65233	10008.135014787195	1
0	65237	10008.272786539953	2
0	65239	10008.533936035242	3
0	65240	10008.612321591722	2
0	65243	10009.139107227344	1
0	65246	10009.635262527196	0
0	65250	10009.786487466695	1
0	65251	10010.204527242966	0
0	65255	10010.299785837579	1
0	65257	10010.454284502999	2
0	65258	10010.684308073223	1
0	65262	10011.440625799733	2
0	65264	10011.589065240024	3
0	65265	10011.63980510586	2
0	65268	10012.111168555841	1
0	65271	10012.663533044066	0
0	65285	10014.089359158019	1
0	65286	10014.410250165844	0
0	65297	10015.573075151349	1
0	65307	10016.698699409513	2
0	65313	10017.522750568361	1
0	65324	10018.129056840531	2
0	65328	10019.403071357746	1
0	65339	10020.98197921785	2
0	65346	10021.968222005194	3
0	65351	10022.345514732553	4
0	65357	10023.793553850723	3
0	65361	10023.832409606367	4
0	65362	10024.291483646834	3
0	65368	10024.319229228891	4
0	65370	10024.666667989194	5
0	65375	10024.924838448733	6
0	65377	10025.600666224989	7
0	65378	10025.683241461746	6
0	65386	10027.288490030931	5
0	65389	10027.772551911248	4
0	65393	10027.80378901865	5
0	65395	10028.462448395074	6
0	65396	10028.602805133227	5
0	65399	10029.257680187158	4
0	65403	10029.402670907425	5
0	65405	10029.672442274932	6
0	65406	10029.783755643543	5
0	65410	10029.900122518684	6
0	65412	10030.037497531035	7
0	65414	10030.309951203443	8
0	65415	10030.422780670429	7
0	65418	10031.017027148622	6
0	65421	10031.907102153934	5
0	65425	10032.453313932252	6
0	65427	10032.606425436535	7
0	65428	10032.880621863547	6
0	65432	10033.055073830048	7
0	65433	10033.289650109382	6
0	65441	10034.522469287291	5
0	65447	10035.335691626677	6
0	65451	10036.053647879483	5
0	65455	10036.120464069307	6
0	65461	10038.00801292981	5
0	65465	10038.163682368611	6
0	65467	10038.173168968699	7
0	65473	10039.647776775499	6
0	65479	10039.92389276448	7
0	65486	10040.925064814428	8
0	65491	10041.516455265814	9
0	65492	10041.68253275493	8
0	65501	10042.624812789233	9
0	65503	10042.797862943325	10
0	65504	10042.932501354644	9
0	65508	10043.21971989927	10
0	65514	10044.042396246938	9
0	65518	10044.132941294447	10
0	65519	10044.610941339999	9
0	65528	10045.097031033427	10
0	65532	10045.409367026367	11
0	65536	10046.125237217468	10
0	65544	10047.406672878533	9
0	65552	10048.773356133715	8
0	65556	10049.109164129072	9
0	65557	10049.288056288303	8
0	65571	10050.643188618366	9
0	65572	10051.172626854309	8
0	65588	10053.105000319858	9
0	65612	10057.475926838831	8
0	65620	10058.906039988824	7
0	65626	10059.535443440843	8
0	65630	10060.607136728304	7
0	65639	10061.519715960148	8
0	65640	10062.04940900874	7
0	65649	10062.945985527523	8
0	65650	10063.334987301953	7
0	65653	10064.125113754781	6
0	65657	10064.52962038621	7
0	65658	10064.821071824214	6
0	65661	10065.315817417313	5
0	65664	10065.934353067835	4
0	65668	10066.584262720041	5
0	65669	10066.734171503985	4
0	65673	10066.995323217588	5
0	65675	10067.416608280534	6
0	65676	10067.503912919497	5
0	65679	10068.305317170935	4
0	65683	10068.409229925056	5
0	65685	10068.708089730447	6
0	65686	10068.787781559833	5
0	65689	10069.511058367154	4
0	65692	10070.012300608557	3
0	65698	10070.467342071799	4
0	65703	10070.616130766697	5
0	65704	10071.129353695053	4
0	65708	10071.349282074552	5
0	65710	10071.367151634728	6
0	65716	10072.750383726756	5
0	65735	10074.946107600379	6
0	65736	10075.455284645052	5
0	65744	10076.7071887138	4
0	65750	10076.920893614659	5
0	65755	10077.733498518473	6
0	65756	10078.289678735303	5
0	65759	10078.719221614691	4
0	65768	10080.281858605286	5
0	65769	10080.438148784515	4
0	65777	10081.469267231988	3
0	65783	10081.876318611907	4
0	65785	10082.053151516734	5
0	65787	10082.181870621309	6
0	65791	10082.882137290871	5
0	65794	10083.81735830793	4
0	65803	10084.528746562595	5
0	65812	10085.661825350056	6
0	65822	10087.191180702426	7
0	65828	10088.265481196826	6
0	65834	10088.432423827264	7
0	65848	10089.88300032316	8
0	65860	10091.786244788923	7
0	65873	10093.003007600542	8
0	65885	10095.270602189116	7
0	65908	10098.942471014541	6
0	65919	10099.977224910823	7
0	65929	10101.214510475926	8
0	65936	10101.926564427189	9
0	65937	10102.327656280595	8
0	65941	10102.595351030361	9
0	65943	10102.691052364902	10
0	65944	10102.880513784821	9
0	65965	10105.287466403847	10
0	65967	10105.292664975912	11
0	65969	10105.469960203762	12
0	65976	10106.387250855956	13
0	66020	10114.50563051195	12
0	66033	10116.376810898791	11
0	66037	10116.543760174798	12
0	66068	10121.864233126778	13
0	66073	10122.028838877684	14
0	66115	10127.700095946578	15
0	66117	10127.743636478612	16
0	66121	10128.722576753348	15
0	66134	10131.275815931028	14
0	66147	10133.360887507788	13
0	66155	10135.226135038464	12
0	66158	10135.761794400653	11
0	66162	10136.05872043096	12
0	66163	10136.613296852606	11
0	66169	10137.17081334737	12
0	66171	10137.182125224946	13
0	66201	10141.324261841735	14
0	66202	10141.327243243178	13
0	66206	10141.791185896962	14
0	66207	10141.88945214634	13
0	66213	10142.416754781575	14
0	66220	10142.866956533665	15
0	66285	10153.208008578424	16
0	66306	10155.080918565375	17
0	66333	10159.706906823136	16
0	66358	10163.167441541205	17
0	66379	10166.362992164161	18
0	66380	10166.584965865149	17
0	66393	10167.539461800487	18
0	66400	10168.11733723353	19
0	66422	10170.853510866585	20
0	66452	10175.451443296724	21
0	66457	10176.272164814504	22
0	66458	10176.36328753971	21
0	66466	10177.863493343978	20
0	66470	10178.046872911792	21
0	66471	10178.541474652919	20
0	66475	10179.08984111785	21
0	66476	10179.118217210262	20
0	66479	10179.672928709048	19
0	66483	10179.830054552316	20
0	66490	10180.930067681069	21
0	66491	10180.936949750618	20
0	66497	10181.456708724526	21
0	66501	10182.370405961643	20
0	66509	10183.294630868151	19
0	66513	10183.592185766514	20
0	66515	10183.696657815983	21
0	66516	10184.014687162615	20
0	66519	10184.593244491821	19
0	66523	10184.843191741067	20
0	66524	10185.351554665971	19
0	66527	10186.141473443876	18
0	66530	10187.11683979712	17
0	66534	10187.837702752786	18
0	66535	10187.862921222696	17
0	66538	10188.495713460656	16
0	66542	10189.115926376106	17
0	66543	10189.211452386832	16
0	66547	10189.237102622475	17
0	66549	10189.463276167955	18
0	66551	10190.01541824564	19
0	66552	10190.139933917463	18
0	66556	10190.665145947229	19
0	66557	10190.969739591355	18
0	66561	10191.497856545297	19
0	66562	10191.9193017022	18
0	66566	10192.48222542368	19
0	66567	10192.547976830068	18
0	66571	10193.330852937249	19
0	66572	10193.514371931066	18
0	66575	10194.109222969531	17
0	66579	10194.363446919063	18
0	66581	10194.845167595195	19
0	66582	10194.91345070305	18
0	66586	10195.191732322079	19
0	66592	10196.615690568021	18
0	66595	10197.024970208226	17
0	66598	10197.457116539708	16
0	66602	10197.489195675284	17
0	66606	10198.111447568923	18
0	66613	10198.386413709499	19
0	66620	10199.196566068077	20
0	66625	10199.34683998918	21
0	66626	10199.981934662793	20
0	66637	10200.918229054098	21
0	66651	10203.412687078004	20
0	66660	10204.120368168671	21
0	66661	10204.78815681881	20
0	66664	10205.445299218201	19
0	66667	10206.139051233723	18
0	66675	10207.362912071708	17
0	66681	10207.789545004581	18
0	66683	10208.037282388704	19
0	66687	10208.663511148074	18
0	66696	10209.3288346529	19
0	66697	10209.773174712832	18
0	66706	10210.910758396275	19
0	66715	10211.786814919692	20
0	66717	10211.858812448863	21
0	66726	10213.295815118287	20
0	66739	10214.487840929009	21
0	66791	10222.874711143575	20
0	66802	10223.675915732968	21
0	66816	10225.561538020545	20
0	66874	10233.604626615464	19
0	66887	10234.855188954511	20
0	66894	10236.525824586374	19
0	66905	10237.435348015893	20
0	66924	10240.768691652527	19
0	66927	10241.300615842946	18
0	66931	10241.327511142681	19
0	66938	10242.137073642365	20
0	66939	10242.36794918862	19
0	66948	10243.70909634991	20
0	66949	10243.960123348262	19
0	66958	10245.360092808188	20
0	66959	10245.392567502593	19
0	66967	10247.257863759927	18
0	66975	10248.742779295172	17
0	66978	10249.423513464329	16
0	66981	10250.187176674304	15
0	66985	10250.875387687808	16
0	66986	10251.136602235285	15
0	66990	10251.266690074565	16
0	66991	10251.722642983522	15
0	66994	10252.711542541234	14
0	66998	10253.361538648778	15
0	66999	10253.394304180451	14
0	67003	10253.525411252056	15
0	67004	10254.140622190971	14
0	67007	10254.68467927927	13
0	67011	10255.172480391305	14
0	67012	10255.517098347031	13
0	67016	10255.674349842057	14
0	67023	10256.720239934656	15
0	67024	10256.88496956027	14
0	67027	10257.542587819862	13
0	67036	10258.10608160499	14
0	67038	10258.671090100967	15
0	67039	10258.703571746246	14
0	67048	10259.679345982362	15
0	67049	10259.95147819368	14
0	67052	10260.578248982763	13
0	67056	10261.160281078339	14
0	67057	10261.185434836222	13
0	67061	10261.497059686535	14
0	67068	10261.92012744467	15
0	67072	10262.407957771773	16
0	67077	10262.822897908847	17
0	67078	10262.963302416427	16
0	67087	10263.8152331443	17
0	67088	10264.545342769081	16
0	67091	10265.229137392368	15
0	67095	10265.360003443533	16
0	67096	10266.064817909503	15
0	67099	10266.969211360419	14
0	67103	10267.562004935959	15
0	67104	10267.934908015307	14
0	67108	10268.158186892315	15
0	67109	10268.860197852857	14
0	67112	10269.595662946652	13
0	67115	10270.172222126114	12
0	67119	10270.179793531216	13
0	67121	10270.297015361162	14
0	67123	10270.405210797551	15
0	67124	10270.657373767138	14
0	67133	10271.659954824894	15
0	67134	10271.904529399868	14
0	67140	10272.137571099575	15
0	67144	10273.073592951312	14
0	67148	10273.223296346651	15
0	67149	10273.741527845781	14
0	67152	10274.601621398121	13
0	67161	10275.191885988384	14
0	67162	10276.031734580944	13
0	67183	10278.753664238896	14
0	67192	10280.016454943993	13
0	67195	10280.564838509193	12
0	67199	10280.684546788157	13
0	67200	10281.114753401025	12
0	67204	10281.482280021148	13
0	67206	10281.886491812362	14
0	67207	10281.906292482677	13
0	67215	10283.280934425888	12
0	67218	10283.861988391147	11
0	67222	10284.188819945822	12
0	67223	10284.467572024397	11
0	67227	10284.617186326757	12
0	67228	10284.917430737035	11
0	67232	10285.176630442557	12
0	67233	10285.554364568766	11
0	67242	10286.406360590459	12
0	67243	10286.830464875072	11
0	67246	10287.779122729718	10
0	67250	10287.783532547801	11
0	67251	10288.688777951642	10
0	67254	10289.518448431443	9
0	67257	10290.170172538681	8
0	67261	10290.697899092393	9
0	67262	10290.997657061441	8
0	67265	10291.431973738389	7
0	67268	10292.271610972451	6
0	67272	10292.289571687794	7
0	67274	10292.594506518532	8
0	67275	10292.783824843194	7
0	67278	10293.317623277034	6
0	67281	10293.742983368251	5
0	67285	10294.505927142677	6
0	67286	10294.655244646387	5
0	67289	10295.432746061383	4
0	67293	10295.563748926046	5
0	67295	10295.641206845081	6
0	67296	10296.341726303453	5
0	67300	10297.163184806349	6
0	67302	10297.178151354936	7
0	67303	10297.231352945956	6
0	67307	10297.810539757694	7
0	67311	10297.902459477046	8
0	67316	10298.296627639209	9
0	67318	10298.703985425342	10
0	67319	10299.008201643432	9
0	67322	10299.736967223257	8
0	67326	10299.94643910274	9
0	67330	10300.157412146832	10
0	67334	10300.823545582759	9
0	67342	10302.041954219182	8
0	67345	10302.833268148665	7
0	67356	10303.627555429169	8
0	67370	10304.881368719419	9
0	67384	10306.58315116666	10
0	67391	10307.06428075304	11
0	67426	10312.403892538542	12
0	67443	10315.772879752358	11
0	67457	10317.25555216855	12
0	67471	10319.346205701782	13
0	67480	10320.762187273548	12
0	67496	10321.989047940032	13
0	67501	10322.441768283521	14
0	67522	10326.202242183853	13
0	67525	10327.071230734494	12
0	67529	10327.523228927326	13
0	67530	10328.0099063922	12
0	67534	10328.417160033993	13
0	67535	10328.922406009613	12
0	67538	10329.74977694613	11
0	67542	10329.795656943443	12
0	67544	10330.400640260485	13
0	67545	10330.435596628981	12
0	67548	10331.130934039159	11
0	67551	10331.570129871676	10
0	67555	10331.983549813677	11
0	67556	10332.043515768582	10
0	67559	10332.902627406809	9
0	67562	10333.579347028238	8
0	67566	10334.005271841011	9
0	67568	10334.385598487155	10
0	67569	10334.500629205051	9
0	67573	10335.055294682193	10
0	67574	10335.152939667906	9
0	67578	10335.271710712717	10
0	67579	10335.634841328514	9
0	67583	10336.062838368663	10
0	67584	10336.388874088255	9
0	67587	10336.975360759468	8
0	67591	10337.884975827939	9
0	67592	10337.956542371241	8
0	67596	10338.221751057087	9
0	67597	10338.422318870648	8
0	67601	10338.960834690192	9
0	67602	10339.320664873001	8
0	67606	10339.667723355646	9
0	67608	10339.769097789984	10
0	67610	10339.950065876223	11
0	67611	10339.95772351602	10
0	67614	10340.64523977626	9
0	67622	10342.127401910656	8
0	67626	10342.521936164472	9
0	67627	10342.541030983281	8
0	67631	10342.942394463458	9
0	67632	10343.037632549208	8
0	67635	10343.721839503458	7
0	67638	10344.677531943264	6
0	67642	10344.939243525649	7
0	67644	10345.203497803779	8
0	67646	10345.395529033586	9
0	67647	10345.434631749362	8
0	67650	10346.419750878893	7
0	67653	10346.860110933313	6
0	67657	10347.025927899514	7
0	67659	10347.171012150787	8
0	67660	10347.624815395268	7
0	67664	10347.628605289217	8
0	67665	10348.190260296155	7
0	67668	10349.137283957962	6
0	67671	10349.888878692666	5
0	67679	10351.382223302059	4
0	67683	10351.566632922322	5
0	67687	10351.830161375912	6
0	67692	10352.695656904692	7
0	67693	10352.742280690864	6
0	67701	10353.787953793238	5
0	67704	10354.405616069705	4
0	67707	10354.965516496989	3
0	67711	10355.68029970174	4
0	67712	10355.771852449169	3
0	67716	10356.300825171544	4
0	67718	10356.350810100315	5
0	67719	10356.533400292256	4
0	67722	10357.07747414492	3
0	67726	10357.083389258101	4
0	67732	10358.650987676465	3
0	67738	10359.240966502866	4
0	67743	10359.637475630464	5
0	67745	10360.269635183626	6
0	67746	10360.278435625955	5
0	67752	10360.861048774481	6
0	67757	10361.836061051484	7
0	67759	10362.088446524112	8
0	67761	10362.12068617571	9
0	67762	10362.202915699854	8
0	67796	10366.700870826495	9
0	67797	10367.319821997526	8
0	67800	10368.22028925687	7
0	67804	10368.888969885955	8
0	67805	10369.209215405331	7
0	67809	10369.587868017347	8
0	67810	10369.660285066328	7
0	67814	10370.283927103675	8
0	67815	10370.595800137873	7
0	67819	10371.178503103907	8
0	67820	10371.457886662734	7
0	67824	10371.592519744633	8
0	67825	10371.912801246745	7
0	67828	10372.538551659956	6
0	67831	10373.091378292934	5
0	67834	10373.684183906465	4
0	67838	10374.003095747997	5
0	67839	10374.529718357585	4
0	67843	10375.036918118221	5
0	67844	10375.171022124849	4
0	67847	10375.629032327728	3
0	67851	10375.673811107998	4
0	67852	10376.47638364423	3
0	67860	10377.872074316563	2
0	67864	10377.896625367787	3
0	67871	10378.690259796208	4
0	67872	10379.369529664823	3
0	67881	10380.15031679889	4
0	67882	10380.92032546129	3
0	67886	10381.199802896719	4
0	67887	10381.45179420242	3
0	67891	10381.680562549941	4
0	67897	10382.758324092607	3
0	67903	10383.039460438291	4
0	67905	10383.056442483796	5
0	67915	10384.216902269158	6
0	67916	10384.87268156575	5
0	67919	10385.560380888991	4
0	67923	10385.865877549141	5
0	67930	10386.848739341504	6
0	67936	10387.76867613241	5
0	67954	10389.969149922281	4
0	67965	10390.849659804571	5
0	67985	10393.197749125245	6
0	67986	10393.401256098485	5
0	67994	10394.881926638287	4
0	67997	10395.577367599195	3
0	68001	10396.54309356298	4
0	68002	10396.549531527169	3
0	68005	10397.37570743745	2
0	68009	10397.793882505237	3
0	68010	10397.99109694327	2
0	68013	10398.649602421026	1
0	68022	10399.603800277593	2
0	68023	10399.821945585149	1
0	68027	10400.226673512575	2
0	68028	10400.363493390918	1
0	68032	10400.603081332015	2
0	68034	10400.86461082604	3
0	68035	10401.271522393568	2
0	68039	10401.440336110546	3
0	68046	10402.251186799789	4
0	68048	10402.656193890897	5
0	68049	10402.671543600621	4
0	68052	10403.384397755402	3
0	68055	10404.160313479441	2
0	68058	10405.027473420535	1
0	68062	10405.593955741736	2
0	68063	10405.783427140374	1
0	68066	10406.332640637063	0
0	68070	10406.46260619361	1
0	68072	10406.715464445606	2
0	68074	10406.959919911994	3
0	68075	10407.194898249699	2
0	68079	10407.54666950961	3
0	68080	10407.696279590881	2
0	68083	10408.555773412461	1
0	68086	10409.428503712152	0
0	68090	10409.693043327275	1
0	68092	10410.281927128876	2
0	68093	10410.312008200983	1
0	68097	10410.552682340444	2
0	68098	10411.192390174257	1
0	68102	10411.679489698629	2
0	68103	10412.014892275563	1
0	68107	10412.372391497792	2
0	68109	10412.602196097175	3
0	68111	10412.704895243598	4
0	68112	10412.857949491801	3
0	68115	10413.570026166948	2
0	68119	10413.808823305745	3
0	68120	10414.304030825176	2
0	68123	10414.824382458559	1
0	68127	10415.082114505116	2
0	68129	10415.59897197703	3
0	68131	10415.635338385151	4
0	68132	10415.654290306034	3
0	68135	10416.587171768934	2
0	68139	10417.027824665454	3
0	68141	10417.196669741627	4
0	68142	10417.484411809618	3
0	68145	10418.241111780774	2
0	68149	10418.919784384984	3
0	68151	10419.154965269123	4
0	68152	10419.202915140266	3
0	68156	10419.371987804869	4
0	68158	10419.534076437379	5
0	68159	10419.677351633996	4
0	68162	10420.370822718717	3
0	68166	10420.803641626719	4
0	68167	10421.076002946241	3
0	68171	10421.833576406479	4
0	68173	10421.878387025598	5
0	68174	10422.044511289314	4
0	68178	10422.075484870296	5
0	68180	10422.260613234362	6
0	68181	10422.575290579374	5
0	68184	10423.379382338167	4
0	68187	10424.03314493641	3
0	68191	10424.041608352593	4
0	68192	10424.570552556847	3
0	68195	10425.020604467324	2
0	68199	10425.335783354785	3
0	68200	10425.668429018163	2
0	68204	10425.91269210324	3
0	68206	10426.15885455145	4
0	68208	10426.372541211081	5
0	68209	10426.446223171546	4
0	68213	10427.093513537214	5
0	68214	10427.183204643826	4
0	68217	10428.048330491341	3
0	68220	10428.50548816554	2
0	68223	10429.491120924128	1
0	68227	10429.771953677616	2
0	68229	10429.810168981589	3
0	68230	10429.916236926501	2
0	68234	10430.015474129151	3
0	68235	10430.721619078868	2
0	68239	10431.397728296153	3
0	68240	10431.613491315932	2
0	68244	10431.800243667984	3
0	68245	10432.043622676727	2
0	68248	10432.590174569354	1
0	68252	10433.072052478822	2
0	68253	10433.400994842385	1
0	68257	10433.729962852003	2
0	68258	10434.204566921785	1
0	68262	10434.515632126294	2
0	68263	10434.942884882519	1
0	68267	10435.760537704534	2
0	68268	10435.831865915077	1
0	68272	10436.284557945513	2
0	68273	10436.381638121212	1
0	68277	10436.395048748635	2
0	68278	10436.7847550832	1
0	68282	10437.203467812455	2
0	68283	10437.226696975975	1
0	68292	10438.307275603515	2
0	68294	10438.423025660757	3
0	68295	10438.659744516973	2
0	68298	10439.22627770489	1
0	68307	10439.978528968837	2
0	68309	10440.222894368836	3
0	68310	10440.64155014784	2
0	68313	10441.255805736109	1
0	68322	10442.006565736475	2
0	68323	10442.538503245478	1
0	68332	10443.896148736076	2
0	68333	10444.377378316297	1
0	68341	10445.972528087049	0
0	68345	10446.053281690235	1
0	68346	10446.683392284419	0
0	68352	10446.938517300819	1
0	68356	10448.506115832114	0
0	68360	10449.049926990035	1
0	68361	10449.135866645239	0
0	68365	10449.553197078513	1
0	68366	10449.659984753169	0
0	68370	10450.126219740654	1
0	68371	10450.339214513479	0
0	68377	10451.105610259908	1
0	68381	10451.607188966432	0
0	68400	10454.299181342512	1
0	68401	10454.623022232596	0
0	68405	10454.930096756099	1
0	68407	10455.052403017611	2
0	68408	10455.286359003298	1
0	68412	10455.799881735498	2
0	68413	10456.217796030287	1
0	68416	10457.046987579037	0
0	68430	10459.125825441422	1
0	68431	10459.252318319948	0
0	68445	10461.402059867688	1
0	68447	10461.557677120392	2
0	68448	10461.71439210074	1
0	68451	10462.662438593618	0
0	68455	10462.680218388913	1
0	68459	10462.966400238762	2
0	68464	10463.936481249996	3
0	68465	10464.333771935897	2
0	68469	10464.395110470331	3
0	68471	10464.902583434159	4
0	68472	10465.220602918929	3
0	68476	10465.912074303176	4
0	68477	10465.960202979763	3
0	68491	10467.034229250013	4
0	68492	10467.471625116841	3
0	68500	10468.970864156867	2
0	68506	10469.285211018348	3
0	68511	10470.299153011206	4
0	68512	10470.301444481268	3
0	68520	10470.457158665835	4
0	68527	10472.735984514282	3
0	68531	10472.917638465896	4
0	68540	10474.206169912586	5
0	68574	10479.728906945512	4
0	68588	10481.441139884188	5
0	68589	10481.904669270944	4
0	68592	10482.450634417916	3
0	68596	10482.852020735839	4
0	68602	10483.897373752343	3
0	68605	10484.846687859996	2
0	68609	10484.96314865783	3
0	68618	10486.333278646958	4
0	68628	10487.208693398331	5
0	68629	10488.027917332902	4
0	68642	10490.18255327521	3
0	68650	10491.721296257852	2
0	68656	10492.601510739494	3
0	68661	10492.947415063241	4
0	68662	10493.52040113071	3
0	68670	10494.861551364837	2
0	68673	10495.605513254367	1
0	68677	10496.061397594182	2
0	68678	10496.244039262692	1
0	68682	10496.370661406403	2
0	68683	10496.934226608323	1
0	68686	10497.402179721464	0
0	68695	10501.539614987095	1
0	68696	10501.977522231802	0
0	68700	10502.069664016989	1
0	68706	10503.506001523999	0
0	68719	10504.693774160808	1
0	68782	10513.619323265368	2
0	68783	10514.150367547734	1
0	68791	10515.347024578111	0
0	68804	10516.765708368451	1
0	68826	10518.781164255302	2
0	68843	10521.155543429706	1
0	68854	10521.772197505463	2
0	68863	10523.575452911037	1
0	68874	10524.572236493726	2
0	68888	10526.95591558779	1
0	68899	10528.454646963987	2
0	68901	10528.741262647428	3
0	68915	10530.971879726997	2
0	68926	10531.591144457341	3
0	68940	10534.035861294832	2
0	68944	10534.175719917986	3
0	68946	10534.276701511065	4
0	68947	10534.874988213763	3
0	68955	10535.043385759248	4
0	68960	10536.251330496009	5
0	68965	10536.773103095598	6
0	68966	10536.955123439501	5
0	68975	10538.200781821132	6
0	68976	10538.210147252469	5
0	68984	10539.373165048775	4
0	68988	10539.409254542095	5
0	68995	10540.646388060979	6
0	68996	10540.771104744146	5
0	69005	10541.502760089324	6
0	69006	10541.722058387496	5
0	69010	10541.946957828479	6
0	69017	10542.96820204233	7
0	69018	10543.002190074207	6
0	69027	10544.053454443183	7
0	69028	10544.134892251737	6
0	69037	10545.181073423094	7
0	69038	10546.082625860044	6
0	69041	10546.931896125267	5
0	69045	10547.040762831109	6
0	69046	10547.911232354746	5
0	69050	10548.09900373878	6
0	69051	10548.324798912623	5
0	69055	10548.79591991234	6
0	69056	10548.895829681422	5
0	69059	10549.731297731701	4
0	69062	10550.336083256196	3
0	69065	10550.849571960209	2
0	69069	10550.88229994561	3
0	69071	10550.915386042649	4
0	69078	10552.246902848923	5
0	69079	10552.635911821923	4
0	69090	10553.608866081722	5
0	69099	10554.975938235712	4
0	69107	10556.047199470294	3
0	69111	10556.493132271564	4
0	69120	10556.895729024156	5
0	69134	10559.765279631993	4
0	69153	10562.213884214645	5
0	69164	10563.014395451239	6
0	69196	10566.781085106913	7
0	69253	10574.887597702235	6
0	69262	10575.485389049741	7
0	69263	10576.016678667791	6
0	69272	10577.296993399234	7
0	69273	10577.334166404396	6
0	69276	10578.307451813832	5
0	69280	10578.823517107388	6
0	69281	10579.050184431743	5
0	69285	10579.273595531687	6
0	69286	10580.006572174864	5
0	69289	10580.678811303038	4
0	69293	10581.008935674517	5
0	69294	10581.461552962778	4
0	69298	10582.186203752014	5
0	69299	10582.380931549311	4
0	69303	10582.389924013054	5
0	69304	10583.14416326855	4
0	69307	10583.655760810409	3
0	69310	10584.242806818873	2
0	69314	10584.59884563702	3
0	69315	10584.849162525568	2
0	69319	10584.897198382078	3
0	69320	10585.332577547176	2
0	69324	10585.598717995957	3
0	69325	10585.862464599149	2
0	69328	10586.741637106403	1
0	69332	10587.131142432488	2
0	69334	10587.238548967605	3
0	69335	10587.544181653322	2
0	69339	10587.54840147933	3
0	69341	10588.094246928821	4
0	69342	10588.106551049534	3
0	69346	10588.375146896482	4
0	69347	10588.76601337141	3
0	69351	10588.951615626018	4
0	69353	10589.041805090536	5
0	69354	10589.542554021791	4
0	69358	10589.784114106184	5
0	69359	10590.428083602876	4
0	69368	10591.473721418232	5
0	69370	10591.637987919441	6
0	69371	10591.829230546883	5
0	69379	10593.246914596788	4
0	69382	10593.712754500543	3
0	69385	10594.401932481329	2
0	69388	10595.025262953878	1
0	69391	10595.864552076744	0
0	69395	10596.270409591898	1
0	69396	10596.306083579805	0
0	69402	10596.485066508098	1
0	69404	10596.867909343861	2
0	69408	10597.538052662998	1
0	69414	10598.073244669791	2
0	69418	10599.134992703913	1
0	69422	10599.349991080103	2
0	69428	10600.68584349712	1
0	69434	10601.421816416597	2
0	69436	10601.580804117127	3
0	69441	10602.03283763851	4
0	69442	10602.351201218158	3
0	69446	10602.478831157473	4
0	69455	10604.02438509058	5
0	69462	10605.046311401496	6
0	69464	10605.069724065447	7
0	69471	10605.851932888451	8
0	69476	10606.118029761666	9
0	69482	10607.183000434074	8
0	69491	10608.603934607742	9
0	69492	10608.775634943764	8
0	69496	10608.906315607378	9
0	69497	10609.245738140098	8
0	69501	10609.359244626993	9
0	69508	10610.383400437963	10
0	69509	10610.480497243977	9
0	69512	10611.2830874576	8
0	69521	10612.498842433663	9
0	69523	10612.634562955959	10
0	69524	10613.0198860151	9
0	69527	10613.598096929608	8
0	69533	10614.055434310714	9
0	69538	10614.406889338337	10
0	69540	10614.643700022379	11
0	69541	10615.185714382982	10
0	69544	10615.854015975237	9
0	69547	10616.725697355323	8
0	69551	10616.917571004815	9
0	69553	10617.280641756005	10
0	69554	10617.397990930664	9
0	69557	10617.922610007484	8
0	69561	10618.079109587547	9
0	69563	10618.588601109161	10
0	69564	10618.879473231385	9
0	69568	10619.276909005874	10
0	69574	10620.374733828731	9
0	69582	10622.000738224225	8
0	69585	10622.82938544436	7
0	69589	10623.037060389826	8
0	69590	10623.666509311531	7
0	69594	10624.238918592725	8
0	69595	10624.629974886799	7
0	69599	10625.398714822267	8
0	69600	10625.525505551487	7
0	69604	10625.933344270604	8
0	69605	10626.235629612976	7
0	69608	10627.155719241384	6
0	69612	10627.751449080432	7
0	69613	10628.149065607717	6
0	69616	10628.567900209479	5
0	69620	10629.398018985611	6
0	69621	10629.479999961775	5
0	69625	10630.129691717107	6
0	69626	10630.419837297896	5
0	69634	10632.305964111375	4
0	69638	10632.589512114696	5
0	69640	10632.769568061561	6
0	69641	10633.304106261559	5
0	69644	10633.773649255071	4
0	69648	10634.061884670864	5
0	69649	10634.658031907516	4
0	69653	10635.086880103902	5
0	69654	10635.592165275967	4
0	69658	10635.792464504382	5
0	69659	10636.369185219078	4
0	69663	10636.563698424328	5
0	69665	10636.715986049166	6
0	69666	10636.833697794263	5
0	69669	10637.484332800588	4
0	69672	10638.324551050296	3
0	69676	10638.373493437989	4
0	69677	10638.797140882654	3
0	69681	10638.983563241549	4
0	69682	10639.536310283817	3
0	69686	10639.872191983456	4
0	69688	10640.38251640836	5
0	69689	10640.441687098775	4
0	69692	10641.120740735741	3
0	69696	10641.49607107173	4
0	69697	10641.935868642037	3
0	69701	10642.178635320282	4
0	69702	10642.683462690446	3
0	69706	10642.95972076831	4
0	69710	10643.320984409394	5
0	69712	10643.565461488158	6
0	69719	10644.050470500035	7
0	69736	10645.668205177311	8
0	69755	10648.495708263783	7
0	69758	10649.417207803183	6
0	69761	10650.026889150521	5
0	69764	10650.883067449533	4
0	69767	10651.297451301363	3
0	69771	10651.896262491023	4
0	69773	10652.130092690155	5
0	69774	10652.284555988784	4
0	69778	10652.577932753999	5
0	69779	10653.255561038458	4
0	69783	10653.290100601092	5
0	69784	10653.988304454393	4
0	69787	10654.413385253332	3
0	69791	10654.779325656619	4
0	69793	10655.124315267507	5
0	69794	10655.31424734446	4
0	69797	10656.263202347772	3
0	69801	10656.816210458025	4
0	69802	10657.072070902332	3
0	69805	10657.654812794297	2
0	69809	10657.914714589414	3
0	69811	10657.939995066651	4
0	69812	10658.249901813294	3
0	69816	10658.706917914667	4
0	69817	10658.855572064013	3
0	69821	10658.863833401464	4
0	69823	10659.538344493438	5
0	69824	10659.583278732027	4
0	69827	10660.231299957519	3
0	69830	10660.718941837668	2
0	69834	10661.007801892343	3
0	69836	10661.350250814057	4
0	69837	10661.479946621161	3
0	69841	10661.821828302053	4
0	69842	10662.070844129359	3
0	69845	10662.693555696847	2
0	69849	10663.044319314212	3
0	69850	10663.612500525059	2
0	69854	10663.998362093323	3
0	69856	10664.097447996063	4
0	69857	10664.287631312877	3
0	69861	10664.311958579283	4
0	69862	10665.177822412996	3
0	69866	10665.792181518201	4
0	69867	10666.109987289811	3
0	69870	10666.562138779022	2
0	69873	10667.139220469285	1
0	69876	10667.944669271473	0
0	69885	10670.419649411207	1
0	69886	10670.819513132082	0
0	69890	10671.486492735098	1
0	69891	10671.633781305313	0
0	69895	10671.67579472013	1
0	69896	10672.60830940314	0
0	69900	10672.644107638203	1
0	69902	10673.310503203006	2
0	69903	10673.409008753704	1
0	69906	10674.221538860941	0
0	69910	10674.335311163218	1
0	69911	10674.65741959683	0
0	69915	10674.696539834998	1
0	69917	10675.15818858441	2
0	69919	10675.502144938249	3
0	69920	10675.504630553614	2
0	69924	10676.156639489075	3
0	69925	10676.200504568064	2
0	69929	10677.041551382569	3
0	69931	10677.171551012587	4
0	69932	10677.197586741236	3
0	69936	10677.384307903149	4
0	69937	10678.166820539704	3
0	69940	10678.85643126488	2
0	69944	10679.256811101786	3
0	69945	10679.271887953517	2
0	69948	10679.836546072115	1
0	69952	10679.862954137415	2
0	69954	10679.990477090576	3
0	69955	10680.343908567291	2
0	69958	10680.803173740983	1
0	69962	10681.330222878313	2
0	69963	10681.460488036724	1
0	69967	10682.112242309027	2
0	69968	10682.265478258424	1
0	69972	10682.987979395171	2
0	69973	10683.249311625662	1
0	69976	10683.859046461277	0
0	69980	10684.057719012449	1
0	69982	10684.134812428306	2
0	69983	10684.442708738458	1
0	69987	10685.056824697214	2
0	69988	10685.285901372724	1
0	69996	10686.682833939263	0
0	70005	10687.594981465862	1
0	70006	10688.146316981626	0
0	70012	10688.803434736789	1
0	70017	10689.010821972185	2
0	70019	10689.149859804758	3
0	70020	10689.58634934205	2
0	70024	10689.776293819047	3
0	70025	10690.024931556251	2
0	70029	10690.104703898537	3
0	70031	10690.409870285483	4
0	70038	10690.631283109933	5
0	70042	10690.91060513856	6
0	70064	10693.49566856033	7
0	70074	10695.710686729299	8
0	70075	10695.878695574947	7
0	70083	10697.698990811533	6
0	70089	10698.119925378845	7
0	70093	10699.200182798677	6
0	70102	10700.158151364078	7
0	70103	10700.616491645235	6
0	70112	10701.501589266951	7
0	70124	10703.115766350137	8
0	70126	10703.289292173524	9
0	70147	10706.758517046165	8
0	70150	10707.334739003362	7
0	70153	10707.873640065625	6
0	70157	10708.294899741854	7
0	70158	10708.671241488665	6
0	70161	10709.329210200378	5
0	70165	10709.780510377075	6
0	70166	10710.272423402624	5
0	70170	10710.274491159322	6
0	70176	10711.835422542397	5
0	70184	10713.036937134046	4
0	70190	10713.547133738697	5
0	70202	10714.475796471979	6
0	70204	10714.511993919466	7
0	70218	10716.996262601981	6
0	70226	10718.691342676556	5
0	70235	10719.352637581492	6
0	70236	10719.824001020085	5
0	70239	10720.435141690433	4
0	70248	10721.068392143231	5
0	70249	10721.956170551138	4
0	70258	10723.254552342427	5
0	70260	10723.590730750483	6
0	70261	10723.691301914849	5
0	70269	10725.480388827561	4
0	70280	10726.877611737394	5
0	70282	10726.90474417886	6
0	70306	10730.201766282538	5
0	70317	10731.310614461833	6
0	70322	10731.902739068734	7
0	70326	10732.278066522404	8
0	70341	10734.537983250039	9
0	70342	10734.627156079314	8
0	70345	10735.101661997554	7
0	70354	10735.610044877463	8
0	70355	10736.11509648006	7
0	70361	10736.511766143596	8
0	70365	10737.312846031305	7
0	70368	10738.264649696494	6
0	70372	10738.284153537885	7
0	70374	10738.333230992923	8
0	70376	10738.943056908524	9
0	70377	10739.162064572363	8
0	70381	10739.618448953183	9
0	70382	10740.105813816176	8
0	70386	10740.249290649247	9
0	70392	10741.84588513345	8
0	70401	10743.188562113603	9
0	70402	10743.372024850114	8
0	70406	10743.38264859694	9
0	70407	10744.084357962883	8
0	70416	10745.035984786494	9
0	70417	10745.590627512089	8
0	70421	10745.999895509895	9
0	70422	10746.313254138115	8
0	70426	10746.719048899368	9
0	70427	10746.846016891427	8
0	70430	10747.302079502666	7
0	70433	10748.206766936682	6
0	70437	10748.408371339561	7
0	70439	10748.502736325307	8
0	70440	10748.771919304957	7
0	70443	10749.431587938578	6
0	70446	10750.187902593506	5
0	70449	10750.834011201407	4
0	70452	10751.440649314816	3
0	70456	10751.72103997622	4
0	70457	10751.983057362852	3
0	70461	10752.464210220753	4
0	70463	10752.517410759977	5
0	70464	10752.82444652434	4
0	70468	10753.102780159988	5
0	70469	10753.24256766968	4
0	70472	10754.050479878984	3
0	70476	10754.663588819167	4
0	70477	10754.948877625899	3
0	70480	10755.862029172094	2
0	70483	10756.563502971069	1
0	70489	10757.064067487049	2
0	70494	10757.557572212868	3
0	70496	10758.019728001858	4
0	70497	10758.174985130909	3
0	70506	10758.97572653095	4
0	70508	10759.249559291366	5
0	70510	10759.423112014343	6
0	70511	10759.593502811376	5
0	70515	10759.796859623977	6
0	70516	10760.201469945941	5
0	70520	10760.610963901319	6
0	70521	10760.834371059235	5
0	70524	10761.43457047137	4
0	70528	10761.816502508081	5
0	70529	10762.369414391495	4
0	70533	10762.865863867199	5
0	70535	10762.934920680431	6
0	70536	10763.30496809607	5
0	70540	10763.557635375528	6
0	70541	10764.243036298534	5
0	70545	10764.487872692208	6
0	70547	10764.85127835326	7
0	70548	10765.031688088492	6
0	70551	10765.930467168974	5
0	70555	10766.577211432054	6
0	70556	10766.63666308954	5
0	70560	10767.044212721452	6
0	70561	10767.062721274128	5
0	70565	10767.261343439399	6
0	70566	10767.683334154157	5
0	70570	10767.821802708614	6
0	70571	10768.240749108126	5
0	70575	10768.4313561578	6
0	70582	10769.22893414641	7
0	70583	10770.060136473538	6
0	70587	10770.092073110681	7
0	70593	10771.318278011946	6
0	70599	10771.782535779073	7
0	70603	10772.356457906622	6
0	70609	10772.441399038729	7
0	70616	10773.656224662757	8
0	70630	10776.319175848351	7
0	70641	10777.642586027142	8
0	70645	10778.665853554788	7
0	70661	10780.774193201954	8
0	70670	10782.370760788988	7
0	70679	10783.235191512495	8
0	70681	10783.70424428946	9
0	70682	10784.083628711603	8
0	70690	10785.515194024365	7
0	70698	10787.186020632401	6
0	70706	10788.053920128463	5
0	70710	10788.212339485824	6
0	70716	10789.638717499316	5
0	70720	10789.794171394451	6
0	70727	10790.703512191167	7
0	70728	10790.79260083892	6
0	70732	10790.97565092908	7
0	70736	10791.371317234424	8
0	70740	10792.259722019393	7
0	70748	10793.726132676411	6
0	70752	10794.354536467792	7
0	70753	10794.584725893229	6
0	70757	10794.770412794227	7
0	70759	10794.864342268393	8
0	70760	10795.375000181874	7
0	70763	10796.020948705762	6
0	70766	10796.967880907874	5
0	70770	10797.046077401689	6
0	70772	10797.142643117618	7
0	70773	10797.543901004256	6
0	70776	10798.09866166947	5
0	70780	10798.15976106722	6
0	70781	10798.771571001351	5
0	70785	10798.820245892335	6
0	70786	10799.29979239049	5
0	70789	10800.069144595821	4
0	70793	10800.537908665106	5
0	70794	10800.9978473605	4
0	70797	10801.488554971327	3
0	70800	10802.278672623995	2
0	70803	10803.147111553966	1
0	70806	10803.937191935942	0
0	70815	10804.799196793163	1
0	70816	10805.268541271818	0
0	70820	10805.298194284528	1
0	70822	10805.400258386413	2
0	70828	10806.691206618186	1
0	70832	10807.278278401906	2
0	70833	10807.596469567783	1
0	70837	10808.155752657091	2
0	70838	10808.508899244919	1
0	70842	10808.866261471855	2
0	70843	10809.110073315652	1
0	70857	10811.055123493982	2
0	70863	10812.384561539322	1
0	70867	10812.587320311257	2
0	70869	10812.609739750819	3
0	70880	10813.441693523062	4
0	70882	10813.5395061396	5
0	70894	10815.436138283156	4
0	70897	10816.000397870757	3
0	70900	10816.417889108949	2
0	70903	10816.858849298835	1
0	70906	10817.663751614627	0
0	70910	10817.67815637834	1
0	70911	10818.573348451706	0
0	70915	10818.772492297969	1
0	70917	10819.127097911854	2
0	70918	10819.220753111665	1
0	70922	10819.723816756014	2
0	70923	10819.854881622664	1
0	70927	10820.429911474435	2
0	70928	10820.458612836593	1
0	70932	10820.779661229846	2
0	70933	10820.956552778159	1
0	70937	10821.612002504783	2
0	70938	10821.905296903125	1
0	70942	10822.029413569348	2
0	70944	10822.125944162224	3
0	70945	10822.416831940853	2
0	70949	10822.913349354598	3
0	70950	10823.203939809252	2
0	70953	10823.646473131769	1
0	70966	10824.833807518888	2
0	70976	10825.797901337697	3
0	70983	10826.345563139943	4
0	70987	10827.068934741638	3
0	70996	10827.837795227405	4
0	70997	10828.695823514949	3
0	71000	10829.533667909096	2
0	71009	10830.414049567374	3
0	71010	10830.854093232306	2
0	71019	10831.866532586539	3
0	71020	10831.895115377682	2
0	71026	10832.323940527353	3
0	71031	10832.766745284292	4
0	71032	10832.865414948922	3
0	71041	10833.896338129119	4
0	71042	10834.299093530302	3
0	71050	10835.301628869747	2
0	71053	10835.727486632833	1
0	71057	10835.898691479802	2
0	71059	10835.976161020135	3
0	71061	10836.19748575871	4
0	71062	10836.253668572915	3
0	71065	10837.082731127667	2
0	71069	10837.715257253621	3
0	71071	10837.835286894592	4
0	71072	10838.05175545078	3
0	71075	10838.82320519008	2
0	71079	10839.02478626936	3
0	71080	10839.418188198398	2
0	71084	10839.802653353086	3
0	71085	10839.913692252732	2
0	71089	10840.319239683441	3
0	71090	10840.509460267493	2
0	71094	10840.636199789758	3
0	71096	10840.77460219601	4
0	71098	10840.924025521627	5
0	71099	10841.062762200063	4
0	71102	10841.608036395324	3
0	71105	10842.139805936277	2
0	71108	10842.543897191132	1
0	71112	10842.91922064181	2
0	71113	10843.024177049729	1
0	71117	10843.567134190827	2
0	71119	10843.901008302347	3
0	71120	10843.937391467323	2
0	71123	10844.519483056316	1
0	71127	10844.588860214658	2
0	71128	10845.333267387818	1
0	71131	10846.218928142055	0
0	71135	10846.242395164233	1
0	71137	10846.253796608509	2
0	71138	10846.803078479995	1
0	71142	10846.921392952355	2
0	71143	10847.359833476157	1
0	71147	10847.861787575396	2
0	71148	10848.105217565945	1
0	71151	10849.020618701656	0
0	71170	10852.619898374165	1
0	71176	10854.268321474555	0
0	71185	10855.266210164942	1
0	71186	10855.752355441877	0
0	71197	10856.900141058155	1
0	71202	10857.192582105024	2
0	71206	10857.254068972469	3
0	71216	10858.701116865694	4
0	71262	10864.132369033578	5
0	71279	10866.984719558487	4
0	71282	10867.712970879775	3
0	71285	10868.363009848686	2
0	71289	10868.635166774925	3
0	71290	10869.292109795015	2
0	71299	10869.8545306962	3
0	71301	10870.125650995506	4
0	71303	10870.540691123531	5
0	71304	10870.666990670382	4
0	71308	10871.089422330062	5
0	71309	10871.419523222425	4
0	71313	10871.539927064709	5
0	71314	10872.393469675404	4
0	71317	10873.230761546369	3
0	71320	10873.851795469092	2
0	71323	10874.571711724864	1
0	71326	10875.15197245782	0
0	71330	10875.169521535636	1
0	71331	10876.034323400499	0
0	71340	10877.44854875352	1
0	71342	10877.539130885526	2
0	71344	10878.100215160324	3
0	71345	10878.244121251922	2
0	71356	10879.037396855501	3
0	71361	10879.922262252562	4
0	71362	10880.539822936213	3
0	71411	10886.039147497955	4
0	71412	10886.62166008881	3
0	71415	10887.062558412288	2
0	71419	10887.173369865336	3
0	71428	10888.343619262832	4
0	71432	10888.98210050847	3
0	71440	10889.886253672667	2
0	71443	10890.718623253811	1
0	71447	10890.88267901863	2
0	71448	10891.195231515137	1
0	71452	10891.246623888607	2
0	71458	10892.526182833189	1
0	71464	10893.421163421519	2
0	71469	10893.592958377504	3
0	71470	10894.395854615947	2
0	71473	10895.041514193281	1
0	71476	10895.675112942434	0
0	71480	10896.277655140614	1
0	71481	10896.555583470934	0
0	71490	10898.662337306162	1
0	71491	10899.031448857548	0
0	71495	10899.123172784794	1
0	71497	10899.43217133887	2
0	71498	10899.705652559936	1
0	71502	10900.181421698763	2
0	71503	10900.414394543242	1
0	71507	10900.695336370337	2
0	71508	10901.239885641277	1
0	71511	10901.843379766788	0
0	71515	10902.041653794896	1
0	71516	10902.760967450464	0
0	71535	10908.266052570016	1
0	71536	10908.709680359038	0
0	71570	10914.140101826108	1
0	71572	10914.19311471783	2
0	71574	10914.237831841831	3
0	71575	10914.325400048243	2
0	71579	10914.817902636238	3
0	71580	10915.307181978068	2
0	71583	10915.724362645653	1
0	71587	10916.021585772929	2
0	71588	10916.288504553988	1
0	71591	10916.783593106206	0
0	71595	10917.091510368561	1
0	71597	10917.117920217959	2
0	71598	10917.316245943011	1
0	71602	10917.326778643197	2
0	71603	10917.911665818916	1
0	71606	10918.563873378962	0
0	71610	10918.730432132872	1
0	71612	10918.760358131265	2
0	71613	10919.527387616208	1
0	71617	10919.706839571933	2
0	71618	10920.314801477298	1
0	71622	10920.666425580673	2
0	71624	10920.787939428543	3
0	71625	10921.253862200055	2
0	71629	10921.512461720833	3
0	71631	10921.556585383072	4
0	71632	10922.173171784945	3
0	71635	10922.596174225055	2
0	71638	10923.37685448088	1
0	71641	10924.057425217733	0
0	71650	10925.110866985791	1
0	71651	10925.681115765153	0
0	71655	10926.335059816311	1
0	71656	10926.365915242564	0
0	71660	10926.837589135778	1
0	71661	10926.953738021972	0
0	71665	10927.19918427001	1
0	71667	10927.370701012362	2
0	71668	10927.771659457758	1
0	71671	10928.254394391719	0
0	71675	10929.078480732849	1
0	71676	10929.253202536357	0
0	71680	10929.886796991705	1
0	71686	10930.851812624819	0
0	71690	10931.587919619004	1
0	71691	10931.611228138003	0
0	71702	10933.301854986005	1
0	71704	10933.309469451642	2
0	71713	10935.017607002267	1
0	71716	10935.512143987677	0
0	71720	10935.618031145844	1
0	71727	10936.262896349273	2
0	71728	10936.547132072765	1
0	71736	10937.891005054563	0
0	71745	10938.911917361588	1
0	71746	10939.5547247764	0
0	71770	10942.361985678763	1
0	71771	10942.578036189021	0
0	71785	10944.747702722826	1
0	71786	10945.002154126086	0
0	71795	10945.946942757996	1
0	71796	10946.626497216218	0
0	71830	10956.381573055216	1
0	71831	10956.740332415606	0
0	71842	10957.692226598505	1
0	71847	10957.782374602018	2
0	71848	10958.266666199813	1
0	71851	10958.925164755375	0
0	71855	10958.98845787425	1
0	71856	10959.535819627938	0
0	71865	10960.297679467835	1
0	71867	10960.580644969118	2
0	71868	10961.194345336256	1
0	71877	10962.531045204838	2
0	71878	10962.552476463408	1
0	71881	10963.275815740495	0
0	71885	10963.58647229195	1
0	71886	10964.239689774846	0
0	71890	10965.057654817346	1
0	71891	10965.080819302273	0
0	71895	10965.594996005586	1
0	71896	10965.763101359305	0
0	71920	10971.500816012576	1
0	71921	10971.893312320441	0
0	71930	10974.177744099926	1
0	71931	10974.243288212613	0
0	71940	10974.875512351418	1
0	71941	10975.375450354552	0
0	71945	10975.939727951519	1
0	71946	10976.154470758855	0
0	71950	10976.353770484958	1
0	71951	10976.946405950531	0
0	71955	10977.122981286967	1
0	71957	10977.209444433317	2
0	71958	10977.608180383935	1
0	71962	10977.670764781631	2
0	71964	10977.695995408135	3
0	71966	10977.92805562995	4
0	71967	10978.341037621086	3
0	71970	10978.844690186314	2
0	71974	10978.87854720069	3
0	71976	10978.96113569191	4
0	71978	10978.965498361948	5
0	71979	10979.811186534276	4
0	71983	10979.853697855835	5
0	71984	10980.439844597846	4
0	71988	10980.540859806558	5
0	71989	10981.007215497473	4
0	71992	10981.870208558829	3
0	71995	10982.428343024726	2
0	71999	10982.541740974774	3
0	72000	10982.960695854497	2
0	72003	10983.844761174374	1
0	72007	10983.919860170183	2
0	72008	10984.287107240564	1
0	72012	10985.144660386122	2
0	72013	10985.185149835205	1
0	72016	10985.818628429078	0
0	72025	10987.623999299004	1
0	72026	10988.389903934458	0
0	72050	10993.931182419223	1
0	72051	10994.507947111093	0
0	72065	10998.003080603732	1
0	72066	10998.6510964585	0
0	72090	11004.366814464742	1
0	72092	11004.581581166474	2
0	72093	11004.75866104237	1
0	72096	11005.569540466491	0
0	72105	11006.631749222095	1
0	72106	11006.838547572283	0
0	72110	11007.240920876382	1
0	72111	11007.370124824833	0
0	72120	11011.009412686104	1
0	72122	11011.096874260646	2
0	72124	11011.239161888009	3
0	72130	11012.438052661021	2
0	72134	11012.916280874299	3
0	72141	11013.543339779979	4
0	72142	11014.229920660847	3
0	72150	11015.68636651994	2
0	72154	11016.115714704238	3
0	72155	11016.255029261255	2
0	72159	11016.508180418372	3
0	72161	11016.613001467721	4
0	72168	11017.318086236141	5
0	72169	11017.785885505148	4
0	72175	11018.026350449577	5
0	72182	11018.762435013039	6
0	72206	11022.348114210322	5
0	72217	11022.904598239628	6
0	72231	11026.338851720841	5
0	72240	11027.113809562476	6
0	72241	11027.588604788717	5
0	72244	11028.278337958131	4
0	72248	11028.457258893872	5
0	72250	11028.649220781967	6
0	72251	11029.169686693374	5
0	72255	11029.399213449288	6
0	72257	11029.83681489604	7
0	72258	11030.070250613663	6
0	72262	11030.339999098357	7
0	72263	11030.473149583164	6
0	72267	11031.048989150232	7
0	72268	11031.142098932249	6
0	72272	11031.456167199076	7
0	72273	11031.552235642869	6
0	72277	11031.607498443848	7
0	72279	11031.861266888236	8
0	72281	11032.037645937583	9
0	72282	11032.156949840302	8
0	72285	11032.689110745166	7
0	72289	11033.01868788695	8
0	72290	11033.231908450837	7
0	72294	11033.233761197449	8
0	72296	11033.293224539765	9
0	72297	11034.064115584132	8
0	72300	11034.741406135683	7
0	72303	11035.561832548075	6
0	72306	11036.528350201298	5
0	72312	11036.900278455949	6
0	72317	11037.564753393078	7
0	72318	11037.789424662621	6
0	72322	11037.982605956474	7
0	72328	11039.254314585359	6
0	72336	11040.477012630275	5
0	72342	11041.091013148988	6
0	72347	11042.104806118231	7
0	72348	11042.392981984422	6
0	72352	11042.695935331215	7
0	72359	11043.523712776969	8
0	72361	11043.84040880773	9
0	72362	11043.98822345515	8
0	72365	11044.492450205891	7
0	72371	11044.95975459555	8
0	72375	11045.87295392426	7
0	72378	11046.349764630201	6
0	72384	11046.870880644973	7
0	72388	11047.660499882282	6
0	72391	11048.166703649194	5
0	72400	11049.391140326729	6
0	72401	11049.966938521483	5
0	72410	11051.070152335445	6
0	72411	11051.762721677687	5
0	72419	11053.106862484761	4
0	72428	11053.898854832944	5
0	72429	11054.824145416733	4
0	72440	11055.377045194586	5
0	72444	11056.614134728587	4
0	72447	11057.610827988996	3
0	72455	11059.463139728647	2
0	72464	11060.57536497126	3
0	72465	11061.190868620997	2
0	72468	11061.787195473727	1
0	72471	11062.384506083051	0
0	72485	11063.769352261333	1
0	72486	11063.821725339296	0
0	72494	11064.531812761667	1
0	72499	11065.304207153681	2
0	72501	11065.584168899363	3
0	72536	11070.375860967963	4
0	72537	11071.093183008295	3
0	72540	11071.635336674091	2
0	72543	11072.373080349148	1
0	72547	11072.570653241973	2
0	72549	11072.627262960622	3
0	72550	11073.002813152217	2
0	72553	11073.689333047664	1
0	72556	11074.482187657004	0
0	72562	11075.0253154168	1
0	72567	11075.745802988125	2
0	72568	11076.438711258062	1
0	72572	11076.684570454906	2
0	72578	11077.913131424963	1
0	72587	11078.913312864766	2
0	72589	11079.118798104843	3
0	72590	11079.236539149463	2
0	72594	11079.285338250541	3
0	72596	11079.312698335545	4
0	72597	11079.874679582419	3
0	72605	11081.448213182476	2
0	72609	11081.737121294606	3
0	72611	11081.827591743425	4
0	72613	11082.081275599099	5
0	72614	11082.13369099404	4
0	72623	11083.371813727153	5
0	72624	11083.595031315733	4
0	72633	11084.453239947606	5
0	72634	11084.870135522393	4
0	72640	11085.567562035477	5
0	72644	11086.382350496475	4
0	72648	11086.832819925638	5
0	72655	11087.434093134045	6
0	72657	11087.810716503361	7
0	72658	11087.836038872033	6
0	72666	11089.581962399037	5
0	72675	11090.423954876425	6
0	72676	11090.645006850307	5
0	72685	11091.827808149713	6
0	72687	11091.927706891725	7
0	72688	11091.928521572184	6
0	72697	11092.798422940188	7
0	72698	11093.300596246161	6
0	72707	11094.456087613238	7
0	72708	11094.656767882724	6
0	72711	11095.100363747534	5
0	72715	11095.377801473036	6
0	72716	11095.822702040561	5
0	72719	11096.71061937077	4
0	72722	11097.141422390929	3
0	72726	11097.511394468406	4
0	72727	11097.84708232469	3
0	72731	11097.868539693911	4
0	72732	11098.773423644054	3
0	72736	11098.850186780211	4
0	72737	11099.195612389679	3
0	72740	11099.985229997002	2
0	72744	11100.236374702371	3
0	72745	11100.490136759533	2
0	72748	11101.445774747283	1
0	72752	11101.61761460633	2
0	72753	11102.315709632952	1
0	72756	11102.733609197932	0
0	72760	11102.752450688863	1
0	72761	11103.25397719754	0
0	72765	11103.647160601944	1
0	72766	11104.112358530882	0
0	72795	11115.285019660744	1
0	72796	11115.910258964836	0
0	72800	11116.251823240145	1
0	72801	11116.717608720498	0
0	72815	11120.677919859827	1
0	72817	11121.396045722279	2
0	72818	11121.508038298361	1
0	72822	11121.771724911045	2
0	72824	11121.883650839677	3
0	72825	11122.388642943319	2
0	72829	11122.390093919499	3
0	72830	11123.117892654188	2
0	72833	11123.906207295641	1
0	72837	11124.392467276901	2
0	72839	11124.714228933642	3
0	72840	11124.799407830083	2
0	72844	11125.042476801335	3
0	72845	11125.246771083207	2
0	72849	11125.456982427421	3
0	72851	11125.650206779289	4
0	72852	11125.906075159361	3
0	72856	11126.063178807953	4
0	72862	11127.564105992013	3
0	72868	11127.65477655012	4
0	72872	11128.785846285609	3
0	72878	11129.12339362601	4
0	72880	11129.237573637365	5
0	72885	11129.675091518221	6
0	72886	11130.220719349099	5
0	72892	11130.53955678402	6
0	72897	11131.194806701914	7
0	72898	11131.695450786356	6
0	72901	11132.359049387038	5
0	72905	11132.802396797387	6
0	72907	11132.82468510165	7
0	72908	11133.045248379926	6
0	72912	11134.020418257836	7
0	72913	11134.033876519599	6
0	72917	11134.371099713301	7
0	72919	11134.569347455295	8
0	72921	11134.950128219342	9
0	72922	11134.985204521562	8
0	72926	11135.381616618996	9
0	72927	11135.94937433735	8
0	72930	11136.351919444972	7
0	72933	11137.314421183379	6
0	72937	11138.276535940389	7
0	72938	11138.284671468097	6
0	72942	11138.78844617787	7
0	72943	11139.062814117405	6
0	72946	11140.030119521725	5
0	72950	11140.085443686754	6
0	72951	11140.758732193424	5
0	72957	11140.943828926602	6
0	72959	11141.394234986405	7
0	72963	11141.971027456918	6
0	72969	11142.277858318736	7
0	72971	11142.296821747762	8
0	72975	11143.201319132973	7
0	72984	11144.144980395706	8
0	72985	11144.425643313485	7
0	72989	11144.634859259253	8
0	72993	11145.186474019384	9
0	72997	11145.79556747274	8
0	73005	11147.47621006276	7
0	73008	11148.120130979125	6
0	73016	11149.375451102988	5
0	73024	11150.7822974686	4
0	73033	11152.053838609135	5
0	73034	11152.623913216679	4
0	73037	11153.09548123972	3
0	73040	11153.562290797936	2
0	73046	11153.960343155066	3
0	73050	11155.130371960061	2
0	73059	11156.149184805168	3
0	73060	11156.413638180442	2
0	73066	11156.733855877175	3
0	73071	11157.162254215428	4
0	73072	11157.670678034047	3
0	73081	11159.088471389948	4
0	73082	11159.17769564576	3
0	73088	11159.522095498016	4
0	73093	11160.241787081925	5
0	73095	11160.361622225404	6
0	73097	11160.592281797967	7
0	73104	11160.777066015628	8
0	73143	11166.983474650816	9
0	73150	11167.919624320368	10
0	73159	11169.205166832726	9
0	73167	11170.670729536745	8
0	73173	11171.038258897412	9
0	73178	11171.826969108134	10
0	73194	11173.880162891416	9
0	73205	11174.699577479611	10
0	73219	11176.801757666604	9
0	73222	11177.271587204836	8
0	73228	11178.107598413617	9
0	73233	11178.798270421999	10
0	73234	11178.934915065575	9
0	73240	11179.30198919263	10
0	73247	11180.297994087577	11
0	73256	11182.037657172089	10
0	73264	11183.77125185844	9
0	73275	11185.126265078415	10
0	73287	11186.954882159277	11
0	73296	11188.187716172491	10
0	73299	11188.658687496646	9
0	73302	11189.39568078727	8
0	73306	11189.598551120056	9
0	73307	11190.23987015164	8
0	73311	11190.743848897484	9
0	73312	11190.808860026901	8
0	73316	11191.31998340879	9
0	73317	11191.562953732438	8
0	73320	11191.988919922147	7
0	73324	11192.178423134271	8
0	73325	11192.448297076389	7
0	73329	11193.083525938538	8
0	73330	11193.254652726739	7
0	73334	11193.365409768313	8
0	73335	11193.734301123624	7
0	73339	11194.11704757088	8
0	73340	11194.282038711752	7
0	73344	11194.69749134928	8
0	73346	11194.787899243907	9
0	73347	11195.110938729807	8
0	73350	11195.636192102959	7
0	73354	11195.929524580873	8
0	73355	11196.155614657556	7
0	73358	11196.98276589084	6
0	73361	11197.701920149192	5
0	73365	11197.92952499972	6
0	73367	11197.933138602499	7
0	73369	11198.049272282346	8
0	73370	11198.576386458795	7
0	73374	11198.617525036573	8
0	73376	11198.751921935553	9
0	73378	11199.041909466637	10
0	73379	11199.122777050217	9
0	73382	11199.563631287259	8
0	73385	11200.507314621094	7
0	73389	11200.675459597967	8
0	73391	11201.124415445155	9
0	73393	11201.13082021369	10
0	73394	11201.488932713489	9
0	73397	11202.170936780092	8
0	73400	11202.696439603432	7
0	73403	11203.296510496824	6
0	73406	11203.847360601597	5
0	73410	11204.642702489756	6
0	73411	11204.832274637692	5
0	73419	11205.769597945125	4
0	73428	11206.443230124023	5
0	73429	11206.804445165485	4
0	73438	11207.842249918649	5
0	73439	11208.651883117757	4
0	73443	11208.718342921762	5
0	73445	11208.978961790397	6
0	73446	11209.072473477056	5
0	73449	11209.506035989472	4
0	73453	11209.806385323532	5
0	73454	11210.130058556046	4
0	73458	11210.57833365882	5
0	73459	11210.879108165946	4
0	73463	11211.152752864822	5
0	73464	11211.326141527338	4
0	73470	11212.073294940988	5
0	73487	11213.464389738872	6
0	73492	11214.299137170606	7
0	73496	11214.730381724226	8
0	73503	11215.351170604073	9
0	73510	11216.350342786709	10
0	73537	11220.157492572063	11
0	73551	11222.578802805903	10
0	73557	11222.897596915786	11
0	73559	11223.021087177411	12
0	73566	11223.581006118514	13
0	73570	11224.361726965891	12
0	73573	11225.073822354615	11
0	73581	11226.218449408092	10
0	73587	11226.417626898286	11
0	73602	11228.294364108112	12
0	73604	11228.560827024418	13
0	73605	11229.036618125062	12
0	73614	11229.833037733595	13
0	73615	11230.376257111826	12
0	73619	11230.854427658648	13
0	73620	11231.332006206312	12
0	73623	11231.903994273389	11
0	73634	11233.076448292344	12
0	73639	11233.562242507422	13
0	73640	11234.033859038813	12
0	73644	11234.718008539712	13
0	73645	11234.989788189571	12
0	73654	11236.119766663604	13
0	73655	11236.187742974091	12
0	73663	11237.561468954658	11
0	73667	11237.919970784243	12
0	73668	11238.042159931356	11
0	73671	11238.471773494635	10
0	73682	11239.093824311385	11
0	73687	11240.078926320819	12
0	73688	11240.36182031156	11
0	73691	11240.965396533203	10
0	73697	11241.322115759638	11
0	73702	11241.455295675376	12
0	73703	11241.997397024692	11
0	73712	11242.576844208989	12
0	73714	11242.823961533096	13
0	73715	11243.210723146885	12
0	73718	11243.684878930119	11
0	73721	11244.484034694401	10
0	73724	11245.000379686705	9
0	73728	11245.52745613353	10
0	73729	11245.982982974169	9
0	73733	11246.283709631652	10
0	73734	11246.938752600965	9
0	73738	11247.100670251543	10
0	73745	11248.667020461223	11
0	73746	11248.679643905577	10
0	73750	11248.696718153673	11
0	73752	11249.077244173423	12
0	73753	11249.560715240515	11
0	73757	11249.581781837807	12
0	73759	11249.616836854401	13
0	73760	11250.299582483848	12
0	73763	11250.823073290983	11
0	73767	11251.285068434643	12
0	73769	11251.624638932637	13
0	73770	11251.806700174507	12
0	73774	11252.569408895411	13
0	73775	11252.610880419236	12
0	73778	11253.590444279552	11
0	73782	11253.800319401771	12
0	73783	11254.097745322107	11
0	73787	11254.159328104845	12
0	73788	11254.675606226219	11
0	73792	11254.676527138021	12
0	73794	11254.730814011731	13
0	73795	11255.450868653968	12
0	73799	11255.498736482369	13
0	73800	11256.059041898554	12
0	73804	11256.173444696238	13
0	73805	11256.855059617568	12
0	73808	11257.336882037759	11
0	73812	11257.7615338833	12
0	73813	11258.181676273789	11
0	73817	11258.18840800038	12
0	73818	11258.640442542495	11
0	73821	11259.306053547883	10
0	73825	11259.886845470981	11
0	73826	11259.93290992416	10
0	73829	11260.883228857718	9
0	73833	11260.892960856347	10
0	73835	11261.109583227248	11
0	73837	11261.141695288062	12
0	73838	11261.639769790085	11
0	73841	11262.293310164517	10
0	73845	11262.555979572845	11
0	73846	11263.060642834656	10
0	73849	11263.765874104198	9
0	73852	11264.316977881823	8
0	73856	11264.564742919997	9
0	73857	11264.965524433038	8
0	73860	11265.849356128319	7
0	73863	11266.655084534732	6
0	73866	11267.154643338218	5
0	73869	11268.11068992377	4
0	73872	11268.85194601258	3
0	73876	11269.553530365705	4
0	73877	11269.628263085612	3
0	73881	11270.018125259237	4
0	73883	11270.057416431573	5
0	73884	11270.446016404589	4
0	73887	11271.097488613564	3
0	73891	11271.488915574009	4
0	73892	11271.612003930143	3
0	73895	11272.016461818802	2
0	73899	11272.024994731801	3
0	73900	11272.949509503643	2
0	73909	11274.035433584789	3
0	73910	11274.112829395893	2
0	73913	11275.011766078786	1
0	73916	11275.901846530099	0
0	73930	11277.867141273783	1
0	73931	11277.872534857638	0
0	73945	11279.859760442127	1
0	73947	11279.90072228509	2
0	73949	11280.038862695299	3
0	73950	11280.353073536647	2
0	73953	11281.120884188586	1
0	73956	11281.990874463548	0
0	73960	11282.338885173384	1
0	73962	11282.499368411934	2
0	73964	11282.568274524458	3
0	73965	11282.631136168861	2
0	73969	11282.983508799028	3
0	73971	11283.058893085204	4
0	73973	11283.077120447251	5
0	73975	11283.17877420892	6
0	73976	11283.604828525004	5
0	73980	11284.056935450326	6
0	73982	11284.101675066147	7
0	73983	11284.119784156228	6
0	73987	11284.393539972481	7
0	73988	11284.73532951795	6
0	73992	11285.023817776165	7
0	73994	11285.127404515156	8
0	73996	11285.145917153767	9
0	73997	11285.634137081117	8
0	74000	11286.250585810975	7
0	74003	11286.96160543174	6
0	74009	11287.473426807448	7
0	74013	11288.225387923228	6
0	74019	11289.0208849045	7
0	74024	11289.374501176788	8
0	74025	11289.927589790099	7
0	74029	11290.14232189468	8
0	74036	11290.914382893894	9
0	74037	11291.373296989961	8
0	74040	11292.267023609667	7
0	74054	11293.167460768855	8
0	74055	11294.001080094831	7
0	74061	11294.430549824643	8
0	74065	11295.163029967243	7
0	74069	11295.26699004881	8
0	74070	11295.803467572242	7
0	74074	11296.15287153008	8
0	74075	11296.225146265648	7
0	74079	11296.568641729617	8
0	74080	11297.051176434749	7
0	74083	11297.501313817588	6
0	74086	11297.934903349349	5
0	74090	11298.07389774747	6
0	74091	11298.398792879929	5
0	74094	11298.976982446148	4
0	74097	11299.830005658365	3
0	74100	11300.291975534189	2
0	74104	11300.676390125347	3
0	74106	11300.767029992325	4
0	74107	11301.263210457976	3
0	74110	11302.078253451961	2
0	74113	11302.914253223075	1
0	74117	11303.272430809286	2
0	74118	11303.490780024922	1
0	74122	11303.492627788073	2
0	74124	11303.544989849183	3
0	74125	11304.285789246198	2
0	74129	11304.617572197762	3
0	74131	11305.176626002597	4
0	74133	11305.205976625669	5
0	74134	11305.244936730519	4
0	74138	11305.69168126482	5
0	74139	11306.017319960559	4
0	74143	11306.313660592735	5
0	74145	11306.412492352319	6
0	74146	11306.527941200689	5
0	74150	11306.869612024164	6
0	74151	11307.118905030976	5
0	74154	11307.739536655595	4
0	74158	11307.94006397758	5
0	74159	11308.544043088512	4
0	74162	11309.342068378528	3
0	74171	11310.107523819291	4
0	74173	11310.239313835521	5
0	74174	11310.543745159166	4
0	74177	11310.986205403641	3
0	74180	11311.796396235278	2
0	74184	11311.827644709396	3
0	74186	11312.170938297752	4
0	74187	11312.526877018059	3
0	74190	11313.324250802299	2
0	74193	11314.095929969097	1
0	74197	11314.152781576967	2
0	74199	11314.532522676031	3
0	74200	11314.881944944891	2
0	74204	11314.887151263781	3
0	74206	11314.971492926841	4
0	74208	11315.120513186604	5
0	74209	11315.761831224426	4
0	74213	11315.790665956464	5
0	74214	11316.667181615853	4
0	74217	11317.184262192105	3
0	74221	11317.564672072481	4
0	74222	11317.876814791649	3
0	74225	11318.283206284228	2
0	74228	11319.04883848079	1
0	74231	11319.787974391361	0
0	74235	11319.92954445138	1
0	74237	11320.455628178467	2
0	74239	11320.70661020482	3
0	74240	11320.77429349734	2
0	74244	11321.186507106903	3
0	74245	11321.203749841959	2
0	74249	11321.252110064693	3
0	74250	11322.058671702207	2
0	74254	11322.477933166464	3
0	74255	11322.828595803673	2
0	74258	11323.479608964449	1
0	74262	11323.552670915965	2
0	74264	11324.193299457662	3
0	74265	11324.362302972278	2
0	74269	11324.591457899526	3
0	74270	11325.124960098783	2
0	74274	11325.579946586844	3
0	74275	11326.035033169337	2
0	74279	11326.357830553832	3
0	74280	11326.466069325567	2
0	74283	11327.128969875905	1
0	74286	11327.615435068165	0
0	74290	11327.993689094884	1
0	74292	11328.362527035783	2
0	74299	11328.425346236123	3
0	74300	11328.904351051008	2
0	74306	11329.107243985819	3
0	74311	11330.007476269726	4
0	74315	11330.103995449539	5
0	74324	11331.997013139162	4
0	74335	11332.827419141605	5
0	74349	11335.8580214777	4
0	74358	11337.111926684166	5
0	74359	11337.290670913641	4
0	74372	11339.15781111391	3
0	74380	11340.622219740364	2
0	74384	11340.695974633131	3
0	74385	11341.20122375488	2
0	74388	11341.619181500326	1
0	74392	11341.687118128548	2
0	74393	11342.600893535276	1
0	74396	11343.42112195566	0
0	74400	11343.608270986031	1
0	74401	11344.334400205637	0
0	74405	11344.628591909217	1
0	74406	11344.750394884075	0
0	74410	11344.844005363215	1
0	74411	11345.33958186628	0
0	74420	11347.133363466982	1
0	74422	11347.40759972485	2
0	74424	11347.496390149335	3
0	74425	11347.629889301862	2
0	74428	11348.041859104391	1
0	74432	11348.502719959613	2
0	74433	11348.862798926793	1
0	74442	11349.709208716632	2
0	74443	11350.032347484352	1
0	74447	11350.311219533239	2
0	74448	11350.993223543838	1
0	74451	11351.511692716601	0
0	74455	11351.59119545364	1
0	74456	11351.98717591432	0
0	74460	11352.067604811598	1
0	74462	11352.140397478665	2
0	74463	11352.506459261291	1
0	74471	11353.96228025104	0
0	74480	11355.179110464586	1
0	74481	11355.345758742188	0
0	74490	11356.4645249441	1
0	74491	11357.286302605463	0
0	74495	11357.798579542483	1
0	74496	11358.243495453154	0
0	74500	11358.312015444942	1
0	74501	11358.787190369475	0
0	74520	11367.373746382686	1
0	74521	11367.452803000702	0
0	74525	11367.63537809769	1
0	74526	11368.113474248384	0
0	74530	11368.230972314172	1
0	74531	11368.836017449048	0
0	74535	11368.836297897634	1
0	74544	11370.219308137462	2
0	74558	11372.67743535916	1
0	74561	11373.468719979782	0
0	74575	11374.637832669181	1
0	74577	11374.821377473013	2
0	74578	11375.18873930257	1
0	74582	11375.335664682104	2
0	74586	11375.707850907665	3
0	74590	11376.456950806363	2
0	74599	11377.270732791028	3
0	74600	11377.789975493916	2
0	74604	11378.090750207142	3
0	74605	11378.447515105831	2
0	74611	11378.835620107557	3
0	74618	11379.291537460971	4
0	74622	11380.075886431711	3
0	74626	11380.450101414872	4
0	74630	11380.77654061871	5
0	74634	11381.513156275686	4
0	74638	11381.58879688877	5
0	74644	11382.765441703565	4
0	74652	11384.09653788535	3
0	74656	11384.14526672271	4
0	74660	11384.817976241058	5
0	74664	11385.314557639324	4
0	74673	11386.625212211743	5
0	74674	11386.993207479781	4
0	74683	11388.485508786583	5
0	74684	11388.783211493819	4
0	74692	11390.167786968221	3
0	74696	11390.631548785828	4
0	74697	11391.145486278786	3
0	74700	11391.940300408193	2
0	74703	11392.533815591038	1
0	74709	11393.054418259211	2
0	74721	11394.600167112589	3
0	74740	11397.77163644624	2
0	74751	11398.52249463436	3
0	74755	11400.049943660014	2
0	74764	11401.613926709908	3
0	74765	11401.682411726332	2
0	74776	11403.084853030645	3
0	74790	11405.287906103443	2
0	74794	11406.037933944887	3
0	74801	11406.774326736288	4
0	74802	11406.851396515501	3
0	74810	11408.523000247359	2
0	74813	11408.981224102854	1
0	74821	11410.774286283321	0
0	74830	11411.84656100213	1
0	74831	11411.928559389665	0
0	74840	11413.211225940954	1
0	74841	11413.583567799396	0
0	74860	11415.99728386384	1
0	74861	11416.674143118295	0
0	74867	11416.90625166167	1
0	74872	11417.635870572421	2
0	74873	11417.685375671484	1
0	74877	11417.858059285941	2
0	74893	11419.6240647718	3
0	74935	11425.657438937364	2
0	74951	11427.657903796583	3
0	74955	11428.864517480483	2
0	74958	11429.4963360443	1
0	74964	11429.991137245636	2
0	74969	11430.420584683391	3
0	74970	11430.98453749318	2
0	74974	11431.388130840368	3
0	74975	11431.467327825374	2
0	74978	11432.391921971946	1
0	74981	11433.016504489885	0
0	75007	11438.327807662746	1
0	75009	11438.766648865555	2
0	75013	11439.919148717703	1
0	75017	11440.063147911754	2
0	75018	11440.734052124781	1
0	75022	11441.196342930705	2
0	75023	11441.558736644288	1
0	75026	11441.972857014624	0
0	75035	11443.537462672353	1
0	75036	11443.891987224644	0
0	75040	11444.045288339614	1
0	75041	11444.325690049561	0
0	75045	11444.698684263246	1
0	75047	11445.023024543464	2
0	75048	11445.151833101943	1
0	75051	11445.829906202922	0
0	75065	11450.064544919586	1
0	75066	11450.341311450209	0
0	75070	11450.465833167803	1
0	75071	11450.808595331804	0
0	75075	11451.112907129782	1
0	75076	11451.209783667325	0
0	75085	11452.680803542977	1
0	75087	11453.027511165592	2
0	75088	11453.335479785838	1
0	75092	11453.588558409991	2
0	75094	11453.841356451006	3
0	75095	11453.956498782486	2
0	75099	11454.404087756595	3
0	75100	11454.637306343308	2
0	75104	11455.010110030861	3
0	75105	11455.592161276061	2
0	75109	11455.897713401353	3
0	75110	11456.528595317956	2
0	75113	11457.090509586465	1
0	75116	11457.734211063907	0
0	75127	11459.393519549673	1
0	75136	11461.167601671671	0
0	75147	11462.160540128686	1
0	75149	11462.341876020838	2
0	75151	11462.68022639528	3
0	75155	11463.330172116025	2
0	75158	11463.799077517441	1
0	75164	11464.126144993833	2
0	75168	11465.067714941077	1
0	75172	11465.518068411965	2
0	75173	11465.711536086392	1
0	75177	11465.850242759294	2
0	75178	11466.551942091151	1
0	75181	11467.031026739948	0
0	75207	11471.31854953228	1
0	75209	11471.412988260366	2
0	75213	11472.732279653206	1
0	75219	11473.198826774749	2
0	75224	11473.526264093915	3
0	75226	11473.54631122976	4
0	75227	11473.973513865016	3
0	75230	11474.647962675767	2
0	75234	11474.769379934057	3
0	75241	11475.845732545672	4
0	75242	11476.396002285054	3
0	75251	11477.458249144817	4
0	75252	11477.834098128707	3
0	75261	11478.853189193955	4
0	75262	11479.217680013704	3
0	75271	11480.557055843271	4
0	75272	11480.674858149246	3
0	75280	11482.103126240766	2
0	75283	11482.844039246684	1
0	75286	11483.593739610083	0
0	75290	11483.648544443893	1
0	75291	11484.132009443093	0
0	75320	11492.164454462748	1
0	75321	11492.600426359781	0
0	75325	11492.70439977171	1
0	75327	11492.966143592602	2
0	75328	11493.379521275851	1
0	75334	11493.916509478524	2
0	75338	11495.159919629273	1
0	75341	11495.838442213162	0
0	75345	11496.086561816717	1
0	75346	11496.768172688297	0
0	75350	11497.13995346873	1
0	75351	11497.356765933222	0
0	75360	11498.930394017677	1
0	75361	11498.989033703067	0
0	75385	11511.661939814087	1
0	75386	11511.788901617297	0
0	75445	11524.763167540357	1
0	75446	11525.173558468678	0
0	75485	11538.41333259612	1
0	75501	11540.877638333111	0
0	75522	11543.464597289143	1
0	75541	11546.845069351307	0
0	75605	11565.873407457744	1
0	75606	11566.474930330309	0
0	75675	11583.552058320378	1
0	75676	11583.768032053709	0
0	75680	11584.207325792464	1
0	75681	11584.444318690049	0
0	75685	11584.463680038965	1
0	75686	11585.146322062696	0
0	75695	11587.397149025589	1
0	75696	11587.545519964848	0
0	75700	11588.021901760357	1
0	75701	11588.255225334907	0
0	75705	11588.679363020901	1
0	75706	11588.97877109012	0
0	75710	11589.056204330417	1
0	75711	11589.900085415862	0
0	75725	11592.176158592534	1
0	75726	11592.42599016961	0
0	75730	11592.784143211303	1
0	75731	11593.305114836174	0
0	75735	11593.360052733474	1
0	75737	11593.780637091756	2
0	75738	11594.205388185496	1
0	75742	11595.01346072915	2
0	75743	11595.149908125189	1
0	75746	11595.738398734967	0
0	75750	11596.125022695689	1
0	75751	11596.553486796629	0
0	75760	11597.875958914943	1
0	75761	11597.973651673804	0
0	75765	11598.161757929923	1
0	75766	11598.456530518058	0
0	75770	11598.751594678519	1
0	75771	11598.986561526285	0
0	75775	11599.910478329425	1
0	75776	11599.971208582699	0
0	75780	11600.465935091317	1
0	75781	11600.860844265923	0
0	75790	11601.815831723978	1
0	75791	11602.448833176587	0
0	75817	11625.112428569526	1
0	75841	11628.970272610949	0
0	75855	11631.037934399457	1
0	75856	11631.6155386304	0
0	75865	11632.569501896748	1
0	75867	11632.95082300367	2
0	75868	11633.286882195527	1
0	75876	11634.528156977704	0
0	75885	11635.342114751073	1
0	75886	11635.725119544797	0
0	75912	11642.980012208697	1
0	75926	11644.387881268653	2
0	75943	11646.857744016687	1
0	75946	11647.348500263088	0
0	75955	11648.801193563573	1
0	75956	11649.258644617956	0
0	75970	11651.654808523662	1
0	75971	11651.75753501225	0
0	75980	11652.606386825523	1
0	75981	11653.014841791752	0
0	75985	11653.128960662322	1
0	75991	11654.617470462432	0
0	75997	11655.366978322287	1
0	76002	11655.494967652972	2
0	76004	11656.014946721527	3
0	76005	11656.358829198543	2
0	76008	11656.828127287233	1
0	76012	11656.988065871184	2
0	76024	11658.515146116846	3
0	76025	11659.0113229895	2
0	76041	11660.888998721052	3
0	76045	11661.366108853369	2
0	76074	11665.647330635939	3
0	76075	11666.117025242559	2
0	76084	11667.650157654039	3
0	76085	11667.808758612349	2
0	76088	11668.697416606778	1
0	76094	11669.551316341165	2
0	76099	11670.154870668806	3
0	76100	11670.590107161365	2
0	76103	11671.043857487011	1
0	76106	11671.9173359639	0
0	76115	11673.836691992011	1
0	76117	11673.840957616252	2
0	76118	11673.848187932463	1
0	76121	11674.754085182164	0
0	76125	11675.273669752229	1
0	76126	11675.544068546126	0
0	76150	11679.421425956635	1
0	76152	11679.487987200856	2
0	76154	11679.665692087289	3
0	76155	11679.703355336219	2
0	76158	11680.106248742232	1
0	76162	11680.24897245488	2
0	76169	11681.620190166064	3
0	76170	11681.738726931234	2
0	76179	11682.856264799113	3
0	76188	11683.808145956858	4
0	76192	11684.783161858032	3
0	76196	11684.880689067396	4
0	76197	11685.723390883003	3
0	76200	11686.28862726477	2
0	76204	11686.646540076777	3
0	76206	11686.782307021094	4
0	76207	11687.213934640615	3
0	76211	11687.703948566915	4
0	76213	11687.752344254866	5
0	76214	11687.932058468722	4
0	76218	11688.331880500106	5
0	76219	11688.439527101144	4
0	76227	11689.751691003078	3
0	76236	11690.820759031097	4
0	76237	11691.041102705644	3
0	76246	11691.91807555161	4
0	76248	11692.211946268357	5
0	76249	11692.486564244078	4
0	76253	11692.974003966906	5
0	76254	11693.126889593042	4
0	76258	11693.239816318911	5
0	76262	11693.972894524876	6
0	76267	11694.29088910331	7
0	76268	11695.069738503666	6
0	76271	11695.883458037609	5
0	76275	11695.944445641769	6
0	76276	11696.439717741525	5
0	76280	11697.113351005927	6
0	76281	11697.436134606442	5
0	76284	11698.144823632744	4
0	76288	11698.828800705024	5
0	76289	11699.063306051195	4
0	76293	11699.378339315169	5
0	76294	11699.522884485666	4
0	76297	11700.037586524086	3
0	76301	11700.15030984984	4
0	76302	11700.48864472744	3
0	76305	11701.301797398999	2
0	76309	11701.339238107999	3
0	76310	11701.901718574138	2
0	76313	11702.569929797882	1
0	76317	11702.571379969085	2
0	76319	11703.09133141219	3
0	76320	11703.095719546759	2
0	76324	11703.606500808247	3
0	76326	11703.614989619426	4
0	76327	11703.939533264124	3
0	76331	11703.957708430219	4
0	76332	11704.525732049932	3
0	76336	11704.73768440575	4
0	76338	11704.968353029679	5
0	76339	11705.311327031049	4
0	76343	11705.842118768478	5
0	76344	11706.05346196562	4
0	76347	11706.732599049601	3
0	76350	11707.568681164951	2
0	76353	11708.444743536719	1
0	76357	11708.718450511366	2
0	76364	11709.395998700171	3
0	76365	11709.524061740077	2
0	76368	11710.222498970133	1
0	76371	11711.133052584835	0
0	76375	11711.349412757945	1
0	76376	11711.543374503663	0
0	76380	11711.686954082312	1
0	76382	11712.073410192904	2
0	76383	11712.484019316992	1
0	76386	11713.348815268165	0
0	76390	11713.521212725455	1
0	76391	11713.763500252998	0
0	76395	11714.582958128485	1
0	76396	11714.654828824176	0
0	76410	11716.297852637857	1
0	76411	11716.802439128324	0
0	76415	11717.177495810231	1
0	76417	11717.18021659857	2
0	76429	11719.309009459296	3
0	76430	11719.397708456028	2
0	76439	11720.089961678206	3
0	76441	11720.254313027812	4
0	76443	11720.32335078149	5
0	76449	11721.679660735415	4
0	76453	11721.89845011922	5
0	76459	11723.012060586592	4
0	76467	11724.526142523574	3
0	76470	11725.195976448847	2
0	76474	11725.331236086885	3
0	76475	11726.005531910431	2
0	76478	11726.579737399795	1
0	76484	11726.715785798014	2
0	76488	11728.101055670015	1
0	76492	11728.230852466023	2
0	76494	11728.48432604218	3
0	76495	11728.580634806536	2
0	76504	11729.80133938709	3
0	76513	11730.297833096661	4
0	76515	11730.753360126572	5
0	76519	11731.94560239259	4
0	76525	11732.143705347886	5
0	76529	11733.557159116723	4
0	76533	11733.77726318345	5
0	76534	11734.194858841084	4
0	76537	11734.763431260547	3
0	76541	11735.125608980651	4
0	76543	11735.243937072204	5
0	76544	11735.746078740478	4
0	76547	11736.684715295349	3
0	76551	11736.764577005505	4
0	76552	11737.561406883596	3
0	76556	11737.827771664127	4
0	76558	11738.022896467431	5
0	76559	11738.096870000147	4
0	76563	11738.181105285879	5
0	76564	11738.558021099818	4
0	76567	11739.360986894089	3
0	76571	11739.614576768557	4
0	76572	11739.805064169736	3
0	76576	11739.943577173769	4
0	76577	11740.233683192543	3
0	76581	11740.581156217674	4
0	76582	11740.833523945696	3
0	76586	11741.198912240525	4
0	76587	11741.705748071893	3
0	76590	11742.589782098214	2
0	76594	11742.68827193831	3
0	76596	11743.218343159065	4
0	76597	11743.459133466379	3
0	76600	11744.099985774	2
0	76603	11744.635426892106	1
0	76607	11744.997191882829	2
0	76608	11745.509328823023	1
0	76611	11746.359557242876	0
0	76615	11746.592230226773	1
0	76616	11746.837455695354	0
0	76620	11747.120764341701	1
0	76622	11747.710114877511	2
0	76624	11747.823135720195	3
0	76625	11747.8272742399	2
0	76628	11748.353235361258	1
0	76631	11749.027153035392	0
0	76645	11750.687190565833	1
0	76646	11750.850195978613	0
0	76655	11752.055735406971	1
0	76664	11753.310334210297	2
0	76669	11753.493925399592	3
0	76695	11757.470972854024	2
0	76703	11759.157657868634	1
0	76711	11760.366734399167	0
0	76715	11760.465571007573	1
0	76721	11762.031659757193	0
0	76730	11762.911663889636	1
0	76731	11763.32029350068	0
0	76740	11764.249329266157	1
0	76741	11764.400739647388	0
0	76747	11764.946823877495	1
0	76752	11765.171649933154	2
0	76753	11765.91959341358	1
0	76762	11766.811664422797	2
0	76763	11767.270531840609	1
0	76771	11768.477340737764	0
0	76775	11768.488906470707	1
0	76776	11769.224349408584	0
0	76782	11769.632683801499	1
0	76804	11771.77188503139	2
0	76814	11773.155244000191	3
0	76815	11773.744987016623	2
0	76819	11774.097256753804	3
0	76823	11774.122644742506	4
0	76832	11775.693293922893	3
0	76846	11777.728898409433	4
0	76853	11778.556346710845	5
0	76855	11779.084494179368	6
0	76856	11779.258013735232	5
0	76860	11779.258774189208	6
0	76867	11779.823599338765	7
0	76868	11780.368799786022	6
0	76871	11781.089754348653	5
0	76877	11781.479560926426	6
0	76881	11782.355260289213	5
0	76885	11782.539421655887	6
0	76887	11782.570584580641	7
0	76888	11782.971923754629	6
0	76892	11783.009962851605	7
0	76893	11783.396289206328	6
0	76909	11785.678608614185	7
0	76911	11785.929874701754	8
0	76920	11787.467334985905	7
0	76928	11788.965027239718	6
0	76932	11789.047691318089	7
0	76938	11790.527588412198	6
0	76941	11791.164498373386	5
0	76945	11791.273478701764	6
0	76947	11791.351278361755	7
0	76953	11792.492799752889	6
0	76959	11793.046303846285	7
0	76963	11793.733698839726	6
0	76967	11794.277758124756	7
0	76968	11794.540931757385	6
0	76977	11795.515222845183	7
0	76978	11796.073593845296	6
0	76981	11796.653909857742	5
0	76990	11797.593432848445	6
0	76991	11798.05326903554	5
0	76999	11799.45728614813	4
0	77003	11799.945825172786	5
0	77004	11800.210059546058	4
0	77008	11800.935835819562	5
0	77009	11801.070196155955	4
0	77012	11801.749567693363	3
0	77018	11802.558403225552	4
0	77020	11802.67340436495	5
0	77024	11803.650481135243	4
0	77030	11804.333846876004	5
0	77032	11804.384710230466	6
0	77037	11804.960987102345	7
0	77038	11805.094763658832	6
0	77044	11805.946496143153	7
0	77049	11806.592053943838	8
0	77050	11806.883790078231	7
0	77058	11808.316536069645	6
0	77062	11808.358567139649	7
0	77063	11808.874979597127	6
0	77067	11809.302063019241	7
0	77068	11809.311045740575	6
0	77072	11809.826255844339	7
0	77073	11809.960520652805	6
0	77077	11810.104422398478	7
0	77078	11810.680568978733	6
0	77082	11811.042766842284	7
0	77083	11811.213199922426	6
0	77086	11811.702624671098	5
0	77089	11812.152936968051	4
0	77093	11812.452980264772	5
0	77094	11812.754775611946	4
0	77097	11813.306719590008	3
0	77100	11813.71958063597	2
0	77104	11814.079782289722	3
0	77105	11814.331812066149	2
0	77109	11814.425911657451	3
0	77110	11814.775460492617	2
0	77116	11815.276504940456	3
0	77118	11815.305508967396	4
0	77122	11816.521511786927	3
0	77125	11817.09208618778	2
0	77128	11817.686322626269	1
0	77132	11818.090380108504	2
0	77133	11818.213482732775	1
0	77137	11818.260910511923	2
0	77138	11819.042411377264	1
0	77141	11819.987752560183	0
0	77150	11821.12949618604	1
0	77152	11821.606647015856	2
0	77153	11821.816609987852	1
0	77157	11822.227899293608	2
0	77159	11822.531274514401	3
0	77160	11822.71029048404	2
0	77164	11822.938187470237	3
0	77166	11823.185359627637	4
0	77167	11823.25298346272	3
0	77170	11824.162952945663	2
0	77174	11824.225310537049	3
0	77175	11824.88031263198	2
0	77179	11825.758104398781	3
0	77180	11825.871751535733	2
0	77184	11825.956499312419	3
0	77186	11826.269788898675	4
0	77188	11826.54572047107	5
0	77189	11826.761680965128	4
0	77192	11827.185411685614	3
0	77196	11827.237200318368	4
0	77197	11827.918517283864	3
0	77201	11828.669605012079	4
0	77203	11828.759949265469	5
0	77204	11828.878103755695	4
0	77207	11829.428638509802	3
0	77211	11829.516674676323	4
0	77213	11829.920367428391	5
0	77214	11830.387524219045	4
0	77217	11830.990055563116	3
0	77220	11831.815292439425	2
0	77224	11831.923667691164	3
0	77225	11832.621208491783	2
0	77228	11833.17164506321	1
0	77232	11833.215867723467	2
[...]
9	161843	25414.164582945409	1.271567092402
9	161846	25415.017260970038	2.367262232907
9	161988	25434.474385587336	9.086733973689
9	161998	25436.135836731294	1.767384907779
9	162023	25439.554344739137	0.501304167323
9	162079	25447.458673017495	12.975894894302
9	162131	25454.333635051846	3.408551373113
9	162181	25462.466530768905	0.910796843283
9	162282	25478.572781471716	10.80042678294
9	162384	25495.160665572182	11.787705725887
9	162546	25517.720675659648	10.018154209205
9	162652	25532.232084127891	0.846777419886
9	162694	25538.035322286144	10.509346688995
9	162701	25538.748136630936	0.712814344792
9	162704	25539.411001154038	12.370177098224
9	162742	25544.111215111196	17.03136032354
9	162807	25555.642875484424	0.481305964058
9	162838	25559.346424208955	0.914416197268
9	163073	25590.103878208341	0.448442398151
9	163100	25593.245000030191	7.55764889834
9	163110	25594.724545251157	1.454600014579
9	163123	25596.873736389072	4.316477749451
9	163194	25607.53161748722	1.844060546017
9	163372	25631.288894775228	6.603921828434
9	163389	25633.672515774375	0.784467017371
9	163613	25668.39971516155	23.831474481728
9	163749	25689.823274542567	0.997594517143
9	163804	25701.703915263649	1.721526022789
9	163878	25711.695144501754	4.330086962551
9	163971	25728.717366317201	6.756269769139
9	164002	25732.807305216283	3.641885070269
9	164022	25736.209379934054	1.37979733739
9	164075	25755.597827674834	0.436336692004
9	164097	25758.788463214228	0.790600067517
9	164214	25780.543835139902	3.447905431439
9	164264	25793.64957482472	0.585352415312
9	164267	25794.301494234213	0.651919409493
9	164292	25798.393773335865	2.31368083479
9	164305	25800.939170876211	2.545397540346
9	164325	25807.096059652585	0.419587569358
9	164347	25812.415314507001	0.890310580796
9	164428	25831.48566464997	4.085005384906
9	164431	25832.383236498629	3.280803398727
9	164477	25851.059495849022	2.430385915574
9	164480	25852.021008167741	1.730682292008
9	164495	25855.284416630634	2.10879854757
9	164537	25868.775774856045	0.442929928889
9	164540	25869.210777691093	1.482730785402
9	164569	25873.911340202903	2.007064309556
9	164580	25875.792165474732	2.492239831225
9	164600	25885.07287661567	5.196437844772
9	164678	25901.152356086054	2.841888571856
9	164736	25909.882490830203	13.39528639533
9	164755	25912.342469344927	7.027777896541
9	164880	25928.470115371875	7.184778068623
9	164893	25930.605608078873	14.451250240912
9	164914	25933.943429897901	2.741788970481
9	164929	25936.1841312847	1.628014217292
9	165005	25949.017645700502	0.602452156181
9	165065	25960.291032848887	17.626742939664
9	165075	25978.556639086239	0.433280263003
9	165160	25992.401002425316	0.584109779727
9	165163	25993.230378394376	4.014777533225
9	165235	26003.061777857215	3.4082213394
9	165360	26020.004292796959	29.479376744014
9	165404	26026.126646149705	2.057842139919
9	165453	26033.722464710416	2.140924915302
9	165724	26079.971900216382	7.16273773594
9	165731	26080.661775246015	0.689875029633
9	165784	26087.697225502399	2.556744073735
9	165905	26106.330584946864	2.549323036243
9	165949	26112.876048463335	0.601724991156
9	166048	26126.662908408078	0.652467524214
9	166118	26135.747221193752	3.079356720129
9	166232	26150.201758227462	11.784995650987
9	166338	26164.936451686931	12.159700992293
9	166341	26165.917234206538	2.931425483178
9	166367	26170.724387660496	10.777654996295
9	166409	26176.674869138622	1.501114686769
9	166529	26193.752179417819	4.989665624611
9	166696	26214.887867063157	1.087908158384
9	166733	26219.98819496903	24.48596668473
9	166761	26224.10909109047	13.205372350573
9	166764	26224.695196116169	12.072107976679
9	166874	26239.609545833724	4.738185809931
9	166936	26248.159659832219	2.825549889731
9	167041	26262.261404394839	6.047950661018
9	167182	26281.797504515913	9.032728447001
9	167250	26291.929886961417	0.981196203269
9	167268	26294.658119451876	4.289080842084
9	167289	26297.687377783719	5.074869628341
9	167352	26306.222786361833	3.470506092942
9	167478	26324.372041369248	9.995477342864
9	167551	26335.224813923119	10.666199958832
9	167587	26340.494488375839	0.59084326094
9	167763	26364.738290344571	4.69070690347
9	167837	26375.801575188732	0.947797440691
9	167850	26378.214365702097	14.514428959857
9	167875	26381.356559782822	1.192345578887
9	167885	26382.910237668755	0.723191522015
9	168255	26437.011766766008	5.791945720567
9	168258	26437.875706983261	2.34523475661
9	168278	26441.045202082438	4.498957766838
9	168298	26443.726672412032	14.029445742127
9	168423	26463.006873993662	17.450530060923
9	168675	26495.888575194398	14.644675965751
9	168707	26500.205351855274	1.609770237123
9	168720	26501.464858951786	0.401589129074
9	168743	26505.514584229787	8.04625418813
9	168862	26519.613674691777	1.079138813832
9	168865	26520.53673560246	17.731540537953
9	168896	26525.735066717344	15.495681230155
9	168906	26527.043941878427	0.794110140344
9	169197	26563.967321301569	12.052126588195
9	169200	26564.445636008159	15.361055374241
9	169243	26571.125574895823	7.643411254062
9	169266	26574.356873875567	4.447184367305
9	169299	26579.420612570913	1.311405355486
9	169408	26595.137470307613	1.626469827009
9	169483	26606.309852126698	1.338981907589
9	169647	26628.89482810254	1.432130129453
9	169654	26629.778039323387	8.047351719964
9	169694	26634.96066860141	1.491675994546
9	169742	26641.838295654195	1.357091003945
9	169933	26667.297358341407	3.170890099325
9	170088	26689.126317061659	4.5494698962
9	170166	26699.869864496839	2.873545050436
9	170240	26710.443323270478	4.824248707353
9	170275	26714.750036440384	2.468954451164
9	170457	26742.168213108894	2.90399292301
9	170534	26753.88614769407	8.231035356879
9	170574	26760.758346600798	0.532183433743
9	170795	26798.99289104198	6.128024043689
9	170806	26800.69481746801	1.994402534679
9	170852	26814.245552610529	0.434529401129
9	170857	26815.056924845434	1.740972556588
9	170865	26816.33664390125	0.428130003996
9	170872	26821.074386544919	0.622239134926
9	170875	26821.494032581684	0.419646036765
9	170897	26826.775591252109	3.48170476798
9	170927	26832.252876171459	2.268754570534
9	170966	26837.493506377551	4.540790824924
9	171075	26855.104391944862	11.255667170232
9	171155	26872.956276012927	3.144867730997
9	171214	26885.064263470882	5.853458861631
9	171219	26885.985526765363	3.899429148481
9	171286	26898.698959871085	0.512688482599
9	171289	26899.641514359537	3.818630505012
9	171335	26908.120198666802	0.490108327242
9	171365	26914.392202555121	4.565204809614
9	171399	26919.378819001978	2.908515368078
9	171432	26923.686112478519	4.278192419405
9	171490	26953.180990479961	3.636420102012
9	171512	26956.503870777612	2.997147522475
9	171585	26973.980551348732	3.134244349672
9	171609	26978.951863910795	0.87909019934
9	171617	26980.129128140143	4.986718786916
9	171630	26983.505021744862	11.111681516608
9	171676	26989.197857261304	0.758599793771
9	171754	27001.213979587417	11.778645699523
9	171807	27008.870849027478	14.100636108296
9	171842	27013.615733525722	2.044662316601
9	171857	27016.718797105425	0.461729930155
9	171934	27028.365263503842	4.644156079208
9	171989	27035.394429917265	0.45599406152
9	171992	27035.849808793891	7.87446031903
9	172120	27053.94758610247	0.725952320872
9	172165	27060.316640299431	0.862626034161
9	172239	27071.284763039056	17.266152752447
9	172247	27072.680722722144	14.01749918472
9	172310	27080.552582922498	7.368872211477
9	172371	27088.856105726503	4.594196019616
9	172394	27090.647950069617	0.546303672343
9	172399	27091.590442616503	1.749052149079
9	172538	27108.166974921023	7.645180874137
9	172575	27113.054868560109	3.562271112574
9	172608	27118.198983274038	0.81978052808
9	172621	27120.354863092034	1.620723994847
9	172654	27124.752120485446	0.417893654481
9	172740	27135.807202837768	7.317005147514
9	172743	27136.553366894101	5.12453544185
9	172897	27156.385800081971	2.731188294917
9	172905	27157.744648461151	2.021055548366
9	172984	27168.257690342342	0.489366181521
9	173073	27180.89640912126	23.190555444052
9	173102	27184.802297775831	0.88775179293
9	173131	27188.940754060738	1.908856562037
9	173148	27191.287588776565	2.714911824612
9	173188	27197.422214268345	3.967823910266
9	173214	27201.533064599767	6.817151591832
9	173360	27229.992083700329	2.782377056646
9	173529	27252.13626266978	8.132430195667
9	173614	27262.081117385246	3.786998031155
9	173627	27264.329167746885	2.121614478693
9	173650	27267.807795188803	6.81100164908
9	173667	27269.842312018288	0.625897337496
9	173710	27275.323297151172	2.12638495465
9	173723	27277.415386747795	5.172325510274
9	173751	27282.222502004022	1.669259230623
9	173849	27296.98853469942	3.853759428893
9	173852	27297.45084450626	8.356525851249
9	173941	27310.02029777527	1.888175320074
9	173994	27317.70251135886	7.201910366526
9	174060	27326.242807626624	9.44455791925
9	174196	27345.888436984637	2.999663892399
9	174264	27353.487142844818	1.257115259764
9	174270	27354.671890802768	5.168683667355
9	174332	27363.025622817402	5.936463168718
9	174340	27364.290229457983	5.156006303488
9	174353	27366.592382453283	8.186374669126
9	174377	27370.429756937531	0.475376712624
9	174550	27415.344972855428	2.935541868813
9	174681	27441.400606065847	15.898896365799
9	174694	27443.653856273832	3.313804514042
9	174736	27448.969529293802	5.773329173501
9	174886	27467.834567896322	10.366645515372
9	174902	27471.221813621696	4.076176920349
9	174905	27471.679225993294	8.924149635969
9	174946	27478.205560363082	0.951949567581
9	175021	27489.199216232636	2.635307292278
9	175295	27531.496570869531	0.665550761856
9	175301	27532.57218101853	13.021061648449
9	175311	27534.030911987549	14.130292201639
9	175333	27537.513693810715	4.032410581707
9	175336	27538.499827404222	12.87296631035
9	175404	27548.763868581778	0.646601340594
9	175426	27551.587576244906	0.917967673624
9	175443	27553.242604863918	0.488260350609
9	175446	27553.882159773069	10.858633433233
9	175449	27554.723677537678	5.968969395042
9	175661	27587.635614157494	5.014069605875
9	175814	27609.335748165142	10.948578009576
9	175817	27610.025244918227	0.689496753085
9	175820	27610.965924524277	6.75689398005
9	175853	27615.68748160819	2.367783828154
9	175902	27622.271150116524	1.57583979096
9	175913	27624.486805099104	4.679437649037
9	176027	27646.865233336782	13.234793395361
9	176035	27648.494193494761	1.628960157979
9	176203	27705.12131425687	0.883877231786
9	176211	27706.68918850026	0.806793783745
9	176221	27707.714213763735	3.306134186262
9	176285	27726.133042788496	0.432753658341
9	176315	27746.184549452287	3.057701595424
9	176380	27768.125012738274	1.081860308032
9	176417	27778.779571850807	0.529848286929
9	176442	27782.057119015347	8.253974353845
9	176501	27790.457506007259	2.2284454624
9	176556	27799.25962182509	10.403863364671
9	176624	27809.484674966411	7.580054087679
9	176629	27810.066349865432	2.127064947291
9	176644	27811.816728798609	1.576776275216
9	176693	27818.491717683925	5.398898505314
9	176851	27843.077653815958	2.473272885418
9	176968	27857.865718874976	3.411941786023
9	177012	27863.814932684822	11.617378101718
9	177023	27865.868785875791	4.546470516803
9	177061	27871.681880585838	2.020619959392
9	177134	27883.396716185264	0.710459506931
9	177309	27906.216007323589	3.587610988214
9	177312	27907.131750184603	14.325754588463
9	177352	27913.203828941497	4.454286760305
9	177355	27914.107946930245	14.685800389736
9	177400	27920.407384105563	4.097902072382
9	177403	27920.915487172758	2.308392882898
9	177444	27926.609762763442	4.531318952413
9	177591	27945.955861720514	4.027863715815
9	177641	27953.219959639689	2.338690343052
9	177698	27960.253205642874	20.279756400911
9	177809	27974.62118951406	17.511876264639
9	177874	27983.742603490339	12.758809467025
9	177879	27984.154970661016	5.642440786935
9	178027	28006.078455356719	3.150432860154
9	178142	28023.485043410003	10.258028637202
9	178163	28027.056916848082	4.53349693994
9	178252	28038.218068209595	1.432625302961
9	178341	28051.224942634	8.230713556971
9	178486	28072.003205888744	0.668054060685
9	178547	28079.903494363909	11.697943768311
9	178550	28080.716630352547	0.813135988638
9	178747	28109.625384351312	3.417454466274
9	178952	28141.596029116954	5.647640894362
9	178960	28143.253097026555	4.188096371696
9	178975	28157.664102060434	2.368053227002
9	179002	28163.565341500779	1.531164549417
9	179015	28165.784463497293	4.989120045368
9	179094	28180.658666362177	0.546881562239
9	179129	28185.969940956989	0.91439013374
9	179178	28192.516714380989	2.790278570861
9	179206	28197.051112684823	1.903081087212
9	179245	28201.774292380577	14.660879275367
9	179265	28204.933145563611	0.434633266879
9	179302	28209.506062717063	0.432164770551
9	179327	28213.317798510406	3.845477887167
9	179340	28215.4966366892	10.232086663412
9	179429	28232.829406107615	0.739316213969
9	179467	28238.491113010307	1.843194290809
9	179563	28251.599258369423	0.549942550575
9	179715	28273.763046242991	3.852925691679
9	179730	28276.131323989151	3.699068118397
9	179748	28278.896521431577	2.651964590681
9	179751	28279.362296305873	0.465774874296
9	179806	28287.856957797225	0.869355417602
9	179817	28289.995765510186	2.902670708508
9	179842	28294.348792067362	2.454773455936
9	179955	28352.855587380638	0.565150883561
9	179965	28357.149411435946	1.903159782442
9	179980	28364.942409887889	4.847684922341
9	180030	28387.049147757539	2.930603231753
9	180035	28391.445729129541	0.486893113563
9	180147	28412.445180337445	5.406503519996
9	180306	28433.56732471901	11.104958096612
9	180357	28441.302567843805	0.855437240703
9	180449	28453.873333462459	1.475047294727
9	180639	28480.821542044348	16.282235377669
9	180692	28489.122810296566	3.82474028821
9	180729	28493.27697104536	1.808308033781
9	181022	28534.446138586184	22.176648603211
9	181045	28537.70631508174	0.909703138471
9	181176	28558.538771272337	2.040018602963
9	181308	28578.324097696873	0.466333982721
9	181391	28591.1413395951	0.455811982974
9	181452	28599.205984642633	0.868223614804
9	181462	28600.499856766031	21.449575771296
9	181477	28601.984266293418	1.997202371273
9	181576	28616.249336034148	0.51368933646
9	181710	28641.865767796325	0.467937149946
9	181784	28661.101414543484	3.426097485456
9	181787	28661.856604027795	4.661905244134
9	181840	28676.353332648398	6.156902643065
9	181880	28687.68545949909	1.116334432367
9	181985	28725.151555326514	6.93673384144
9	182007	28729.925988383723	1.397535100271
9	182045	28739.308805502514	0.777911671437
9	182110	28750.070138538536	7.017397906787
9	182129	28755.910928658083	1.597284316396
9	182132	28756.831276154904	0.920347496821
9	182206	28767.246354730627	0.447138912044
9	182211	28768.072730078794	2.608078230537
9	182214	28768.623421339936	0.550691261142
9	182286	28779.48553225173	1.873808426431
9	182330	28786.196496186885	0.489691254217
9	182561	28815.891917031488	15.724420368449
9	182591	28819.643997357131	1.877163575063
9	182771	28843.981501739889	4.838332873751
9	183028	28878.383279250886	3.090408174894
9	183072	28884.124794680855	5.515641894501
9	183117	28889.959002420909	4.339001349984
9	183209	28901.245292898871	4.139680806572
9	183320	28915.882341855951	7.492699427977
9	183370	28923.314269419526	13.94457403062
9	183454	28937.115811275505	0.939394882414
9	183494	28941.907714719465	0.494860527012
9	183499	28942.443892685091	0.536177965626
9	183597	28953.986647635931	13.696099564049
9	183610	28956.462098736269	5.17679414225
9	183665	28963.793995397352	3.783673585066
9	183776	28977.208104643597	5.110150458605
9	183804	28980.430037835705	15.962265997129
9	183821	28982.102323341043	0.626536143711
9	183844	28985.858810602919	1.722455640981
9	183847	28986.391377894859	5.025058673366
9	184004	29011.646321736879	4.824361399106
9	184033	29015.13308770796	1.617418818498
9	184101	29026.107308719257	0.78480362664
9	184139	29031.889487081204	1.835398601801
9	184198	29039.511578336169	3.204992141594
9	184230	29043.904267217729	8.637916089933
9	184299	29052.123619036142	3.399033894363
9	184302	29053.115158677658	9.631048882157
9	184380	29062.554327425686	2.087231681176
9	184391	29064.708101882413	3.995718756605
9	184405	29066.569719689992	3.506250077854
9	184430	29069.932758248038	1.13816809365
9	184451	29073.340913270227	1.685435522912
9	184500	29080.151572010898	0.922152864607
9	184515	29082.342418698454	2.702365019924
9	184538	29085.366871437244	7.645614219372
9	184581	29091.223752207356	0.834410551935
9	184599	29094.369340186101	1.831207918761
9	184727	29112.938735364193	1.594996700972
9	184868	29135.303781315918	0.597149387468
9	184912	29140.867102353926	1.799145209447
9	184949	29146.08323561037	2.918560687297
9	185030	29155.97783262385	3.421109995797
9	185058	29160.657220100099	3.716568821745
9	185111	29168.717921493481	0.800596986851
9	185168	29177.179408804326	3.708801347213
9	185266	29190.620125330843	3.080511364563
9	185299	29195.306315313649	9.877250132203
9	185325	29199.583192547593	2.975669547278
9	185432	29213.806716347018	8.825224515571
9	185471	29218.763982018686	0.736359186238
9	185490	29220.912557145113	4.832690558745
9	185493	29221.473678755758	1.188691629686
9	185549	29229.777317873341	3.819141064095
9	185683	29248.787639204643	0.671686927974
9	185796	29262.303886267773	4.443921297714
9	185855	29269.940897872109	12.580318329267
9	185968	29286.522006546469	0.888923246181
9	185981	29288.638052626789	3.948946500903
9	186139	29308.70287900278	9.484677834841
9	186170	29313.621687540456	11.543187318752
9	186341	29339.489236079156	6.957157899907
9	186399	29348.051670145944	0.421145311976
9	186418	29350.085672255328	4.880081934525
9	186421	29350.974467865659	1.773917844504
9	186447	29355.376265657835	3.593156472537
9	186511	29363.436216646621	4.288534757956
9	186561	29371.047355502613	10.009901609543
9	186649	29381.314210705415	6.163410916158
9	186652	29382.102320865032	0.788110159617
9	186851	29410.987506654119	7.287781615318
9	187002	29431.577052561615	10.703274105409
9	187072	29443.60575048961	3.403233980069
9	187075	29444.45458509913	18.392325653748
9	187162	29455.793263963799	3.003558190147
9	187246	29467.963791831074	4.713014377678
9	187267	29470.811175932877	9.320122682516
9	187463	29502.394989823412	5.952768425215
9	187571	29518.504305904549	7.51563155826
9	187577	29519.72130447226	5.217790074056
9	187609	29524.275663256741	7.929565193994
9	187651	29530.663653355468	0.434443984507
9	187867	29561.26594571788	5.976733054074
9	187952	29572.924853564474	2.542320283778
9	187963	29574.434351484805	3.530189414944
9	188030	29584.030881304062	0.724185854476
9	188180	29612.077919528018	2.147726173105
9	188252	29623.761978178279	2.48031345272
9	188332	29638.795325726527	0.63464870085
9	188340	29640.864278734364	8.914399829077
9	188363	29643.337479010216	0.537791713048
9	188402	29649.751423854259	5.037434321192
9	188508	29666.228363575121	5.492142268381
9	188627	29682.390890880336	3.76987746133
9	188656	29687.08170462366	4.478080698966
9	188688	29692.069822419377	1.508295400665
9	188727	29697.892186390143	6.379447625988
9	188787	29714.208526205133	1.816815492759
9	188901	29732.962938883546	1.86736272343
9	188967	29741.12710639771	17.541358393085
9	188980	29743.001210726256	1.016901771544
9	188983	29743.949734734761	2.557440799261
9	189050	29752.174304807159	17.582838271199
9	189175	29770.310217393917	5.391809539358
9	189195	29773.386276943824	3.863867451298
9	189290	29793.482117668988	6.924523187838
9	189310	29799.504140374856	1.327863549969
9	189337	29807.191841233288	1.767605719244
9	189470	29834.735519330351	11.800169063895
9	189537	29854.942265448511	12.742222605118
9	189550	29857.546683015346	3.410661160849
9	189567	29861.441611159071	1.548113511821
9	189642	29872.774241735313	10.410921517364
9	189662	29876.721515726031	0.675811152626
9	189675	29878.948056825217	3.04465758074
9	189749	29892.164217650008	3.24749489116
9	189780	29907.916207319951	2.845226554165
9	189961	29947.08218426786	1.9106792367
9	189974	29949.376710094769	4.564918534995
9	189997	29953.026200644231	2.944112720798
9	190273	29992.979032040971	16.968952561299
9	190293	29995.752523772071	7.400955441437
9	190323	29999.839930196504	3.278244270972

