version 2
run First_exit_2-16-20191023-00:19:41-5118
attr configname First_exit_2
attr datetime 20191023-00:19:41
attr experiment First_exit_2
attr inifile omnetpp.ini
attr iterationvars ""
attr iterationvarsf ""
attr measurement ""
attr network ResponseTimeNetwork
attr processid 5118
attr repetition 16
attr replication #16
attr resultdir results
attr runnumber 16
attr seedset 16
param **.Source.interArrivalTime exponential(4s)
param **.jobPriority bernoulli(0.4)
param **.PS.serviceTimeU1 "uniform(0.4s, 1.0s)"
param **.PS.serviceTimeU2 "uniform(1s, 1.2s)"
param **.SS1.serviceTime exponential(0.4s)
param **.SS2.serviceTime exponential(0.8s)
param **.PS.exitProbability bernoulli(0.2)

vector 0 ResponseTimeNetwork.SS1 queueLength:vector ETV
attr interpolationmode sample-hold
attr title "queue length, vector"
vector 1 ResponseTimeNetwork.SS2 queueLength:vector ETV
attr interpolationmode sample-hold
attr title "queue length, vector"
vector 2 ResponseTimeNetwork.QueueU1 queueLength:vector ETV
attr interpolationmode sample-hold
attr title "queue length, vector"
vector 3 ResponseTimeNetwork.QueueU2 queueLength:vector ETV
attr interpolationmode sample-hold
attr title "queue length, vector"
vector 4 ResponseTimeNetwork.sink lifeTimeU2:vector ETV
attr interpolationmode none
attr title "lifetime of arrived jobs U2, vector"
attr unit s
vector 5 ResponseTimeNetwork.sink lifeTime:vector ETV
attr interpolationmode none
attr title "lifetime of arrived jobs, vector"
attr unit s
vector 6 ResponseTimeNetwork.sink lifeTimeU1:vector ETV
attr interpolationmode none
attr title "lifetime of arrived jobs U1, vector"
attr unit s
0	0	0	0
0	4135	2757.411531521215	1
0	4136	2758.436339499825	0
0	37620	25234.36317640742	1
0	37621	25234.500079491114	0
0	42080	27855.919418025381	1
0	42081	27856.01543701057	0
1	0	0	0
1	2302	1427.463163801404	1
1	2310	1429.9433572375	2
1	2311	1430.138324623174	1
1	2316	1431.248316384252	0
1	5737	3785.160323511482	1
1	5739	3785.315383734013	0
1	7680	5007.993455047823	1
1	7681	5008.463575408223	0
1	7685	5009.081094126019	1
1	7686	5010.506206375232	0
1	10215	6636.793330552608	1
1	10216	6636.896055181605	0
1	12790	8443.988473892356	1
1	12791	8444.3048594537	0
1	19132	12781.581870073658	1
1	19134	12782.104499470923	0
1	20944	14067.107043371375	1
1	20951	14068.184971920215	0
1	25847	17570.416692075734	1
1	25849	17570.670888530134	0
1	25860	17572.903153426289	1
1	25861	17575.020329670872	0
1	30570	20590.38893334994	1
1	30571	20591.4787616073	0
1	32480	21892.063552378683	1
1	32481	21893.134475939013	0
1	32500	21896.165316429865	1
1	32501	21896.198899679707	0
1	35040	23475.380429571712	1
1	35041	23475.461697674213	0
1	40915	27129.132172597805	1
1	40916	27129.166041566335	0
1	45085	29750.855118242667	1
1	45086	29751.305833582124	0
2	0	0	0
2	65	33.897133656289	1
2	67	34.073843024181	2
2	68	34.228242082732	1
2	71	35.084926466948	0
2	135	71.729909395932	1
2	136	72.425698222219	0
2	195	124.863009140656	1
2	198	125.147371768662	0
2	240	147.583505103126	1
2	241	148.139052485763	0
2	250	149.09192953794	1
2	251	149.965349878347	0
2	405	245.565841561427	1
2	406	245.954146938921	0
2	425	248.374026011279	1
2	426	249.240626329658	0
2	505	294.67913224776	1
2	506	294.716033672852	0
2	520	297.112869771202	1
2	521	297.677864244267	0
2	580	341.489161302457	1
2	581	341.831685297397	0
2	645	368.392280100178	1
2	646	368.817548967983	0
2	700	402.781510844452	1
2	701	402.868859871707	0
2	710	404.742511645107	1
2	711	404.86241535462	0
2	730	422.217015982889	1
2	731	422.395487330644	0
2	750	432.37387790019	1
2	751	432.512591321951	0
2	765	436.185094889401	1
2	766	436.659787264031	0
2	875	505.86590059419	1
2	876	506.679648486386	0
2	885	514.804259921009	1
2	886	515.009620125246	0
2	900	517.985822192409	1
2	901	518.122818763649	0
2	905	518.25618279504	1
2	906	518.56789105586	0
2	910	518.936458219413	1
2	911	519.164363209999	0
2	960	563.823092894117	1
2	961	564.495393567193	0
2	1065	637.729376850291	1
2	1066	637.951844533576	0
2	1090	651.65989687891	1
2	1091	651.815517721301	0
2	1095	651.904754240707	1
2	1096	652.34584821395	0
2	1100	652.592397160875	1
2	1101	653.042540368646	0
2	1130	664.415489865772	1
2	1131	664.788304507757	0
2	1195	709.634908294398	1
2	1197	710.067909206446	2
2	1198	710.603544915406	1
2	1201	711.318193662338	0
2	1245	743.133918740163	1
2	1246	743.677323072817	0
2	1310	777.614796285085	1
2	1311	777.845300875604	0
2	1410	841.857495096938	1
2	1411	842.250505191707	0
2	1415	842.608224797333	1
2	1416	842.74935361926	0
2	1420	842.796045045656	1
2	1421	843.411230449067	0
2	1425	843.602811615242	1
2	1427	843.664189653938	2
2	1429	843.679644201982	3
2	1430	844.116401294447	2
2	1433	844.75403290886	1
2	1436	845.322205479551	0
2	1462	868.097120413691	1
2	1463	868.454370465716	0
2	1480	879.686777965111	1
2	1482	879.697960914446	2
2	1484	880.204932620406	3
2	1485	880.334887888006	2
2	1488	881.094982803895	1
2	1491	881.927545648117	0
2	1495	882.083821937725	1
2	1496	882.518105028525	0
2	1675	1005.758056784936	1
2	1676	1006.012244177822	0
2	2100	1278.203386149058	1
2	2101	1278.430288090154	0
2	2135	1295.443278090027	1
2	2136	1295.489520059219	0
2	2150	1301.636272583487	1
2	2151	1301.7439459049	0
2	2335	1436.507196173568	1
2	2336	1436.76994308279	0
2	2370	1459.671262656411	1
2	2371	1459.731568299298	0
2	2405	1471.959268007019	1
2	2406	1472.395759005287	0
2	2530	1565.714666733912	1
2	2531	1565.724926942015	0
2	2535	1566.542494292185	1
2	2536	1566.69937691813	0
2	2590	1604.117768631298	1
2	2591	1604.382461252225	0
2	2605	1609.921621519617	1
2	2606	1610.144523203326	0
2	2694	1690.774531142943	1
2	2695	1690.869320758083	0
2	2725	1718.534713567575	1
2	2726	1719.098910545607	0
2	2730	1719.533109914261	1
2	2731	1720.087324748517	0
2	2860	1828.628843842536	1
2	2861	1828.915229367867	0
2	2915	1852.871157702146	1
2	2916	1853.336775537965	0
2	2925	1854.060240666546	1
2	2927	1854.412090924531	2
2	2929	1854.501447635486	3
2	2930	1854.945920686016	2
2	2933	1855.869193258334	1
2	2938	1856.566187480616	0
2	2945	1857.425616881534	1
2	2946	1858.040507466451	0
2	3445	2276.375253896	1
2	3448	2276.582085055751	0
2	3457	2277.490934228763	1
2	3458	2277.74213001899	0
2	3467	2278.509851276545	1
2	3468	2278.726296201801	0
2	3480	2285.5484813163	1
2	3481	2285.709255352926	0
2	3520	2315.395519144775	1
2	3521	2315.776646070569	0
2	3555	2336.835699189474	1
2	3556	2337.371150575426	0
2	3600	2372.14110897877	1
2	3601	2372.528173636254	0
2	3635	2418.56805863156	1
2	3636	2419.340113031442	0
2	3665	2435.108528807923	1
2	3666	2435.564413917598	0
2	3720	2461.642821789245	1
2	3721	2462.591556429557	0
2	3730	2463.82874077914	1
2	3731	2464.096917608844	0
2	3855	2536.878974271863	1
2	3856	2536.965966009126	0
2	3865	2541.816532828987	1
2	3866	2542.286748207929	0
2	3937	2599.288710240423	1
2	3938	2599.699244004206	0
2	4070	2718.575866049006	1
2	4071	2718.577656143019	0
2	4120	2755.081888415333	1
2	4122	2755.120088311163	2
2	4123	2755.332785772646	1
2	4126	2756.178207897742	0
2	4130	2756.17909911176	1
2	4131	2756.822964778191	0
2	4140	2758.486799799477	1
2	4141	2759.250547973509	0
2	4215	2809.830477035787	1
2	4216	2810.21338372424	0
2	4355	2900.451994529586	1
2	4357	2900.499180263776	2
2	4358	2900.706849458607	1
2	4361	2901.108699767644	0
2	4435	2956.19024954048	1
2	4436	2956.357188469273	0
2	4450	2958.853868447177	1
2	4451	2959.005078562556	0
2	4555	3048.342454329162	1
2	4556	3048.457269234219	0
2	4582	3070.122144395984	1
2	4585	3070.704329312421	0
2	4592	3071.607818702525	1
2	4593	3072.395549421539	0
2	4610	3074.443129322361	1
2	4611	3075.24367580569	0
2	4650	3091.728248797399	1
2	4651	3091.803206314535	0
2	4795	3166.599058507219	1
2	4796	3167.064324298959	0
2	4885	3243.745794244645	1
2	4886	3243.837458512432	0
2	4890	3244.616150132564	1
2	4891	3244.625204100891	0
2	4945	3298.28203733669	1
2	4946	3298.684504220139	0
2	5015	3348.927138225671	1
2	5016	3349.271591633681	0
2	5090	3424.305862117043	1
2	5093	3425.176628963403	0
2	5097	3425.233348062709	1
2	5100	3425.865131052943	0
2	5122	3431.437277252123	1
2	5123	3431.669325601012	0
2	5150	3448.440227736874	1
2	5151	3448.506685622656	0
2	5290	3528.529946606585	1
2	5291	3528.811414683255	0
2	5295	3529.205268306942	1
2	5296	3529.796307037602	0
2	5355	3548.186808753259	1
2	5356	3548.218728020136	0
2	5385	3565.707522523447	1
2	5388	3566.395027081891	0
2	5400	3568.321489217968	1
2	5401	3568.570175720135	0
2	5460	3617.869957996636	1
2	5461	3618.426822312291	0
2	5510	3676.221848211	1
2	5511	3676.477514510091	0
2	5555	3690.882512010927	1
2	5556	3691.302085097026	0
2	5650	3742.863354028976	1
2	5651	3743.053546629671	0
2	5695	3762.935184889975	1
2	5696	3763.747542133371	0
2	5705	3765.350429558041	1
2	5706	3765.436350148686	0
2	5805	3809.788955441195	1
2	5806	3810.066504901395	0
2	5845	3834.359186142724	1
2	5848	3835.000306897069	0
2	5865	3838.544263881278	1
2	5866	3838.835218287339	0
2	5942	3891.704049010972	1
2	5943	3891.985001112858	0
2	6010	3935.30600325634	1
2	6011	3935.540308627528	0
2	6140	4023.085932956649	1
2	6141	4023.788903563138	0
2	6225	4064.772166106796	1
2	6226	4065.007368970696	0
2	6240	4066.946851433527	1
2	6241	4067.358877984851	0
2	6260	4076.978145295379	1
2	6261	4077.000522091392	0
2	6400	4156.232528125491	1
2	6401	4156.618548969733	0
2	6412	4158.257143280907	1
2	6413	4158.334972053808	0
2	6417	4158.591884477644	1
2	6418	4159.042371491478	0
2	6424	4159.20245406117	1
2	6425	4159.85854560304	0
2	6460	4175.628551701338	1
2	6461	4176.124938664559	0
2	6505	4198.875119617284	1
2	6506	4198.915371719175	0
2	6515	4200.006042007569	1
2	6516	4200.569136128887	0
2	6530	4202.208297770721	1
2	6532	4202.269816446276	2
2	6534	4202.376475485903	3
2	6535	4202.622517994457	2
2	6538	4203.616848661789	1
2	6541	4204.076167273187	0
2	6545	4204.246148193221	1
2	6546	4204.719557035194	0
2	6550	4204.823568523627	1
2	6551	4205.363717123718	0
2	6580	4233.555640743436	1
2	6581	4234.315154660391	0
2	6640	4264.679054290201	1
2	6641	4265.122564060833	0
2	6647	4265.595523785597	1
2	6648	4265.635506087342	0
2	6690	4303.061961374816	1
2	6691	4303.162265887248	0
2	6714	4310.830337825345	1
2	6715	4311.176188185689	0
2	6750	4325.713848779871	1
2	6751	4326.047715651011	0
2	6825	4404.281306927038	1
2	6826	4404.678063433069	0
2	6905	4455.093728592306	1
2	6906	4455.710380267769	0
2	6965	4486.120092299157	1
2	6966	4486.139426351377	0
2	6995	4532.066871230832	1
2	6996	4532.365446738118	0
2	7010	4537.347028653791	1
2	7011	4537.442887387075	0
2	7200	4669.097289406849	1
2	7201	4669.678759927704	0
2	7325	4752.572143773153	1
2	7326	4752.918406068263	0
2	7375	4783.354775360639	1
2	7376	4783.804066673332	0
2	7420	4799.820564349041	1
2	7422	4800.153507709347	2
2	7423	4800.434276162751	1
2	7426	4800.969050400436	0
2	7615	4970.990481173969	1
2	7616	4971.889700293466	0
2	7755	5042.06218497536	1
2	7756	5042.128866358345	0
2	7770	5044.18827261278	1
2	7771	5044.54531638461	0
2	7835	5088.668851075844	1
2	7836	5088.793389628847	0
2	7875	5113.283532818036	1
2	7876	5114.030120251666	0
2	7915	5168.102591249538	1
2	7916	5168.330095483627	0
2	8010	5270.008283815852	1
2	8011	5270.117737143784	0
2	8020	5271.459422289142	1
2	8021	5271.470031449822	0
2	8030	5272.549510172381	1
2	8031	5272.919543896261	0
2	8060	5301.06877998351	1
2	8061	5301.672705419945	0
2	8090	5338.624191345747	1
2	8091	5339.464725697482	0
2	8170	5385.71512573669	1
2	8171	5385.838425454094	0
2	8180	5386.630614246532	1
2	8181	5387.373446866636	0
2	8210	5408.913511199636	1
2	8211	5409.225152292896	0
2	8335	5499.963337872535	1
2	8337	5500.145970406789	2
2	8338	5500.855304526527	1
2	8342	5501.222884368882	2
2	8343	5501.811593908713	1
2	8346	5502.520702808573	0
2	8350	5503.138074901863	1
2	8351	5503.207601932752	0
2	8360	5506.771892509561	1
2	8361	5507.284677236827	0
2	8385	5518.697996940914	1
2	8386	5518.87843073221	0
2	8390	5518.882953327338	1
2	8391	5519.668696128634	0
2	8447	5555.39319621703	1
2	8448	5556.021322923204	0
2	8470	5566.411715392911	1
2	8471	5567.243136899324	0
2	8485	5571.367206836712	1
2	8486	5571.75812540055	0
2	8495	5572.300392549376	1
2	8498	5572.717252913404	0
2	8502	5572.749951907544	1
2	8504	5573.0148438355	2
2	8505	5573.55205252297	1
2	8508	5574.287485838595	0
2	8515	5574.732413077805	1
2	8516	5575.373555708124	0
2	8520	5575.598149695391	1
2	8521	5576.25271205004	0
2	8605	5622.84327027099	1
2	8606	5623.322958929924	0
2	8647	5636.093226680089	1
2	8648	5636.41534177038	0
2	8655	5637.652203482343	1
2	8656	5638.188845142593	0
2	8740	5683.424055151394	1
2	8741	5684.150926311542	0
2	8865	5776.159642333163	1
2	8866	5776.401424382181	0
2	8985	5839.930758830597	1
2	8986	5840.405951317037	0
2	8995	5841.820322732415	1
2	8996	5841.90541905621	0
2	9052	5855.130033879243	1
2	9053	5855.609283205458	0
2	9090	5865.168191720659	1
2	9091	5865.679795077406	0
2	9135	5909.833914688894	1
2	9136	5910.179847227121	0
2	9235	5956.877048770846	1
2	9236	5956.949109323212	0
2	9280	5982.578602386403	1
2	9281	5982.925858087147	0
2	9300	5986.376690078466	1
2	9301	5986.5841837012	0
2	9470	6131.840690194476	1
2	9471	6132.059249634575	0
2	9505	6154.20724532939	1
2	9506	6154.674077717023	0
2	9580	6196.816918715959	1
2	9583	6197.318013954502	0
2	9587	6197.340911269086	1
2	9588	6198.007491346648	0
2	9690	6289.689201573565	1
2	9691	6290.294827137816	0
2	9700	6291.016523544094	1
2	9701	6291.390862692222	0
2	9800	6332.251110911641	1
2	9801	6332.680895547163	0
2	9840	6346.812377091706	1
2	9841	6347.289481427427	0
2	9920	6414.126859820327	1
2	9921	6414.239503722413	0
2	10025	6494.281107801265	1
2	10026	6494.676482051622	0
2	10030	6494.924313455614	1
2	10031	6495.421542275289	0
2	10090	6539.018545889094	1
2	10093	6539.803806801487	0
2	10295	6754.374688192194	1
2	10296	6754.777410298189	0
2	10310	6756.747422562884	1
2	10311	6757.03203830372	0
2	10440	6862.604566659793	1
2	10441	6863.199714429427	0
2	10555	6929.544410090064	1
2	10556	6930.199800881353	0
2	10560	6930.228427767346	1
2	10563	6931.038191035605	0
2	10595	6958.912791545184	1
2	10596	6959.089854230412	0
2	10625	6969.636540933418	1
2	10626	6969.896714177892	0
2	10630	6970.050663342099	1
2	10631	6970.529479664589	0
2	10685	6997.664984285186	1
2	10686	6997.846189739166	0
2	10720	7017.774234350068	1
2	10721	7018.282732477651	0
2	10915	7157.191518565566	1
2	10916	7157.826709673805	0
2	10935	7170.784300190506	1
2	10936	7171.25166679578	0
2	11205	7360.957908563109	1
2	11206	7361.009203658675	0
2	11217	7361.725564091062	1
2	11218	7362.269313346318	0
2	11385	7493.628269853593	1
2	11386	7493.949220266841	0
2	11495	7556.883431911293	1
2	11496	7557.172365936839	0
2	11530	7572.812294892206	1
2	11531	7573.256902847159	0
2	11610	7639.972624790286	1
2	11611	7640.488914734466	0
2	11750	7743.578352025265	1
2	11751	7743.810656628453	0
2	11765	7751.198370291131	1
2	11768	7751.828182574745	0
2	11815	7790.871123107158	1
2	11816	7791.336176848079	0
2	11880	7858.37971776306	1
2	11883	7859.017712531072	0
2	11980	7902.537952923207	1
2	11981	7902.551649900698	0
2	12185	8044.813950532697	1
2	12186	8045.257518124369	0
2	12445	8239.40529815592	1
2	12446	8239.606999721623	0
2	12540	8290.202511020918	1
2	12541	8290.885302032818	0
2	12580	8343.992060274322	1
2	12581	8344.167737754859	0
2	12612	8366.759689471212	1
2	12613	8366.898246788431	0
2	12770	8434.550772018509	1
2	12771	8435.343560399001	0
2	12820	8452.957980466093	1
2	12823	8453.265138205374	0
2	12840	8469.271482464596	1
2	12841	8469.826735453125	0
2	12935	8538.811002426401	1
2	12936	8539.721169992713	0
2	12945	8540.450500121599	1
2	12948	8541.174061150695	0
2	12975	8559.382767756037	1
2	12976	8560.310576648583	0
2	12985	8562.982391418807	1
2	12986	8563.380871486678	0
2	13060	8625.912772081732	1
2	13061	8626.459377885497	0
2	13110	8667.585611654557	1
2	13111	8668.297551899593	0
2	13185	8708.955751890293	1
2	13187	8709.078391577931	2
2	13188	8709.160244285055	1
2	13191	8709.831111191884	0
2	13200	8714.497103405032	1
2	13201	8714.973780800411	0
2	13215	8733.338505861781	1
2	13216	8734.042906853577	0
2	13237	8743.768292307508	1
2	13238	8743.830299446655	0
2	13245	8744.339572298172	1
2	13247	8744.824088906299	2
2	13248	8744.912943921394	1
2	13251	8745.569275055097	0
2	13255	8745.908410313133	1
2	13256	8746.52993522302	0
2	13390	8854.901357667253	1
2	13391	8855.257341576132	0
2	13450	8886.903224288969	1
2	13451	8886.9913206279	0
2	13480	8902.088472797514	1
2	13481	8902.67317662617	0
2	13490	8904.113751283184	1
2	13491	8904.454875924674	0
2	13505	8907.783359405454	1
2	13506	8908.315880995727	0
2	13510	8908.469801564639	1
2	13512	8908.75861415728	2
2	13513	8909.085489371856	1
2	13517	8909.194318120774	2
2	13520	8909.82953102623	1
2	13523	8910.371485410322	0
2	13527	8910.477689256856	1
2	13528	8911.244836805545	0
2	13532	8911.412649506599	1
2	13533	8911.957875029573	0
2	13640	8980.789899952229	1
2	13641	8981.102013700576	0
2	13660	8989.190594067409	1
2	13661	8989.277176042034	0
2	13735	9052.882676581484	1
2	13736	9053.232957270723	0
2	13805	9066.837582563405	1
2	13806	9066.927858146775	0
2	13825	9076.975804996484	1
2	13826	9077.150662427592	0
2	14070	9291.519630878354	1
2	14071	9291.593233613415	0
2	14112	9332.657512937048	1
2	14113	9333.167576360435	0
2	14210	9386.401608590872	1
2	14211	9386.477425721957	0
2	14230	9400.831603827438	1
2	14231	9401.208648828456	0
2	14340	9480.195648302487	1
2	14341	9480.709152955809	0
2	14555	9636.317990043717	1
2	14556	9636.793241657753	0
2	14610	9674.082369564694	1
2	14611	9674.186999619325	0
2	14730	9749.819770894504	1
2	14731	9750.291598610053	0
2	14765	9789.930549476314	1
2	14766	9790.053071588741	0
2	14790	9802.619647028549	1
2	14791	9802.705581722344	0
2	14795	9802.964001772571	1
2	14796	9803.670959002274	0
2	14860	9872.82148485675	1
2	14862	9872.9944144395	2
2	14863	9873.042711098754	1
2	14868	9873.471855426609	0
2	14872	9874.038977632638	1
2	14873	9874.261513328954	0
2	14877	9874.506001937219	1
2	14878	9874.802840131318	0
2	14882	9874.835879484581	1
2	14884	9875.325548073389	2
2	14885	9875.501982222155	1
2	14889	9875.764077089881	2
2	14890	9875.951567315806	1
2	14893	9876.832205620531	0
2	14950	9917.458296731904	1
2	14951	9918.070575042285	0
2	14975	9921.934752651133	1
2	14976	9922.790434626948	0
2	15085	10014.737778041493	1
2	15086	10015.312166638507	0
2	15165	10083.638910853897	1
2	15166	10083.840284798163	0
2	15195	10102.93488638983	1
2	15196	10103.165901015144	0
2	15250	10132.032815340564	1
2	15251	10132.213583595398	0
2	15315	10177.552046796273	1
2	15316	10177.907864604813	0
2	15355	10193.924089356404	1
2	15356	10194.264786551894	0
2	15410	10222.453016522285	1
2	15411	10222.869347669392	0
2	15420	10224.951538937219	1
2	15421	10225.07155856269	0
2	15475	10245.685435926313	1
2	15476	10246.225082867313	0
2	15580	10298.750167963677	1
2	15581	10299.456843429215	0
2	15805	10469.849482524671	1
2	15806	10470.223857757983	0
2	15815	10471.150306379774	1
2	15816	10471.944551472295	0
2	15820	10472.337945581324	1
2	15821	10472.493953203479	0
2	15935	10522.208351239386	1
2	15936	10522.582473696197	0
2	16050	10611.274638596548	1
2	16051	10611.528938674069	0
2	16060	10613.757794193951	1
2	16061	10614.226699598013	0
2	16120	10655.495858570782	1
2	16121	10655.873827933106	0
2	16245	10718.52832608162	1
2	16246	10719.065044968172	0
2	16265	10721.523150371352	1
2	16266	10721.738863061198	0
2	16315	10763.571849310184	1
2	16316	10763.882866454582	0
2	16375	10811.043509328304	1
2	16376	10811.076082124116	0
2	16600	10968.006784135816	1
2	16601	10968.200458186189	0
2	16765	11071.796165171562	1
2	16766	11071.824762992898	0
2	16770	11072.266241082978	1
2	16771	11072.340075431822	0
2	16835	11110.43183185525	1
2	16837	11111.015952042308	2
2	16838	11111.21528100457	1
2	16841	11112.165005160095	0
2	17390	11604.961839938865	1
2	17391	11605.478494834438	0
2	17470	11669.491771724798	1
2	17471	11670.016694530258	0
2	17475	11670.279886670145	1
2	17476	11670.916486564018	0
2	17655	11815.758253798591	1
2	17656	11815.944853207813	0
2	17685	11822.923751446745	1
2	17686	11823.557171149139	0
2	17930	11996.069971044526	1
2	17931	11996.512930329541	0
2	17950	12000.251726679015	1
2	17951	12000.756179398065	0
2	18035	12075.362314507109	1
2	18036	12075.701380877427	0
2	18180	12146.341525827783	1
2	18181	12146.720553517139	0
2	18235	12181.105499911831	1
2	18236	12181.66453360538	0
2	18245	12182.232888000392	1
2	18246	12182.675670207711	0
2	18340	12252.545895121648	1
2	18341	12253.011954674056	0
2	18385	12275.052181042118	1
2	18388	12275.91332251026	0
2	18445	12309.81033012049	1
2	18446	12309.880001927318	0
2	18492	12329.725486978591	1
2	18493	12329.86704216445	0
2	18510	12339.869957570664	1
2	18511	12340.733213467536	0
2	18570	12386.11274264237	1
2	18571	12386.778791261639	0
2	18630	12429.031915538219	1
2	18631	12429.658129972309	0
2	18755	12537.054662708803	1
2	18756	12537.103781971217	0
2	18835	12602.127548965865	1
2	18836	12602.337702843898	0
2	18870	12620.304572768568	1
2	18871	12620.895163093674	0
2	18900	12627.874592380106	1
2	18901	12628.293193351808	0
2	18915	12634.447693323237	1
2	18916	12634.829687230442	0
2	18960	12663.93738576273	1
2	18961	12664.391757476814	0
2	19130	12780.943849798922	1
2	19131	12781.581870073658	0
2	19210	12838.712436198804	1
2	19211	12838.792581756142	0
2	19290	12912.647984328639	1
2	19291	12912.657587017557	0
2	19375	12983.910166321407	1
2	19376	12984.432169536018	0
2	19405	13004.043939994969	1
2	19406	13004.079725053786	0
2	19490	13091.830125582535	1
2	19491	13092.149892408081	0
2	19500	13095.484098271723	1
2	19501	13095.669737600063	0
2	19515	13097.55584802743	1
2	19516	13097.981925944729	0
2	19765	13276.112753335484	1
2	19766	13276.292930362906	0
2	19780	13296.324733212985	1
2	19781	13296.616862335507	0
2	19795	13301.287421645638	1
2	19796	13301.643834866488	0
2	19840	13328.696440198281	1
2	19841	13328.701968796742	0
2	20020	13479.142881047812	1
2	20021	13479.841934191935	0
2	20040	13495.435342072164	1
2	20041	13495.787365203031	0
2	20075	13520.780722391483	1
2	20076	13521.205852944673	0
2	20492	13790.863866775732	1
2	20494	13791.670475231003	2
2	20495	13791.679299647821	1
2	20499	13791.920326852831	2
2	20501	13791.948689287973	3
2	20502	13792.422462825518	2
2	20505	13793.206510314666	1
2	20508	13794.195155489439	0
2	20530	13802.630257814317	1
2	20531	13802.795489944987	0
2	20585	13861.602671150032	1
2	20588	13862.14950861198	0
2	20592	13862.596398939269	1
2	20593	13862.883900738769	0
2	20740	13957.343339913809	1
2	20741	13957.975378218367	0
2	20790	14004.114187609411	1
2	20791	14004.550558083015	0
2	20890	14043.47419457315	1
2	20891	14043.80808314059	0
2	20942	14066.872411930897	1
2	20943	14067.107043371375	0
2	21040	14154.174670167523	1
2	21041	14154.387910736685	0
2	21160	14240.847510909868	1
2	21161	14241.658618881949	0
2	21250	14279.145515391934	1
2	21251	14279.742405420534	0
2	21305	14322.315464370866	1
2	21306	14322.56163734857	0
2	21322	14324.798369707354	1
2	21323	14325.271289929946	0
2	21375	14336.931855021851	1
2	21376	14337.078187433601	0
2	21400	14370.206106080017	1
2	21401	14370.819410574233	0
2	21435	14381.150062250513	1
2	21438	14381.667718741795	0
2	21445	14382.437038503233	1
2	21448	14382.665502940103	0
2	21545	14469.596184788547	1
2	21546	14469.997367459476	0
2	21587	14493.81397365974	1
2	21588	14493.92166724358	0
2	21625	14522.06957806023	1
2	21626	14522.400357624244	0
2	21640	14527.000365081851	1
2	21641	14527.207584949038	0
2	21750	14585.168593951569	1
2	21751	14585.254421217038	0
2	21765	14598.297953840844	1
2	21766	14598.910486614591	0
2	21780	14606.439615128449	1
2	21781	14606.469828002348	0
2	21845	14663.391726695094	1
2	21846	14663.952318646404	0
2	21890	14709.780919516895	1
2	21891	14709.79178997784	0
2	21900	14718.60170454077	1
2	21901	14718.80611392698	0
2	21950	14746.503996931172	1
2	21951	14747.158505355752	0
2	21955	14747.305596539996	1
2	21956	14747.849668298614	0
2	22080	14825.750633882673	1
2	22081	14826.395041592574	0
2	22195	14899.198220709612	1
2	22196	14899.489285940633	0
2	22215	14916.985663818339	1
2	22216	14917.404122717403	0
2	22382	15061.104022490568	1
2	22383	15061.225692511965	0
2	22430	15112.41269040485	1
2	22431	15112.951056188798	0
2	22490	15183.58372625647	1
2	22491	15183.84030629687	0
2	22570	15267.373376164827	1
2	22571	15267.456710147114	0
2	22590	15269.958167750071	1
2	22591	15270.161225216202	0
2	22925	15506.058049550848	1
2	22926	15506.223612219231	0
2	22975	15533.353839840326	1
2	22976	15533.864783123185	0
2	23000	15560.666780321058	1
2	23001	15561.098978233163	0
2	23130	15679.356299495052	1
2	23131	15680.160549157813	0
2	23215	15749.115581152784	1
2	23216	15749.520374062341	0
2	23240	15771.812841717432	1
2	23241	15771.894547002928	0
2	23270	15790.400085533036	1
2	23271	15791.130645550846	0
2	23275	15791.394951886019	1
2	23276	15791.700982587657	0
2	23360	15865.12350289532	1
2	23361	15865.443832687771	0
2	23365	15865.776778533929	1
2	23366	15865.950072871957	0
2	23370	15866.020330899004	1
2	23371	15866.396077640139	0
2	23470	15950.575596272923	1
2	23471	15951.177793309934	0
2	23595	16088.974116983843	1
2	23597	16089.032405817481	2
2	23598	16089.49036642172	1
2	23601	16090.005481360653	0
2	23620	16117.411077642349	1
2	23621	16117.691307930991	0
2	23710	16205.233067026445	1
2	23711	16205.442111896538	0
2	23790	16256.505381020347	1
2	23791	16257.01736442165	0
2	23795	16257.308143536835	1
2	23796	16257.581622084067	0
2	23822	16264.318438401072	1
2	23823	16265.105933962637	0
2	23827	16265.647809298621	1
2	23828	16265.803971203664	0
2	23985	16355.315248036001	1
2	23986	16356.149107027917	0
2	23990	16356.181915527873	1
2	23991	16357.133797013086	0
2	24100	16410.841047621985	1
2	24101	16411.479589143769	0
2	24110	16412.755628726323	1
2	24111	16413.228481644254	0
2	24205	16477.472487605739	1
2	24208	16478.348390156728	0
2	24235	16487.026313864963	1
2	24236	16487.182463597651	0
2	24270	16496.936801099694	1
2	24271	16497.815426445159	0
2	24335	16535.91307501276	1
2	24336	16536.547487312372	0
2	24415	16599.342181060601	1
2	24416	16599.552146728349	0
2	24457	16629.916201526118	1
2	24458	16630.307445955987	0
2	24510	16670.096386693326	1
2	24511	16670.750144816578	0
2	24700	16782.831107759782	1
2	24701	16783.145769242152	0
2	24710	16784.244068017712	1
2	24711	16784.625750203059	0
2	24850	16889.744745993802	1
2	24851	16890.27756200735	0
2	24890	16918.835095890546	1
2	24891	16919.090157311077	0
2	24900	16922.228030541822	1
2	24901	16922.257684712344	0
2	24910	16934.21598378694	1
2	24911	16934.415753105952	0
2	24965	16978.203507584509	1
2	24966	16978.925589804939	0
2	25090	17040.257377641774	1
2	25091	17040.556897144935	0
2	25170	17113.106873563821	1
2	25172	17113.176814882033	2
2	25173	17113.463644195094	1
2	25176	17114.022497009372	0
2	25190	17117.920298077128	1
2	25191	17118.292045121341	0
2	25250	17182.521920527181	1
2	25253	17183.006849458132	0
2	25450	17309.068176943792	1
2	25451	17309.265691171675	0
2	25455	17309.274120121979	1
2	25456	17310.074900493487	0
2	25512	17368.258474720385	1
2	25513	17368.61117336518	0
2	25570	17421.239615183284	1
2	25571	17421.933302104828	0
2	25595	17431.23330013444	1
2	25596	17431.361539724506	0
2	25650	17446.852363233774	1
2	25651	17447.780566584873	0
2	25695	17464.440223667084	1
2	25696	17464.801438251705	0
2	25700	17465.071529371024	1
2	25703	17465.374310412453	0
2	25725	17485.874591330021	1
2	25726	17486.507742133081	0
2	25730	17486.623409868054	1
2	25731	17487.189257778363	0
2	25745	17505.035250623525	1
2	25746	17505.059275489398	0
2	25780	17530.143902056272	1
2	25781	17530.868184314365	0
2	25790	17541.232697319185	1
2	25793	17541.594732522016	0
2	25805	17543.177500171332	1
2	25806	17543.698909528909	0
2	25815	17545.014406836002	1
2	25816	17545.238766196726	0
2	25830	17547.156280409972	1
2	25831	17547.654904422679	0
2	25845	17570.415627604203	1
2	25846	17570.416692075734	0
2	25882	17578.133751540969	1
2	25883	17578.343008987634	0
2	25887	17578.54857597535	1
2	25889	17579.110359363445	2
2	25890	17579.166979672974	1
2	25893	17579.677889220119	0
2	25910	17583.561830927103	1
2	25912	17583.596246969463	2
2	25913	17584.39660305097	1
2	25916	17585.382320419003	0
2	25920	17585.462494761758	1
2	25921	17586.168237941622	0
2	25955	17605.864391753889	1
2	25956	17606.155842155394	0
2	25995	17636.268771833785	1
2	25996	17636.455884727961	0
2	26185	17753.679711763138	1
2	26186	17753.885535431067	0
2	26215	17766.939436592629	1
2	26216	17767.091087580333	0
2	26255	17781.25255710644	1
2	26256	17781.432043159145	0
2	26265	17783.833794053483	1
2	26266	17784.169099251592	0
2	26305	17806.200729125053	1
2	26306	17807.059486542165	0
2	26335	17813.687315070662	1
2	26336	17813.93604504902	0
2	26365	17834.847173975194	1
2	26366	17834.96358390931	0
2	26585	17988.028061239975	1
2	26586	17988.2972679509	0
2	26625	18013.080535665219	1
2	26626	18013.365412303195	0
2	26645	18023.268997417292	1
2	26646	18024.000952001733	0
2	26740	18091.868856153017	1
2	26741	18092.701634677111	0
2	26750	18096.217342947391	1
2	26751	18096.22373122861	0
2	26755	18096.606145979376	1
2	26756	18096.905888615868	0
2	26875	18151.272310035686	1
2	26876	18151.81452108299	0
2	27050	18265.163488285028	1
2	27051	18265.612232291273	0
2	27060	18267.086243900528	1
2	27061	18267.486405991291	0
2	27075	18270.190211731465	1
2	27076	18270.236129373553	0
2	27160	18358.657554734929	1
2	27161	18359.035898515709	0
2	27190	18365.706923464664	1
2	27191	18365.779797381871	0
2	27195	18366.000385298057	1
2	27196	18366.471929240469	0
2	27200	18366.718798350197	1
2	27201	18367.336016160864	0
2	27237	18375.916929892488	1
2	27238	18376.608944276159	0
2	27280	18414.002600315338	1
2	27281	18414.018729801031	0
2	27365	18461.885546809678	1
2	27366	18462.272533794086	0
2	27390	18470.254787700532	1
2	27391	18470.51757892994	0
2	27415	18489.588390671177	1
2	27416	18489.938139454062	0
2	27525	18557.868008930965	1
2	27526	18558.20941664983	0
2	27535	18559.16344517446	1
2	27536	18559.293976794569	0
2	27545	18562.900892288207	1
2	27546	18563.658119664672	0
2	27655	18670.015680953412	1
2	27656	18670.618657367549	0
2	27875	18847.702630606186	1
2	27876	18848.130858194621	0
2	27965	18905.355590211913	1
2	27966	18905.872057526476	0
2	27975	18915.18126388581	1
2	27976	18915.565944816987	0
2	28040	18959.249922710612	1
2	28043	18959.958681282919	0
2	28080	18980.651483064003	1
2	28081	18980.980883965839	0
2	28115	18988.434024552246	1
2	28116	18988.834056522545	0
2	28280	19105.012445240924	1
2	28281	19105.095275468834	0
2	28295	19124.587123619427	1
2	28296	19124.681981067691	0
2	28315	19138.903981507114	1
2	28316	19138.916937019973	0
2	28360	19160.973882931185	1
2	28361	19161.075011234034	0
2	28455	19248.881671144341	1
2	28457	19249.214896681415	2
2	28458	19249.277454221565	1
2	28461	19249.680935194799	0
2	28520	19290.70186154558	1
2	28521	19291.216362350466	0
2	28527	19291.825120246658	1
2	28528	19292.207924738651	0
2	28532	19292.304092641782	1
2	28533	19292.624543924894	0
2	28537	19292.916016600614	1
2	28538	19293.361496175904	0
2	28550	19307.388140408235	1
2	28551	19307.75540310837	0
2	28560	19308.92024995407	1
2	28561	19309.047128149426	0
2	28710	19453.604310774342	1
2	28711	19454.247186240193	0
2	28715	19454.261230929108	1
2	28716	19454.930856494058	0
2	28770	19477.254356200042	1
2	28771	19478.107910656608	0
2	28802	19483.919561332341	1
2	28803	19483.934984504478	0
2	28830	19508.856119234082	1
2	28831	19508.98362096197	0
2	28847	19519.879324289741	1
2	28848	19520.302733598169	0
2	28980	19600.319106502193	1
2	28981	19600.618376402783	0
2	28987	19601.311273630203	1
2	28988	19601.4251412976	0
2	29045	19625.656493792532	1
2	29046	19626.351971686447	0
2	29055	19627.51072010998	1
2	29057	19627.785752770354	2
2	29058	19627.92619893132	1
2	29061	19628.567040491945	0
2	29065	19628.811211679098	1
2	29066	19629.089088498478	0
2	29100	19649.114763738661	1
2	29101	19649.452756199784	0
2	29175	19697.146979884198	1
2	29176	19697.503485025093	0
2	29260	19729.46577157804	1
2	29261	19729.560399938561	0
2	29275	19737.169141741474	1
2	29276	19737.317556936325	0
2	29430	19844.656262848132	1
2	29431	19845.25249630605	0
2	29565	19915.185467361569	1
2	29566	19915.568525449356	0
2	29665	19980.345445552611	1
2	29666	19980.458317457267	0
2	29670	19980.527464882918	1
2	29671	19981.092619182809	0
2	29695	19993.636394402034	1
2	29698	19994.412806442239	0
2	29705	19995.014541111105	1
2	29707	19995.246782301481	2
2	29708	19995.752921827602	1
2	29711	19996.279473688732	0
2	29900	20142.092320862683	1
2	29901	20142.121843866021	0
2	29945	20168.549944371681	1
2	29946	20169.002805567921	0
2	30055	20223.507387417772	1
2	30056	20223.53015755235	0
2	30120	20254.026020376957	1
2	30121	20254.747250746488	0
2	30125	20255.025401862892	1
2	30126	20255.385779289221	0
2	30140	20258.438154635197	1
2	30141	20258.895007096253	0
2	30150	20259.855171922416	1
2	30151	20260.660287284454	0
2	30200	20315.59158200928	1
2	30201	20315.939788223538	0
2	30235	20344.348318341558	1
2	30236	20345.023124288715	0
2	30240	20345.197691697559	1
2	30241	20345.600805517653	0
2	30250	20346.406391809113	1
2	30251	20346.625905629148	0
2	30420	20480.458827619319	1
2	30421	20480.473903612704	0
2	30730	20714.41744371014	1
2	30731	20714.848090826317	0
2	30844	20788.679843758691	1
2	30845	20788.964610847547	0
2	30857	20790.723119738688	1
2	30858	20791.150243817685	0
2	30880	20795.202650046969	1
2	30881	20795.354838773837	0
2	30995	20882.426075647676	1
2	30996	20882.697871339033	0
2	31052	20922.52065461635	1
2	31053	20922.592808228167	0
2	31180	21016.29056509049	1
2	31181	21016.694250608456	0
2	31285	21069.254229232618	1
2	31286	21070.071127908401	0
2	31305	21072.694402108629	1
2	31306	21073.002128184222	0
2	31327	21079.723225715328	1
2	31328	21079.918471741281	0
2	31352	21091.82387766362	1
2	31353	21092.137848916682	0
2	31495	21216.014600244357	1
2	31496	21216.244226232932	0
2	31520	21228.123296444187	1
2	31521	21229.05678949973	0
2	31545	21244.734224403896	1
2	31546	21244.810372700796	0
2	31615	21275.750511783959	1
2	31616	21275.896331786462	0
2	31620	21275.938351870267	1
2	31621	21276.575172464833	0
2	31670	21292.175315399889	1
2	31671	21292.827855328425	0
2	31707	21299.926924050603	1
2	31708	21300.424868399928	0
2	31712	21300.78016359973	1
2	31713	21300.834139680163	0
2	31790	21349.327328733212	1
2	31791	21349.702970793117	0
2	31870	21415.103618263505	1
2	31871	21415.537788528181	0
2	31882	21421.505191968988	1
2	31883	21421.519313518921	0
2	31887	21421.58309076554	1
2	31888	21422.338444469482	0
2	31892	21423.106298110686	1
2	31893	21423.315437999633	0
2	31897	21423.613656620201	1
2	31900	21424.141645999192	0
2	31907	21425.594141114571	1
2	31908	21425.641270477822	0
2	31912	21425.879451840614	1
2	31915	21426.449365385653	0
2	31919	21426.543411211406	1
2	31920	21427.404427136698	0
2	31980	21478.230916757296	1
2	31981	21478.500537575367	0
2	31990	21479.02687213164	1
2	31991	21479.477545882906	0
2	32140	21588.989034364772	1
2	32141	21589.659067773593	0
2	32145	21589.785252614566	1
2	32146	21590.386103168509	0
2	32160	21617.622060527808	1
2	32161	21617.691233966104	0
2	32245	21695.644695737562	1
2	32248	21695.964889873858	0
2	32355	21774.138003354858	1
2	32356	21774.155565062988	0
2	32382	21784.986109878075	1
2	32383	21785.099043800635	0
2	32400	21795.708888241482	1
2	32401	21795.963341244074	0
2	32415	21804.719672798357	1
2	32418	21805.25693940707	0
2	32425	21806.187466716843	1
2	32426	21806.273111737804	0
2	32545	21908.23709224903	1
2	32546	21908.552553115484	0
2	32575	21916.781950183985	1
2	32576	21916.940139035959	0
2	32585	21918.109792895461	1
2	32586	21918.710188801848	0
2	32625	21950.413589242517	1
2	32626	21950.77091277222	0
2	32805	22050.743963105926	1
2	32806	22050.783589822153	0
2	32840	22069.211659332089	1
2	32841	22069.349419801463	0
2	32845	22069.449307066731	1
2	32846	22070.066147428858	0
2	32890	22077.729554128085	1
2	32891	22078.382189048931	0
2	32900	22079.329978267467	1
2	32901	22080.045770949928	0
2	32920	22108.095948020054	1
2	32921	22108.265361081993	0
2	33000	22141.588665095935	1
2	33001	22141.919179088192	0
2	33075	22243.355576770442	1
2	33076	22243.623805179444	0
2	33150	22297.319540556271	1
2	33152	22297.610877739027	2
2	33153	22298.167107173489	1
2	33156	22298.798586776075	0
2	33160	22299.574264252675	1
2	33161	22299.683557982012	0
2	33170	22301.828617512883	1
2	33171	22302.063281402449	0
2	33195	22321.355768345086	1
2	33196	22321.490476525881	0
2	33295	22384.415676307593	1
2	33296	22384.618722888573	0
2	33340	22423.696163123026	1
2	33341	22423.804061953785	0
2	33355	22438.439844189225	1
2	33356	22439.040146516755	0
2	33370	22442.952894582996	1
2	33371	22443.070170180745	0
2	33430	22479.132133149386	1
2	33431	22479.296401174607	0
2	33475	22515.11975991557	1
2	33476	22515.963681592085	0
2	33515	22543.945109899619	1
2	33518	22544.485977305946	0
2	33527	22545.172911496297	1
2	33528	22545.589136717663	0
2	33550	22555.559586701052	1
2	33551	22556.155806989007	0
2	33575	22566.64665198383	1
2	33576	22567.189167580262	0
2	33655	22624.88101498125	1
2	33656	22625.013176076578	0
2	33785	22685.823988123087	1
2	33786	22686.379426203535	0
2	33827	22708.820987799885	1
2	33828	22709.073488779398	0
2	33932	22768.401442843128	1
2	33933	22768.537669386154	0
2	33942	22769.583235818048	1
2	33943	22770.028884413091	0
2	33955	22771.919705430116	1
2	33956	22772.104872210973	0
2	33970	22775.875154212588	1
2	33971	22776.545210888468	0
2	34055	22839.13403126912	1
2	34056	22839.703465064736	0
2	34060	22839.893755423938	1
2	34063	22840.592953972593	0
2	34070	22841.910878898578	1
2	34071	22842.302023355411	0
2	34090	22855.12417240663	1
2	34091	22855.259823391397	0
2	34175	22897.235258551739	1
2	34176	22897.85660171968	0
2	34180	22898.042384940374	1
2	34181	22898.309048644016	0
2	34220	22916.93875175781	1
2	34221	22917.349601487646	0
2	34380	23019.120460647998	1
2	34381	23019.1489324958	0
2	34385	23019.946240128401	1
2	34386	23019.98055144762	0
2	34390	23020.613743334211	1
2	34391	23020.859888458944	0
2	34395	23021.074596715979	1
2	34396	23021.377067471569	0
2	34402	23021.668069510922	1
2	34403	23021.944446778245	0
2	34430	23028.345123281132	1
2	34431	23028.612284554468	0
2	34475	23049.30496520881	1
2	34478	23049.904633501725	0
2	34620	23173.099757810103	1
2	34621	23173.220505318587	0
2	34660	23207.844195783444	1
2	34661	23208.006662756761	0
2	34675	23229.786610244943	1
2	34676	23229.983260556082	0
2	34790	23290.163415673694	1
2	34791	23290.553597725622	0
2	34875	23335.505606179468	1
2	34876	23335.666170737495	0
2	34915	23380.058224161343	1
2	34916	23380.731653286266	0
2	34920	23380.777041711525	1
2	34921	23381.667861213191	0
2	35005	23460.252099430894	1
2	35006	23461.014341625651	0
2	35032	23473.54367494554	1
2	35033	23474.117124179689	0
2	35140	23543.04491809037	1
2	35141	23543.782484355575	0
2	35160	23552.960132566704	1
2	35161	23553.32313715236	0
2	35175	23565.567853847789	1
2	35176	23565.67442131302	0
2	35185	23566.291410898133	1
2	35186	23566.804314419091	0
2	35197	23567.767836189075	1
2	35198	23568.356267541105	0
2	35240	23611.923507343153	1
2	35241	23612.059286665639	0
2	35385	23701.926763675411	1
2	35386	23702.007086210242	0
2	35415	23714.209203257629	1
2	35416	23714.369492008763	0
2	35440	23719.342416194392	1
2	35441	23719.749613589633	0
2	35580	23783.222082483081	1
2	35581	23783.586572477107	0
2	35605	23793.837568270085	1
2	35606	23794.611056346655	0
2	35750	23886.096265487496	1
2	35751	23886.748193249123	0
2	35825	23940.029014361469	1
2	35826	23940.254765853843	0
2	35970	24016.210020654705	1
2	35971	24016.593557087546	0
2	36015	24053.158956160686	1
2	36016	24053.737693154489	0
2	36080	24095.395230986747	1
2	36081	24095.941335706103	0
2	36270	24239.527660173419	1
2	36271	24239.703748884033	0
2	36490	24457.683073702505	1
2	36491	24458.489278573898	0
2	36495	24458.699127309059	1
2	36496	24459.096251239377	0
2	36525	24463.743808777572	1
2	36526	24464.001420266761	0
2	36675	24585.316699877828	1
2	36676	24585.816558702555	0
2	36740	24645.2074583788	1
2	36741	24645.38508134611	0
2	36775	24674.24627623833	1
2	36776	24674.591807287186	0
2	36855	24710.582961409745	1
2	36856	24711.143119101579	0
2	37040	24861.632418534344	1
2	37041	24861.65558380537	0
2	37050	24865.910048163884	1
2	37051	24865.914190362102	0
2	37055	24865.977605139399	1
2	37056	24866.601804889959	0
2	37210	24992.965611693728	1
2	37211	24992.998538330377	0
2	37410	25132.57020038022	1
2	37411	25133.339578601437	0
2	37425	25139.698936967644	1
2	37426	25139.822744324022	0
2	37435	25140.69273058698	1
2	37436	25141.277983743941	0
2	37565	25218.329909371458	1
2	37566	25218.38082872917	0
2	37580	25223.329431648143	1
2	37581	25224.025986820918	0
2	37610	25232.748351860625	1
2	37611	25232.935000916651	0
2	37615	25232.996499071102	1
2	37616	25233.842409459396	0
2	37625	25234.530078651875	1
2	37626	25235.211706854341	0
2	37635	25235.945212489254	1
2	37638	25236.830965272322	0
2	37785	25305.851301644464	1
2	37786	25306.054815721683	0
2	37790	25306.152649812221	1
2	37792	25306.415042923911	2
2	37793	25306.562922461828	1
2	37796	25307.009768552365	0
2	38030	25435.726827055762	1
2	38031	25436.234121698843	0
2	38180	25511.594164097982	1
2	38181	25511.652555332103	0
2	38225	25545.019127650267	1
2	38226	25545.549191337714	0
2	38360	25609.137329973957	1
2	38361	25609.748261715587	0
2	38385	25613.266414566344	1
2	38386	25613.434073522736	0
2	38400	25615.667582613817	1
2	38401	25615.968281069367	0
2	38405	25616.524209593801	1
2	38406	25616.603739952964	0
2	38450	25639.371873031704	1
2	38451	25640.07228452167	0
2	38510	25661.008377362891	1
2	38513	25661.240237758053	0
2	38520	25662.064191968955	1
2	38521	25662.467534875428	0
2	38540	25667.671532921048	1
2	38541	25667.825391921214	0
2	38590	25708.904315858174	1
2	38591	25709.215197596031	0
2	38645	25729.091079492085	1
2	38646	25729.337254161086	0
2	38652	25729.607987789765	1
2	38653	25730.271094718926	0
2	38660	25731.277983529419	1
2	38661	25731.57642269882	0
2	38710	25765.258108690034	1
2	38711	25765.323187195946	0
2	38720	25766.240632988488	1
2	38721	25766.531973514117	0
2	38755	25780.155889539212	1
2	38756	25780.634962844526	0
2	39035	26017.189361897091	1
2	39036	26017.562698549588	0
2	39120	26059.724213631009	1
2	39121	26060.162526494292	0
2	39170	26105.274299696154	1
2	39171	26105.527648962831	0
2	39175	26105.561584746675	1
2	39176	26105.935282131547	0
2	39280	26208.998861500947	1
2	39281	26209.411378709224	0
2	39405	26291.758166624949	1
2	39406	26292.061065917991	0
2	39415	26292.763027763327	1
2	39417	26293.440572897539	2
2	39418	26293.461023275757	1
2	39423	26293.942223876359	0
2	39430	26294.577207625321	1
2	39433	26295.424959090136	0
2	39475	26306.770499464957	1
2	39476	26307.2312150334	0
2	39490	26310.012764092934	1
2	39491	26310.374016941233	0
2	39520	26325.061562476615	1
2	39521	26325.493573690098	0
2	39595	26359.449206502731	1
2	39596	26359.797339832361	0
2	39635	26384.930960144262	1
2	39636	26385.426327597814	0
2	39650	26388.560677194031	1
2	39651	26388.585256426333	0
2	39680	26396.258501681178	1
2	39681	26397.057872396852	0
2	39735	26442.294212313937	1
2	39736	26442.489062305661	0
2	39760	26450.54022681685	1
2	39761	26450.757026532061	0
2	39790	26461.537086427717	1
2	39795	26461.99252345193	0
2	39799	26462.001585101217	1
2	39800	26462.433032440756	0
2	39807	26463.285551550707	1
2	39808	26463.590988480615	0
2	39815	26464.282862105161	1
2	39816	26464.904256159336	0
2	39840	26494.390762516958	1
2	39841	26494.940998614352	0
2	39845	26494.999143348683	1
2	39846	26495.373714119527	0
2	39937	26547.273388288505	1
2	39938	26547.29333572032	0
2	39945	26548.535139312984	1
2	39946	26548.539995060005	0
2	39965	26555.304176724089	1
2	39966	26555.664326595147	0
2	39970	26555.828988727178	1
2	39971	26556.57899944182	0
2	39980	26557.586515880694	1
2	39983	26558.160138269288	0
2	40000	26565.131342499672	1
2	40001	26565.372631832597	0
2	40045	26594.672216177666	1
2	40046	26595.263636798949	0
2	40110	26618.973574754678	1
2	40111	26619.124577181507	0
2	40140	26630.595293527195	1
2	40141	26631.23593960637	0
2	40150	26632.705947700791	1
2	40153	26633.106564478434	0
2	40185	26662.841949580756	1
2	40186	26663.257150550386	0
2	40210	26667.416343282769	1
2	40211	26667.505469268562	0
2	40302	26762.904763402262	1
2	40305	26763.040102244845	0
2	40314	26764.31375552093	1
2	40315	26764.630738477666	0
2	40322	26765.628841377605	1
2	40323	26766.068675064599	0
2	40332	26767.234975365994	1
2	40333	26767.296082744026	0
2	40360	26780.324688316546	1
2	40361	26781.024869225643	0
2	40455	26827.740676083897	1
2	40456	26827.843735109408	0
2	40595	26909.63716681395	1
2	40596	26909.680127860457	0
2	40605	26920.411201045107	1
2	40606	26921.039799933046	0
2	40805	27053.446408692993	1
2	40806	27053.865491748771	0
2	40810	27054.235229195971	1
2	40811	27054.511871656666	0
2	40817	27055.396290280605	1
2	40818	27055.484194796656	0
2	41110	27261.30862237737	1
2	41111	27261.808431306032	0
2	41185	27300.78579672666	1
2	41186	27301.266375450399	0
2	41200	27310.784746472229	1
2	41201	27311.158394269215	0
2	41205	27311.263603260628	1
2	41206	27311.588399010886	0
2	41210	27311.672130606967	1
2	41211	27312.555084074185	0
2	41217	27313.171390694411	1
2	41218	27313.38785393563	0
2	41255	27332.655705928084	1
2	41256	27333.585893745372	0
2	41270	27345.823327662586	1
2	41271	27346.480423594419	0
2	41415	27453.605643552326	1
2	41416	27454.431280376921	0
2	41450	27469.183597616868	1
2	41451	27469.330502324137	0
2	41540	27543.919129924024	1
2	41541	27544.143613061132	0
2	41545	27544.477590686876	1
2	41546	27545.066046916749	0
2	41550	27545.463364517888	1
2	41551	27545.858341429019	0
2	41555	27545.998831922469	1
2	41556	27546.505567825595	0
2	41730	27641.883296224015	1
2	41731	27642.019781391703	0
2	41832	27705.257979247552	1
2	41833	27705.480312411131	0
2	41905	27747.591913342698	1
2	41906	27747.965246798402	0
2	41910	27748.00907569117	1
2	41911	27748.744585317444	0
2	42065	27853.230007480035	1
2	42066	27853.487556922101	0
2	42070	27853.976241312948	1
2	42071	27854.268709272976	0
2	42075	27854.592296042208	1
2	42076	27855.040697578612	0
2	42095	27858.140664718198	1
2	42096	27858.362146190891	0
2	42175	27904.766984871903	1
2	42176	27904.940435062808	0
2	42180	27905.648460888225	1
2	42181	27905.856838067568	0
2	42205	27912.279790963581	1
2	42206	27912.874346882454	0
2	42240	27932.974341174998	1
2	42243	27933.253254230285	0
2	42247	27933.998536751036	1
2	42248	27934.205327036709	0
2	42255	27935.296927214087	1
2	42256	27935.511906069715	0
2	42360	27993.045710291884	1
2	42361	27993.567195962528	0
2	42375	28004.08683157153	1
2	42376	28004.3740314623	0
2	42385	28014.308137824402	1
2	42386	28015.169754318628	0
2	42395	28016.648871329767	1
2	42396	28016.875917011374	0
2	42435	28040.270258775406	1
2	42436	28040.790189462468	0
2	42450	28054.637339416759	1
2	42451	28055.066782447852	0
2	42465	28056.802959296269	1
2	42466	28057.283687645103	0
2	42645	28134.546963361233	1
2	42646	28134.685687871782	0
2	42655	28135.73860907779	1
2	42656	28136.444321594939	0
2	42685	28146.570693755255	1
2	42686	28147.182320211184	0
2	42765	28204.555411678008	1
2	42766	28204.88902591883	0
2	42770	28205.643836242021	1
2	42771	28205.802513256499	0
2	42840	28239.798908102816	1
2	42841	28240.450120606319	0
2	42885	28273.801661165952	1
2	42886	28273.887886855019	0
2	42950	28305.167990507426	1
2	42951	28305.241729872258	0
2	42985	28363.892987587798	1
2	42986	28364.307184581136	0
2	43110	28444.420979942813	1
2	43111	28445.28938529501	0
2	43132	28449.762718900527	1
2	43133	28449.970273537781	0
2	43140	28451.224075982529	1
2	43141	28451.39574371412	0
2	43165	28460.206935239915	1
2	43166	28460.221793421004	0
2	43245	28547.777368516039	1
2	43246	28548.070560889496	0
2	43290	28574.189083403378	1
2	43291	28574.244712030041	0
2	43320	28607.437818266576	1
2	43321	28607.534694956982	0
2	43375	28620.926101432984	1
2	43378	28621.566265351719	0
2	43385	28622.252032344643	1
2	43386	28623.130705320809	0
2	43405	28639.917790914793	1
2	43406	28640.44058145198	0
2	43455	28666.992029467385	1
2	43456	28667.714878874159	0
2	43490	28678.276920990718	1
2	43491	28678.827321312683	0
2	43495	28678.832615607856	1
2	43498	28679.629098507263	0
2	43600	28745.793690052681	1
2	43601	28746.742947050059	0
2	43745	28858.627409102311	1
2	43747	28858.717047310824	2
2	43748	28859.202176713539	1
2	43751	28860.055591215348	0
2	43775	28872.36617833305	1
2	43776	28872.978130935608	0
2	43830	28912.411009672571	1
2	43831	28912.480219736293	0
2	43895	28942.585271734966	1
2	43896	28942.985045530669	0
2	44125	29096.383242874845	1
2	44126	29096.465729603074	0
2	44145	29099.812815089941	1
2	44146	29100.075735426252	0
2	44185	29133.851408460798	1
2	44186	29134.11536199505	0
2	44255	29173.016964064304	1
2	44256	29173.080160221167	0
2	44275	29187.501150243501	1
2	44276	29188.158263817119	0
2	44280	29188.218741401338	1
2	44281	29189.011171859611	0
2	44385	29239.236668269291	1
2	44386	29239.589967571992	0
2	44455	29329.918291167459	1
2	44456	29330.551239356578	0
2	44540	29382.394852083185	1
2	44541	29382.695121475925	0
2	44644	29460.258087586018	1
2	44645	29460.531291063416	0
2	44649	29460.742371909384	1
2	44650	29461.36189303613	0
2	44654	29461.833643110869	1
2	44657	29462.072019119893	0
2	44920	29640.229656667669	1
2	44921	29640.464428970824	0
2	44960	29682.573084984292	1
2	44961	29682.951236371868	0
2	45025	29719.996309009571	1
2	45026	29720.68650189036	0
2	45135	29775.185920756201	1
2	45136	29776.038065855363	0
2	45285	29863.869841369379	1
2	45286	29863.914005583993	0
2	45345	29952.195505653644	1
2	45346	29952.389893814718	0
2	45365	29955.953704303817	1
2	45366	29956.095332280026	0
2	45420	29975.732598286455	1
2	45421	29975.947229841231	0
2	45450	29995.496532261197	1
2	45451	29995.989787945698	0
2	45455	29996.338771037451	1
2	45456	29996.931291382049	0
2	45460	29997.127727666707	1
2	45461	29997.599775061372	0
2	45470	29998.660032565034	1
2	45471	29999.132075644903	0
3	0	0	0
3	190	124.525611750137	1
3	191	124.68702736291	0
3	197	124.864260412106	1
3	201	125.897121047731	0
3	225	141.340455120099	1
3	226	141.61624466225	0
3	230	141.736368323107	1
3	231	142.379860571469	0
3	295	187.329766503265	1
3	296	187.850914564847	0
3	390	242.770199998729	1
3	391	243.097548358871	0
3	410	246.19936013898	1
3	411	246.48824988451	0
3	420	247.543511868903	1
3	421	248.260508960308	0
3	500	293.087861657083	1
3	501	293.817784829888	0
3	610	349.288861508446	1
3	611	350.114982479572	0
3	735	422.739561281261	1
3	736	422.991071804775	0
3	770	436.904931636571	1
3	771	437.149077516964	0
3	780	438.144475615548	1
3	781	438.522386981013	0
3	805	444.898724979191	1
3	806	445.267326445342	0
3	810	445.28832319743	1
3	811	445.845878327289	0
3	835	470.003271600533	1
3	836	470.12838464406	0
3	1125	663.840855304975	1
3	1126	664.175827030303	0
3	1155	678.520649926023	1
3	1156	678.851674642568	0
3	1205	711.819193002928	1
3	1206	711.866203415472	0
3	1250	743.823200300363	1
3	1251	744.271480407793	0
3	1260	745.648447929609	1
3	1261	745.906466397562	0
3	1305	776.982872446291	1
3	1306	777.204729942744	0
3	1455	867.793043736045	1
3	1457	867.806580246055	2
3	1458	867.848977525234	1
3	1467	869.072503778388	2
3	1468	869.230296548949	1
3	1471	869.653500937605	0
3	1680	1006.340450755721	1
3	1681	1006.845306797631	0
3	1735	1030.754889515112	1
3	1736	1030.83357898037	0
3	1740	1030.883373628314	1
3	1741	1031.717682560841	0
3	1760	1038.775099019683	1
3	1761	1039.434650598599	0
3	1845	1095.839367640538	1
3	1846	1096.488328864517	0
3	1965	1185.47261432233	1
3	1966	1185.92013415384	0
3	2040	1247.008848158581	1
3	2041	1247.184102405775	0
3	2080	1271.796439699863	1
3	2081	1271.980133068897	0
3	2160	1302.888500055171	1
3	2161	1303.080727672954	0
3	2285	1424.726364952663	1
3	2287	1424.986798096749	2
3	2288	1425.418862157902	1
3	2291	1425.962740872037	0
3	2295	1426.178232433634	1
3	2297	1426.812425467269	2
3	2298	1426.956434397241	1
3	2301	1427.463163801404	0
3	2320	1431.407964934737	1
3	2321	1432.173287504265	0
3	2325	1432.894278270981	1
3	2326	1433.128951437078	0
3	2400	1471.877125931122	1
3	2401	1471.924351703004	0
3	2575	1598.585913585555	1
3	2576	1598.738532697861	0
3	2580	1598.903335632944	1
3	2581	1599.501187371961	0
3	2600	1608.930628381032	1
3	2601	1609.663945041597	0
3	2615	1611.319310972597	1
3	2616	1611.532420459353	0
3	2620	1612.099961888459	1
3	2621	1612.147620427432	0
3	2625	1612.383895238782	1
3	2626	1612.693716192255	0
3	2690	1690.409472159003	1
3	2692	1690.566654409519	2
3	2698	1691.668428755994	1
3	2701	1692.370335585182	0
3	2705	1692.712696947541	1
3	2706	1693.315551933484	0
3	2760	1748.332591809975	1
3	2761	1748.654186544145	0
3	2875	1833.032650006918	1
3	2876	1833.494081502243	0
3	2885	1834.65277402997	1
3	2886	1834.898138942125	0
3	2890	1835.180976508471	1
3	2891	1835.555319567605	0
3	2920	1853.441385556835	1
3	2921	1854.003351643507	0
3	2937	1855.941217223596	1
3	2941	1857.165025744739	0
3	3000	1896.674778221798	1
3	3001	1896.687230904461	0
3	3005	1896.873218377534	1
3	3006	1897.269413608653	0
3	3065	1935.098857263554	1
3	3066	1935.512084493427	0
3	3250	2118.455652199321	1
3	3251	2119.206791488719	0
3	3355	2211.285595986448	1
3	3356	2212.006267878829	0
3	3435	2274.575747331941	1
3	3436	2274.992784950543	0
3	3440	2275.334677310745	1
3	3441	2275.984908557297	0
3	3447	2276.381827869838	1
3	3451	2277.284222245901	0
3	3455	2277.286972817336	1
3	3462	2277.995714481285	2
3	3463	2278.22589042069	1
3	3471	2279.186978430241	0
3	3515	2314.686494322732	1
3	3516	2315.262042545215	0
3	3525	2316.120042198159	1
3	3527	2316.404336161302	2
3	3528	2316.480757569815	1
3	3531	2317.460405850564	0
3	3625	2416.476349873745	1
3	3626	2416.59646446299	0
3	3685	2441.62104183224	1
3	3686	2441.672117431508	0
3	3695	2453.598281493767	1
3	3696	2454.391310532362	0
3	3770	2487.974092357661	1
3	3771	2488.302168695755	0
3	3785	2492.676457550435	1
3	3786	2493.055619341981	0
3	3835	2520.241419318288	1
3	3836	2520.517370844546	0
3	3935	2599.105173213793	1
3	3941	2600.345526682862	0
3	3965	2619.16607862107	1
3	3966	2619.716344350379	0
3	3975	2624.296204450847	1
3	3976	2625.035741658781	0
3	4040	2689.841686995871	1
3	4041	2689.92430087955	0
3	4065	2718.025195011055	1
3	4066	2718.031825950276	0
3	4085	2722.278660556772	1
3	4086	2722.561224213062	0
3	4320	2886.733568711765	1
3	4321	2887.592194836756	0
3	4335	2894.134135634766	1
3	4336	2894.700691781558	0
3	4345	2898.29868966757	1
3	4346	2899.137755787148	0
3	4580	3070.002282028707	1
3	4584	3070.129927465376	2
3	4588	3071.568144519455	1
3	4596	3072.99191585152	0
3	4605	3073.898804055606	1
3	4606	3074.414348343542	0
3	4640	3088.091321037967	1
3	4641	3088.938550606378	0
3	4725	3131.456284903416	1
3	4726	3131.987760329348	0
3	4765	3154.597047530908	1
3	4766	3154.701378112738	0
3	4990	3334.183556851863	1
3	4991	3334.680128182532	0
3	5080	3423.191173631725	1
3	5081	3423.337349345503	0
3	5092	3424.622016337172	1
3	5099	3425.420437202947	2
3	5103	3426.493111716105	1
3	5106	3427.073620130668	0
3	5120	3431.001970701741	1
3	5126	3432.225779989716	0
3	5215	3484.879360719304	1
3	5216	3485.000410851272	0
3	5387	3565.899299866538	1
3	5391	3567.299781179278	0
3	5395	3567.401463054996	1
3	5396	3567.927763366968	0
3	5410	3582.401954933266	1
3	5411	3582.774456546213	0
3	5430	3595.379126223902	1
3	5431	3595.63758693838	0
3	5440	3600.084918858482	1
3	5441	3600.188027015876	0
3	5530	3682.431030983967	1
3	5531	3682.656468955178	0
3	5620	3727.630457360469	1
3	5621	3728.367946462803	0
3	5640	3741.502336353462	1
3	5641	3741.574371287345	0
3	5655	3743.312633890022	1
3	5656	3744.04100147892	0
3	5680	3760.030934845728	1
3	5681	3760.089914216628	0
3	5700	3764.696825824433	1
3	5701	3764.703523257796	0
3	5730	3783.367287042737	1
3	5732	3783.533701761279	2
3	5733	3784.205717764049	1
3	5736	3785.160323511482	0
3	5740	3785.315383734013	1
3	5741	3785.969771411874	0
3	5775	3796.977508696618	1
3	5776	3797.160907512897	0
3	5847	3834.374777849014	1
3	5851	3835.910247235157	0
3	5880	3844.000896936403	1
3	5881	3844.353122055817	0
3	5885	3844.648049394713	1
3	5886	3844.870539690608	0
3	5895	3851.344627853963	1
3	5896	3851.95490785664	0
3	5935	3890.899666804327	1
3	5937	3891.296027478018	2
3	5938	3891.351063411135	1
3	5946	3892.58489293569	0
3	5950	3893.222596157461	1
3	5951	3893.293196567532	0
3	6145	4024.355840205652	1
3	6146	4024.757803147327	0
3	6150	4024.963584723748	1
3	6151	4025.32030556057	0
3	6205	4062.820000465981	1
3	6206	4063.27330275321	0
3	6210	4063.517777076808	1
3	6211	4063.677976124814	0
3	6215	4063.794075115009	1
3	6216	4064.081178781284	0
3	6220	4064.092673309422	1
3	6221	4064.534444635581	0
3	6265	4077.004290377361	1
3	6266	4077.57145205607	0
3	6295	4094.119245319445	1
3	6296	4094.123280530669	0
3	6325	4117.867052499611	1
3	6326	4118.488043097661	0
3	6405	4157.130779505369	1
3	6407	4157.199154825959	2
3	6408	4157.41423898539	1
3	6422	4159.082636962628	2
3	6428	4160.849284696388	1
3	6431	4161.36878611254	0
3	6445	4170.691517370681	1
3	6446	4171.203413254847	0
3	6455	4174.896071726668	1
3	6456	4175.146595756544	0
3	6465	4176.564719420251	1
3	6466	4176.859633495958	0
3	6485	4188.191699940934	1
3	6486	4188.450228853312	0
3	6510	4199.15028706193	1
3	6511	4199.802299903226	0
3	6620	4248.229577613532	1
3	6621	4248.61446299555	0
3	6645	4265.136067581481	1
3	6651	4266.634526716159	0
3	6655	4267.17711045424	1
3	6656	4267.349142291989	0
3	6660	4267.48635199806	1
3	6661	4267.956565572215	0
3	6710	4310.750261423351	1
3	6712	4310.814474678835	2
3	6719	4311.595647851232	3
3	6720	4312.146090812952	2
3	6723	4312.736959232035	1
3	6726	4313.354535118881	0
3	6960	4484.967791124151	1
3	6961	4485.443980622982	0
3	7035	4562.757647023989	1
3	7036	4562.889138877579	0
3	7120	4618.260187558365	1
3	7121	4618.685153841329	0
3	7250	4713.693343791361	1
3	7251	4713.756850136787	0
3	7255	4714.026602797578	1
3	7256	4714.285926418163	0
3	7460	4833.702912304052	1
3	7461	4833.877007293295	0
3	7620	4972.148615145168	1
3	7621	4972.518113252865	0
3	7625	4972.523953318071	1
3	7626	4973.245946847619	0
3	7630	4973.431122565013	1
3	7631	4974.067007953086	0
3	7640	4976.154280181661	1
3	7641	4976.157456860885	0
3	7670	5006.350047927917	1
3	7671	5006.654577945323	0
3	7675	5006.660921034631	1
3	7676	5007.422611706621	0
3	7690	5010.640967140351	1
3	7691	5011.058408377051	0
3	7720	5029.349288368223	1
3	7721	5029.790587493062	0
3	7765	5043.376238459197	1
3	7766	5043.881949510023	0
3	7825	5085.044273121312	1
3	7826	5085.682539640403	0
3	8015	5270.524593854438	1
3	8016	5270.748631928274	0
3	8025	5271.603743699966	1
3	8026	5272.465160495666	0
3	8035	5272.979077227516	1
3	8036	5273.479628290813	0
3	8055	5300.068214642505	1
3	8056	5300.930029292429	0
3	8115	5358.932614656291	1
3	8116	5359.18300963814	0
3	8135	5370.567622249207	1
3	8136	5370.991564226891	0
3	8150	5379.328670391275	1
3	8151	5379.774430068915	0
3	8155	5380.104750081405	1
3	8156	5380.694701429277	0
3	8215	5409.727463745532	1
3	8216	5410.088581354313	0
3	8235	5438.196372896946	1
3	8236	5438.699537212512	0
3	8245	5444.698851303047	1
3	8246	5444.845830374211	0
3	8275	5470.1791445293	1
3	8276	5470.775530461384	0
3	8290	5477.580307651942	1
3	8291	5478.060971944601	0
3	8295	5478.41440365779	1
3	8296	5478.780366748486	0
3	8300	5479.544519058951	1
3	8301	5479.737258874446	0
3	8400	5521.45673877043	1
3	8401	5521.685629239032	0
3	8440	5554.893666769094	1
3	8441	5555.072255192654	0
3	8445	5555.232557022914	1
3	8451	5556.732064166715	0
3	8490	5572.233874121546	1
3	8491	5572.292589776318	0
3	8497	5572.476972917681	1
3	8511	5574.723855619977	0
3	8545	5585.058593384815	1
3	8546	5585.383939663954	0
3	8550	5585.54487688193	1
3	8552	5585.770541740774	2
3	8553	5585.900263290089	1
3	8556	5586.476789463433	0
3	8600	5622.185023498495	1
3	8601	5622.811833120458	0
3	8645	5635.998242471096	1
3	8651	5637.230885017441	0
3	8665	5642.010168038256	1
3	8666	5642.31767654908	0
3	8735	5682.717902729239	1
3	8736	5683.32274928153	0
3	8795	5716.860037977717	1
3	8796	5717.71636093105	0
3	8835	5760.225374429197	1
3	8836	5760.957626892582	0
3	8850	5767.440904790228	1
3	8851	5768.084624321876	0
3	8870	5776.798614170071	1
3	8871	5777.294988660907	0
3	8885	5779.551573756804	1
3	8886	5780.090423643952	0
3	8940	5817.664466784726	1
3	8941	5817.940157746223	0
3	8955	5826.794697531115	1
3	8956	5827.375378431781	0
3	9015	5848.57351968679	1
3	9016	5849.264879900115	0
3	9025	5850.235771423594	1
3	9026	5850.899830439385	0
3	9030	5851.113593001762	1
3	9031	5851.591969020409	0
3	9045	5855.035165584857	1
3	9047	5855.072465572403	2
3	9048	5855.08968193276	1
3	9056	5856.474566187534	0
3	9065	5858.183505632269	1
3	9067	5858.218736748308	2
3	9068	5858.2664310328	1
3	9071	5858.889257253268	0
3	9110	5889.401773728627	1
3	9111	5889.847439266903	0
3	9115	5889.861388973053	1
3	9116	5890.763083128979	0
3	9130	5909.008065189083	1
3	9131	5909.345477494076	0
3	9155	5920.589224250907	1
3	9156	5921.311302997416	0
3	9180	5933.91073267442	1
3	9181	5934.028603916508	0
3	9190	5936.523694136937	1
3	9191	5936.988594363051	0
3	9220	5948.360531133785	1
3	9221	5948.425736853806	0
3	9260	5965.9715182996	1
3	9261	5966.461011891722	0
3	9330	6007.890334098407	1
3	9331	6008.121858363496	0
3	9405	6070.330970356316	1
3	9406	6070.379187058138	0
3	9415	6072.047766770115	1
3	9416	6072.433418768252	0
3	9425	6090.117203642449	1
3	9426	6090.404893278063	0
3	9480	6133.167143446571	1
3	9481	6133.522322943625	0
3	9515	6155.818788134402	1
3	9516	6156.30795285812	0
3	9540	6175.142915003559	1
3	9541	6175.248856625284	0
3	9582	6197.003078280709	1
3	9591	6198.798253829464	0
3	9630	6231.39270248839	1
3	9631	6231.962523850708	0
3	9720	6297.563060962082	1
3	9721	6297.940943427308	0
3	9725	6297.989542653736	1
3	9726	6298.371316727408	0
3	9730	6298.990155763241	1
3	9731	6299.129446730454	0
3	9795	6331.509312808289	1
3	9796	6332.175858404547	0
3	9820	6342.078592376488	1
3	9821	6342.318220510078	0
3	9835	6346.652909329868	1
3	9836	6346.783882762678	0
3	9900	6405.476073629055	1
3	9901	6406.095320415211	0
3	9915	6413.427409798421	1
3	9916	6413.59245591849	0
3	9950	6438.930967714102	1
3	9952	6438.974311994864	2
3	9953	6439.241777254493	1
3	9956	6439.651702832376	0
3	9995	6458.158900906913	1
3	9996	6459.030625595364	0
3	10050	6516.516847402616	1
3	10051	6517.238041172965	0
3	10092	6539.359293708728	1
3	10096	6540.513574414721	0
3	10100	6541.170553628192	1
3	10101	6541.361093759045	0
3	10220	6637.132900976644	1
3	10221	6637.767544036499	0
3	10300	6754.929347086867	1
3	10301	6755.381410093861	0
3	10305	6755.435476143457	1
3	10306	6756.298027839907	0
3	10315	6757.30141210626	1
3	10316	6757.549982658144	0
3	10335	6771.446757260016	1
3	10337	6771.681117898396	2
3	10338	6771.867843900918	1
3	10341	6772.66852245584	0
3	10450	6866.692402354914	1
3	10451	6867.331026604354	0
3	10480	6883.247279535663	1
3	10481	6884.071480339823	0
3	10530	6923.72028004759	1
3	10531	6924.236121675778	0
3	10535	6924.65581240334	1
3	10536	6924.856541962582	0
3	10540	6925.307772510829	1
3	10541	6925.781296269582	0
3	10545	6926.041616770433	1
3	10546	6926.641000115672	0
3	10562	6930.340929742327	1
3	10566	6931.848264451168	0
3	10615	6968.158425225391	1
3	10616	6968.435699700369	0
3	10640	6971.057624006781	1
3	10641	6971.567245749398	0
3	10645	6971.832488126089	1
3	10646	6972.414194394522	0
3	10710	7013.843145622118	1
3	10711	7014.359621888565	0
3	10725	7018.736872940189	1
3	10726	7018.749923731254	0
3	10815	7097.922308457157	1
3	10816	7098.103872566168	0
3	10910	7156.835859114948	1
3	10911	7156.841765219224	0
3	10930	7170.43678538166	1
3	10931	7170.620017004238	0
3	10970	7188.198371474388	1
3	10971	7188.549337150672	0
3	10985	7198.028303034284	1
3	10986	7198.421410279796	0
3	10990	7198.781265099012	1
3	10991	7198.88653586058	0
3	11010	7204.725707302237	1
3	11012	7204.726323645914	2
3	11013	7204.813366465881	1
3	11016	7205.334507484693	0
3	11080	7264.819521768922	1
3	11081	7265.084523123488	0
3	11090	7280.696019578694	1
3	11091	7281.016349171093	0
3	11100	7288.547067029819	1
3	11101	7289.0026049869	0
3	11105	7289.391446462247	1
3	11106	7289.757267726013	0
3	11110	7289.762609899865	1
3	11111	7290.227958444027	0
3	11210	7361.017307669493	1
3	11212	7361.212934796621	2
3	11213	7361.526511658172	1
3	11221	7363.248726652845	0
3	11285	7399.590430317994	1
3	11286	7399.980002052654	0
3	11535	7573.446819785222	1
3	11536	7574.170714064221	0
3	11590	7636.847936764456	1
3	11591	7637.592451330383	0
3	11595	7637.841730314006	1
3	11596	7638.107341651215	0
3	11600	7638.518300544985	1
3	11601	7638.525437519249	0
3	11605	7639.359492560553	1
3	11606	7639.497692836231	0
3	11620	7658.775418427159	1
3	11621	7658.850015068319	0
3	11625	7658.925486219684	1
3	11626	7659.569838772513	0
3	11680	7689.017750346174	1
3	11681	7689.525447889008	0
3	11767	7751.666539531741	1
3	11771	7752.567056175472	0
3	11820	7791.379196793701	1
3	11821	7792.038802619924	0
3	11882	7858.832237456599	1
3	11886	7859.723203210878	0
3	11955	7889.17323199377	1
3	11956	7889.399769050472	0
3	12050	7964.443346184625	1
3	12051	7964.475520484523	0
3	12065	7970.253109061402	1
3	12066	7970.458224593265	0
3	12090	8003.212364287504	1
3	12091	8003.86501878978	0
3	12105	8014.28471047154	1
3	12107	8014.722539603479	2
3	12108	8014.821596916421	1
3	12111	8015.686598508787	0
3	12120	8017.934918823981	1
3	12121	8018.379733335934	0
3	12125	8018.800161726244	1
3	12126	8018.929792843395	0
3	12130	8019.64649643891	1
3	12131	8019.732266676947	0
3	12140	8021.35568553674	1
3	12141	8022.146894422018	0
3	12220	8052.782259284516	1
3	12221	8053.50501362561	0
3	12245	8070.690548906696	1
3	12246	8070.963940928395	0
3	12355	8160.936313333722	1
3	12356	8161.529559400249	0
3	12365	8163.393190570755	1
3	12366	8163.600030425643	0
3	12420	8211.861672200388	1
3	12421	8211.914912449593	0
3	12455	8241.456282008087	1
3	12456	8241.515943307978	0
3	12460	8241.548373217453	1
3	12461	8241.926647901059	0
3	12590	8348.691245589709	1
3	12591	8349.058294471122	0
3	12595	8349.419097406957	1
3	12596	8349.883782094579	0
3	12610	8366.431660190796	1
3	12616	8367.444734249648	0
3	12625	8370.988235466785	1
3	12626	8371.147348499598	0
3	12645	8383.087177572158	1
3	12646	8383.600391991971	0
3	12680	8398.09937860512	1
3	12681	8398.464274502436	0
3	12695	8402.289775512855	1
3	12696	8402.950963574395	0
3	12705	8405.185598988452	1
3	12707	8405.509914908527	2
3	12708	8405.566493928058	1
3	12711	8406.339988193193	0
3	12765	8434.027073164284	1
3	12766	8434.344514527663	0
3	12775	8435.723501516794	1
3	12776	8435.827511372629	0
3	12785	8443.105823424764	1
3	12786	8443.355729146958	0
3	12795	8444.459823287326	1
3	12796	8445.066950443973	0
3	12822	8453.096056598851	1
3	12826	8453.939475385798	0
3	12880	8514.796983696611	1
3	12881	8515.069938758267	0
3	12947	8540.580838067111	1
3	12951	8541.93319118408	0
3	12995	8565.204924767449	1
3	12996	8565.449068213116	0
3	13020	8586.728763640446	1
3	13021	8587.573485499987	0
3	13150	8697.870675658574	1
3	13151	8698.016518376267	0
3	13235	8743.659130096199	1
3	13241	8744.230669631453	0
3	13290	8765.824441319121	1
3	13291	8765.94060524042	0
3	13295	8766.20402118628	1
3	13296	8766.67663056833	0
3	13400	8858.019007695977	1
3	13401	8858.29040604462	0
3	13405	8858.512132750968	1
3	13406	8858.702685400472	0
3	13410	8858.992696863579	1
3	13411	8859.566828720179	0
3	13415	8859.869681651491	1
3	13416	8860.034988061805	0
3	13430	8874.239428448001	1
3	13431	8874.732298452268	0
3	13500	8907.025563047029	1
3	13501	8907.397854022932	0
3	13519	8909.225080056989	1
3	13536	8912.434213485399	0
3	13620	8965.278171484289	1
3	13621	8965.701848047595	0
3	13665	8989.338170900621	1
3	13666	8990.062403305706	0
3	13715	9042.186487661095	1
3	13716	9042.600715251833	0
3	13750	9056.607200393813	1
3	13751	9056.765852214423	0
3	13775	9061.959402963162	1
3	13776	9062.575874342798	0
3	13780	9063.111179864668	1
3	13781	9063.150131563033	0
3	13785	9063.549255413764	1
3	13786	9064.000761591858	0
3	13790	9064.212456653728	1
3	13792	9064.553069757415	2
3	13793	9064.822738035518	1
3	13796	9065.665000493528	0
3	13800	9066.421378557539	1
3	13801	9066.454497838562	0
3	13960	9206.657077637645	1
3	13961	9206.662149641266	0
3	13970	9207.993410536613	1
3	13971	9208.181385399224	0
3	13980	9209.43347627213	1
3	13981	9209.984306579886	0
3	13995	9215.564712070612	1
3	13996	9215.973291450335	0
3	14025	9248.747099100847	1
3	14026	9249.163040546657	0
3	14105	9331.680667805251	1
3	14107	9331.745244572021	2
3	14108	9332.28472552147	1
3	14117	9333.762928538445	2
3	14118	9333.765627477935	1
3	14121	9334.748679467395	0
3	14125	9335.283216828703	1
3	14126	9335.504665794933	0
3	14175	9362.835766818351	1
3	14176	9363.586214170807	0
3	14235	9401.623272534837	1
3	14236	9401.686273651469	0
3	14345	9481.444191735351	1
3	14347	9481.616995970531	2
3	14348	9481.662174034878	1
3	14352	9481.841150632403	2
3	14353	9482.63746229365	1
3	14356	9483.071750386353	0
3	14410	9511.296850457374	1
3	14411	9511.918489740035	0
3	14495	9588.823959002432	1
3	14496	9589.679454439707	0
3	14500	9589.839743173373	1
3	14501	9590.198774245163	0
3	14545	9632.801054349043	1
3	14546	9633.219039168073	0
3	14680	9723.686615233446	1
3	14681	9723.801880062899	0
3	14725	9749.59904847337	1
3	14726	9749.753490837509	0
3	14867	9873.092587943422	1
3	14896	9877.581429786498	0
3	15045	9993.927645587242	1
3	15046	9994.231195978159	0
3	15080	10014.147093470309	1
3	15081	10014.407424167099	0
3	15090	10015.8108021431	1
3	15091	10016.00313172431	0
3	15145	10076.939331689536	1
3	15146	10077.230331920271	0
3	15205	10104.700293957788	1
3	15206	10104.914168792862	0
3	15255	10132.293418421033	1
3	15256	10132.954818806005	0
3	15320	10177.955091623457	1
3	15321	10178.858059646997	0
3	15325	10179.032349342816	1
3	15326	10179.422132428659	0
3	15380	10208.402376749881	1
3	15381	10208.448933321242	0
3	15470	10244.61970269171	1
3	15471	10245.48016321375	0
3	15480	10246.695469933442	1
3	15481	10246.883371108351	0
3	15490	10254.989080277254	1
3	15491	10255.220162622459	0
3	15495	10255.515935903011	1
3	15496	10255.97793253671	0
3	15560	10289.003807818677	1
3	15561	10289.638186285485	0
3	15635	10332.567569244191	1
3	15636	10332.840040120068	0
3	15690	10381.551346732387	1
3	15691	10381.669168997938	0
3	15705	10385.681368311813	1
3	15706	10386.084342119671	0
3	15810	10470.451063616908	1
3	15811	10471.062484951479	0
3	15860	10500.250061469258	1
3	15861	10500.725245416778	0
3	15885	10505.679636078499	1
3	15886	10505.812183289743	0
3	15905	10512.363524644648	1
3	15907	10512.908473646293	2
3	15908	10513.240393118077	1
3	15911	10513.650269331998	0
3	15915	10513.862881534141	1
3	15916	10514.238658898073	0
3	15965	10546.544146698823	1
3	15966	10546.5581456878	0
3	15975	10551.351730641275	1
3	15976	10551.777046507893	0
3	16005	10578.826031146206	1
3	16006	10579.339524534092	0
3	16075	10623.121778305507	1
3	16076	10623.642554971322	0
3	16080	10624.038773819736	1
3	16081	10624.465760892935	0
3	16160	10675.97525269851	1
3	16161	10676.032859538887	0
3	16205	10695.794852051796	1
3	16206	10695.828580348975	0
3	16250	10719.465903614903	1
3	16252	10719.583425485112	2
3	16253	10719.661269164939	1
3	16256	10720.118867823218	0
3	16260	10720.30154307497	1
3	16261	10720.877179563806	0
3	16290	10731.749251975249	1
3	16291	10731.821885661929	0
3	16330	10785.356821735873	1
3	16331	10785.863215020503	0
3	16340	10789.948450215707	1
3	16341	10790.137226873193	0
3	16360	10800.092811123495	1
3	16361	10800.093222346065	0
3	16385	10812.695296772465	1
3	16386	10812.86841923933	0
3	16460	10874.118838107708	1
3	16461	10874.257038629176	0
3	16710	11032.834604982743	1
3	16711	11033.389194049855	0
3	16715	11033.938676938262	1
3	16716	11034.133694782044	0
3	16855	11116.985637695585	1
3	16856	11117.697318999439	0
3	16870	11151.828318929218	1
3	16872	11152.310284771374	2
3	16873	11152.375281372847	1
3	16876	11152.897946238279	0
3	16920	11164.366444344236	1
3	16921	11164.577940124359	0
3	16945	11177.684120705001	1
3	16946	11178.242901202399	0
3	16955	11179.927646471598	1
3	16956	11180.446771737028	0
3	16990	11209.779732420517	1
3	16991	11210.430530309891	0
3	17055	11261.637132206441	1
3	17056	11262.358786353776	0
3	17140	11372.60143041055	1
3	17141	11372.803092187769	0
3	17300	11523.789264283884	1
3	17301	11524.17800668041	0
3	17350	11573.950548782491	1
3	17351	11574.9008683443	0
3	17355	11575.47924295694	1
3	17356	11575.482100500718	0
3	17370	11586.717766472817	1
3	17371	11586.812972529708	0
3	17385	11604.305195229144	1
3	17386	11604.844002273776	0
3	17450	11655.478042925106	1
3	17451	11655.889176872838	0
3	17455	11656.006993838615	1
3	17456	11656.577645699074	0
3	17500	11677.382624137288	1
3	17501	11678.056955396512	0
3	17580	11752.922058748679	1
3	17581	11753.859348658499	0
3	17665	11817.663512820857	1
3	17666	11818.61281538572	0
3	17825	11949.758758107	1
3	17827	11949.952794715163	2
3	17828	11950.240060550205	1
3	17832	11950.509829465912	2
3	17833	11950.970026855122	1
3	17836	11951.832895974952	0
3	17845	11952.822415932999	1
3	17846	11953.331897635323	0
3	17880	11971.47098163461	1
3	17881	11971.480211990846	0
3	17890	11973.147843669203	1
3	17891	11973.705792670705	0
3	17910	11989.916171040279	1
3	17911	11990.455717260072	0
3	17935	11996.771915564292	1
3	17936	11997.128080727883	0
3	17955	12001.103174560375	1
3	17956	12001.204526742082	0
3	18045	12077.814844808174	1
3	18046	12078.045901540007	0
3	18060	12086.895767336813	1
3	18061	12086.997860455908	0
3	18145	12125.926368877188	1
3	18146	12126.164061971019	0
3	18150	12126.572884308225	1
3	18151	12126.958190723798	0
3	18195	12161.419192933548	1
3	18196	12162.070432722631	0
3	18200	12162.273005212707	1
3	18201	12162.901242743681	0
3	18220	12169.913414276146	1
3	18221	12170.156853614164	0
3	18240	12181.723405630045	1
3	18241	12182.173773554526	0
3	18380	12274.451163141149	1
3	18381	12274.951193553784	0
3	18387	12275.595982954426	1
3	18392	12275.935890648583	2
3	18393	12276.49675820993	1
3	18396	12277.091868052787	0
3	18420	12296.434372337474	1
3	18422	12296.933242252136	2
3	18423	12297.144693361876	1
3	18426	12298.095622750839	0
3	18460	12312.668701195745	1
3	18461	12313.453011027988	0
3	18490	12329.306133558478	1
3	18496	12330.286953274013	0
3	18565	12385.183415770678	1
3	18566	12385.916402181785	0
3	18590	12408.218293244834	1
3	18591	12408.400508873708	0
3	18615	12414.120220656663	1
3	18616	12414.930341434083	0
3	18725	12516.156269866463	1
3	18726	12516.503572484929	0
3	18795	12585.005049009539	1
3	18796	12585.665755427207	0
3	18855	12614.588292833317	1
3	18856	12615.120526772725	0
3	18895	12627.678808690562	1
3	18896	12627.727118981448	0
3	18965	12664.626439283951	1
3	18966	12665.155357552059	0
3	19045	12732.106661415913	1
3	19046	12732.986823974749	0
3	19070	12744.230271475853	1
3	19071	12744.272726510965	0
3	19110	12772.448919624733	1
3	19111	12773.198270247797	0
3	19135	12782.104499470923	1
3	19136	12782.386243893412	0
3	19140	12782.651870289278	1
3	19141	12783.103978741841	0
3	19170	12814.042165906031	1
3	19171	12814.322079320603	0
3	19200	12837.101651239233	1
3	19201	12837.650130918829	0
3	19250	12869.725155372829	1
3	19251	12869.814113911164	0
3	19265	12892.011872149149	1
3	19266	12892.162616511079	0
3	19310	12919.584728418572	1
3	19311	12919.860876758215	0
3	19510	13096.354568009948	1
3	19511	13097.067022427522	0
3	19520	13098.146915370059	1
3	19521	13098.584466859676	0
3	19525	13098.63807605727	1
3	19526	13099.368644578034	0
3	19530	13099.64158161049	1
3	19531	13099.875506275311	0
3	19535	13100.546423879543	1
3	19536	13100.65656812524	0
3	19560	13119.648260209467	1
3	19561	13119.938280220723	0
3	19565	13120.112934760731	1
3	19566	13120.436536737832	0
3	19575	13126.486930636469	1
3	19576	13126.498615572592	0
3	19580	13127.16025902211	1
3	19581	13127.256976688318	0
3	19655	13188.512643614135	1
3	19656	13188.525780975499	0
3	19665	13209.969502987735	1
3	19666	13210.665228374772	0
3	19675	13218.039541643622	1
3	19676	13218.424533163699	0
3	19705	13247.567981495691	1
3	19706	13247.652203664868	0
3	19715	13249.278079057658	1
3	19716	13250.083028441891	0
3	19720	13250.485889095593	1
3	19721	13250.634332942348	0
3	19825	13308.636364061397	1
3	19826	13309.444394898497	0
3	19860	13339.452462656923	1
3	19861	13339.529804937595	0
3	19955	13426.54642021273	1
3	19956	13426.588633317314	0
3	20015	13478.315969850145	1
3	20016	13479.104611393051	0
3	20100	13541.483532627902	1
3	20101	13541.629311489426	0
3	20115	13545.670654461713	1
3	20116	13546.433328816328	0
3	20145	13567.419056755994	1
3	20146	13567.884251867711	0
3	20150	13567.913301220318	1
3	20151	13568.333656803669	0
3	20230	13626.411678940731	1
3	20231	13626.867445203882	0
3	20255	13641.529880799612	1
3	20256	13641.917518848617	0
3	20265	13642.889019964029	1
3	20266	13643.193506136985	0
3	20305	13675.678246963552	1
3	20306	13675.690268150095	0
3	20390	13737.476611986907	1
3	20391	13737.510276221571	0
3	20430	13755.68236876953	1
3	20432	13755.754082260179	2
3	20433	13755.97012560787	1
3	20436	13756.50905654156	0
3	20490	13790.725810587788	1
3	20511	13794.888926625339	0
3	20587	13861.686220865522	1
3	20596	13863.382228369201	0
3	20600	13864.12646861945	1
3	20601	13864.174004682461	0
3	20690	13931.82812474885	1
3	20691	13932.593674012061	0
3	20780	14001.958091721247	1
3	20781	14002.269351563241	0
3	20800	14006.334077752017	1
3	20801	14006.39759685538	0
3	20840	14019.983449142376	1
3	20841	14020.362074389471	0
3	20845	14020.794730026514	1
3	20846	14020.819202370638	0
3	20895	14044.235006451291	1
3	20896	14044.44802272196	0
3	20900	14044.728394257988	1
3	20901	14045.024793202636	0
3	20930	14064.705232544458	1
3	20931	14065.362996500523	0
3	20935	14065.554375773305	1
3	20937	14065.825869749649	2
3	20938	14066.262647848369	1
3	20947	14067.588364649043	2
3	20948	14067.722964791374	1
3	20952	14068.184971920215	2
3	20953	14068.58996663329	1
3	20957	14068.870688064962	2
3	20958	14069.416897282962	1
3	20961	14070.084799689593	0
3	21015	14136.885527583807	1
3	21016	14137.022963629425	0
3	21030	14141.39672330916	1
3	21031	14141.855532097972	0
3	21100	14190.468411054484	1
3	21101	14190.68269951707	0
3	21185	14259.255762254024	1
3	21186	14259.346855267065	0
3	21200	14263.010541488416	1
3	21201	14263.563797260815	0
3	21225	14269.676298962228	1
3	21227	14270.207576790571	2
3	21228	14270.514039040513	1
3	21231	14271.069584822951	0
3	21275	14294.130651349628	1
3	21276	14294.215681562082	0
3	21315	14323.348030508652	1
3	21317	14323.7055210533	2
3	21318	14324.303997889173	1
3	21326	14326.156379157829	0
3	21345	14331.221545100942	1
3	21346	14331.224911055269	0
3	21355	14332.733850778197	1
3	21356	14333.089468706517	0
3	21365	14335.065441174801	1
3	21366	14335.659252410353	0
3	21370	14336.156592976243	1
3	21371	14336.194145921961	0
3	21430	14380.133702863283	1
3	21431	14380.920487366322	0
3	21437	14381.421265733681	1
3	21441	14382.138962703695	0
3	21447	14382.538041691065	1
3	21451	14383.285459189521	0
3	21475	14431.647314896883	1
3	21476	14432.377915127757	0
3	21585	14493.715936815628	1
3	21591	14494.77108282991	0
3	21680	14557.617928946092	1
3	21681	14558.085377130881	0
3	21715	14574.532821141831	1
3	21716	14574.736969133615	0
3	21720	14574.922591017748	1
3	21721	14575.261031989436	0
3	21850	14664.542056135471	1
3	21851	14664.871459631686	0
3	21910	14722.011571737646	1
3	21911	14722.801272492654	0
3	22060	14813.377597038132	1
3	22061	14813.682282511954	0
3	22245	14941.672689801163	1
3	22246	14941.745179530502	0
3	22380	15061.035723776229	1
3	22386	15061.700225985013	0
3	22585	15269.518749374696	1
3	22586	15269.721410786798	0
3	22595	15270.198542515423	1
3	22596	15270.75339483872	0
3	22600	15271.010626054928	1
3	22601	15271.226438546525	0
3	22605	15271.506611815683	1
3	22606	15271.890919701261	0
3	22700	15337.235825472706	1
3	22701	15337.773331504414	0
3	22720	15341.464015422574	1
3	22721	15342.124392332717	0
3	22730	15349.686955818159	1
3	22731	15349.894831227565	0
3	22745	15352.625288775217	1
3	22746	15353.162582804938	0
3	22795	15397.958053293099	1
3	22796	15398.781000167268	0
3	22855	15447.847752766589	1
3	22856	15447.865006715268	0
3	22880	15477.935083611375	1
3	22881	15478.41192736473	0
3	22890	15485.444075095588	1
3	22891	15485.989612581389	0
3	22910	15499.183316494121	1
3	22911	15499.523217335422	0
3	22950	15523.15323941894	1
3	22951	15523.242209838641	0
3	23040	15595.000917382266	1
3	23041	15595.006359292419	0
3	23050	15596.755424501223	1
3	23051	15597.145845027408	0
3	23065	15608.692094920678	1
3	23066	15608.801887530727	0
3	23125	15678.709131394659	1
3	23126	15679.247260274693	0
3	23150	15688.800564932305	1
3	23151	15689.056625705871	0
3	23180	15711.721420406466	1
3	23181	15711.784807995945	0
3	23195	15718.035696004229	1
3	23196	15718.537735287516	0
3	23380	15867.509595628188	1
3	23381	15867.788837522763	0
3	23535	16010.296660266113	1
3	23537	16010.416662130917	2
[...]
6	37940	25392.124559082694	1.678820561523
6	37960	25405.458933663103	0.408282679459
6	38010	25417.586361284826	1.37441655704
6	38020	25431.827478172342	1.756078342468
6	38035	25436.975640909843	1.248813854081
6	38040	25438.79770844816	0.460290429369
6	38050	25445.221160188452	0.778369682375
6	38100	25456.530135336253	1.180950480566
6	38150	25483.543315909177	0.708408872364
6	38187	25512.12974636704	2.718473010134
6	38200	25520.630202402829	0.411393898865
6	38220	25543.221084124159	0.466643664986
6	38230	25546.384187344771	1.365059694504
6	38235	25548.234117357468	0.59627583893
6	38300	25580.999672829634	0.532235997776
6	38305	25582.287136521238	0.874159690225
6	38317	25590.031933209462	0.745965906326
6	38340	25602.138499749452	0.630671143159
6	38380	25612.370457522562	0.417563842656
6	38390	25614.170093741876	8.94495653593
6	38407	25616.603739952964	0.936157339147
6	38415	25618.891111206069	2.366901612268
6	38420	25622.123835403438	0.568222506437
6	38427	25623.241780028728	0.776696110656
6	38435	25631.732506183631	0.916484840214
6	38452	25640.07228452167	0.971442171512
6	38460	25641.661527715564	2.28965468386
6	38487	25655.110316767895	0.958422966721
6	38495	25656.96836707627	0.6848299128
6	38514	25661.240237758053	2.533329432166
6	38525	25663.389347113879	2.380969750988
6	38530	25664.316417863708	0.431399223953
6	38542	25667.825391921214	1.726718282677
6	38545	25668.545946931792	0.874414010744
6	38565	25687.405367218521	0.885596194584
6	38585	25705.176104045432	0.579830573685
6	38600	25711.148860691341	2.244544833167
6	38615	25713.751326676713	0.547908513155
6	38630	25721.934477170103	1.298446630556
6	38654	25730.271094718926	1.180015226841
6	38665	25732.133063223191	2.525075433426
6	38670	25735.902323812179	0.600371619035
6	38685	25745.574315546535	0.995959783617
6	38690	25750.073508257539	0.83706875965
6	38695	25755.208707374771	0.465172049496
6	38700	25763.084431833979	0.96975944927
6	38707	25764.726229459437	0.784706910793
6	38729	25767.358057652337	2.099948962303
6	38750	25777.96233642653	0.752089424571
6	38760	25781.609603407517	1.453713868305
6	38770	25803.543257527132	0.937032399001
6	38785	25813.586494150004	0.916012218921
6	38790	25832.286540853243	0.433236205485
6	38795	25837.8606655083	0.93546606577
6	38820	25854.754552411817	0.961918820348
6	38835	25865.146715383515	1.698093105195
6	38865	25887.30719727157	0.946024101833
6	38875	25892.21695682728	2.535636949265
6	38905	25939.985541467289	0.476900680084
6	38920	25956.180543955289	0.457539527724
6	38970	25986.513757166585	0.452505612606
6	38985	25992.144108525839	1.61481145131
6	38990	25995.641450895592	0.912483309302
6	39005	25999.244327191927	2.371369227447
6	39030	26012.145870592461	1.408474454903
6	39040	26018.131443823452	0.942081926361
6	39045	26029.610403583887	0.563456157874
6	39057	26033.81996136503	0.669483150728
6	39070	26036.776220077055	1.171256929015
6	39075	26039.017354075777	0.924836549535
6	39125	26060.605618719039	1.950233986776
6	39177	26105.935282131547	0.660982435393
6	39185	26108.341044791607	2.779460044932
6	39205	26135.095837446024	0.951549627585
6	39210	26144.124297674576	0.681423263019
6	39225	26153.873530768852	0.737136930181
6	39230	26160.650223826881	0.569832763635
6	39235	26171.720577012405	0.921830118587
6	39250	26191.589328277349	0.567157355696
6	39287	26209.842644913492	1.560272679292
6	39295	26211.9841047727	0.722561167832
6	39300	26214.72802612811	0.912250134954
6	39305	26219.883919217511	0.812080899673
6	39310	26222.036146809998	0.951231241971
6	39320	26224.654401006642	2.332647314087
6	39335	26234.442890675866	0.781598723959
6	39345	26238.801048997717	0.771155253286
6	39360	26247.289787127842	0.431026646122
6	39370	26251.422045393435	0.519386062585
6	39380	26280.805971174055	0.663633371331
6	39385	26283.848550367803	0.924135795608
6	39412	26292.742641136393	0.984474511444
6	39424	26293.942223876359	1.179196113032
6	39439	26296.283166757289	2.84259385975
6	39450	26298.242692302707	0.57626006538
6	39455	26301.073906704484	0.485320910346
6	39480	26308.212901409668	1.442401944711
6	39500	26311.857161211915	2.859894697561
6	39505	26313.133224751287	0.803172624717
6	39525	26326.264340289481	1.202777812866
6	39535	26333.426563575244	0.894020215282
6	39560	26350.142483174813	0.945267898962
6	39565	26353.229876110377	0.684881196637
6	39570	26354.666191087171	0.911571062775
6	39590	26359.22533471398	2.042960931174
6	39597	26359.797339832361	0.53606198146
6	39600	26360.388630597384	0.939424094653
6	39610	26373.304421475806	0.520334950462
6	39630	26384.465170959564	0.451464491664
6	39637	26385.426327597814	0.675877512712
6	39642	26386.260388133766	1.329427989504
6	39655	26389.533666223584	0.972989029553
6	39675	26393.850332766903	1.814210988777
6	39685	26397.948011790686	1.689510109508
6	39690	26398.960971629389	0.818341540685
6	39710	26413.415713164245	0.961955058947
6	39715	26421.622256900537	0.516761959298
6	39720	26425.394359896069	0.7066321461
6	39725	26426.668336999267	0.401990922308
6	39730	26428.423950121151	0.796414677287
6	39742	26443.443156592716	1.148944278779
6	39755	26449.06814374752	0.948510917509
6	39770	26453.002502041687	2.462275224837
6	39775	26454.668205069729	0.502582877642
6	39804	26463.176227289474	1.174642188257
6	39820	26465.324261619373	3.787175191656
6	39825	26466.667557127665	0.501914764522
6	39842	26494.940998614352	0.559850456612
6	39847	26495.373714119527	0.982951602569
6	39850	26495.840108109829	0.840964761146
6	39870	26518.91066943321	0.477279923484
6	39885	26526.746410214588	0.493713582028
6	39905	26532.434692591121	0.603140966455
6	39915	26536.566958785123	0.437889635982
6	39942	26548.115446759463	0.842058470958
6	39952	26549.538062605663	1.002923292679
6	39967	26555.664326595147	0.82355006272
6	39972	26556.57899944182	1.274822717731
6	39987	26558.667346097396	2.838357370218
6	40002	26565.372631832597	0.640521655791
6	40007	26565.823990766064	0.692648266392
6	40020	26572.849641257626	0.417331772763
6	40030	26579.364490442479	0.958265333157
6	40040	26593.688986200952	0.536723110639
6	40047	26595.263636798949	0.84832704938
6	40055	26596.848140263675	2.175924086009
6	40085	26610.097952055247	1.876961480998
6	40090	26613.260609105915	0.702654704778
6	40115	26619.755143885594	0.781569130916
6	40125	26625.13493494337	1.853025478519
6	40157	26633.802088180042	3.910239031492
6	40175	26642.807678181629	0.80892822044
6	40190	26663.995974511387	1.154024930631
6	40212	26667.505469268562	0.403140521422
6	40215	26668.087880522247	2.845199513944
6	40265	26710.077186471512	3.243803031379
6	40285	26730.067164799957	0.659658238664
6	40329	26766.89111709965	3.986353697388
6	40337	26768.149388057995	0.914412692001
6	40355	26776.979378870699	1.050817284279
6	40365	26781.439423111783	1.114734795237
6	40375	26782.61788254321	2.545439673085
6	40410	26803.511273489792	0.743889043527
6	40440	26822.377604940707	1.577024822211
6	40460	26828.621301121636	2.185138745746
6	40465	26830.05341764863	0.907398742763
6	40475	26834.819428770381	0.561725792754
6	40485	26841.186141552327	0.419105707714
6	40490	26844.048900745901	0.542956216261
6	40505	26862.628491265322	0.450873165159
6	40530	26878.718503305024	0.525570171373
6	40600	26910.169209584492	0.532042770542
6	40620	26924.703270872005	4.292069826898
6	40640	26954.069377075119	0.41202851315
6	40650	26957.689055440748	2.45284632917
6	40660	26965.217286526098	1.847161909967
6	40695	26978.656701958404	0.401608175132
6	40720	27012.484099454862	0.774497497501
6	40725	27013.122873126096	0.526639117021
6	40730	27014.356503018718	0.971124556055
6	40750	27027.949226236961	0.863729426777
6	40760	27031.349620161833	0.511805827962
6	40765	27032.340733571994	0.739335912699
6	40770	27033.823720859261	0.938594299462
6	40775	27035.975163647366	0.844488097494
6	40787	27045.807079655707	0.709185833717
6	40812	27054.511871656666	1.065462963673
6	40819	27055.484194796656	2.516956924042
6	40822	27056.227854578786	0.831564298181
6	40837	27072.128081352756	0.465629532654
6	40865	27093.827143163869	0.446971196169
6	40890	27108.649033503191	0.54486337835
6	40942	27141.238372260074	0.878224488162
6	40955	27145.97677375204	1.386798051085
6	40960	27152.169683618631	0.880310559599
6	40970	27166.697648440926	3.14552924955
6	40979	27170.099747223803	0.875273281103
6	40992	27183.020142153467	0.509282320645
6	41000	27190.375133936589	0.735019803233
6	41020	27205.397061995462	0.892165207211
6	41030	27208.464905367017	1.312712656155
6	41035	27211.58064853281	0.555034735985
6	41045	27215.058353040681	2.637013469861
6	41055	27224.356412538803	1.498642318657
6	41060	27232.011866792777	0.481262954418
6	41070	27233.962405505418	0.737640389893
6	41120	27264.388324509851	3.079702132481
6	41125	27267.995154272099	0.89765828494
6	41137	27273.763079511471	0.853760238551
6	41165	27288.126667408852	0.520749601256
6	41175	27297.914409448086	1.88271039867
6	41180	27299.552301328576	0.433027339214
6	41187	27301.266375450399	0.563667599903
6	41190	27301.670021569757	0.884224843097
6	41207	27311.588399010886	0.803652538657
6	41219	27313.38785393563	1.715723328663
6	41222	27314.30857944385	4.806502847126
6	41240	27324.447945390486	0.840129581047
6	41250	27331.084456694723	1.893546061286
6	41260	27334.317360378686	1.661654450602
6	41275	27347.145140894748	3.184552107125
6	41305	27368.057387672396	0.835439254809
6	41310	27371.326984018891	0.81997009418
6	41320	27373.194553309102	0.507775646029
6	41325	27377.166186661633	0.634881297266
6	41330	27379.731601888549	0.85541460258
6	41350	27388.752115628268	0.581984122097
6	41360	27400.573695753047	0.694800853683
6	41417	27454.431280376921	0.932701848913
6	41420	27454.888165978594	1.282522426268
6	41425	27456.316224531067	0.891850412264
6	41430	27457.821402879567	0.849523843778
6	41455	27469.753462223434	0.569864606566
6	41480	27491.771228289153	0.759713066136
6	41497	27510.011059256767	0.813801751332
6	41525	27537.346826070875	0.885349086998
6	41530	27540.186841630516	0.675057936227
6	41535	27542.903874186307	0.691691662837
6	41547	27545.066046916749	1.146916992725
6	41557	27546.505567825595	1.042203307707
6	41560	27547.441552946167	4.294022756815
6	41580	27554.692998247994	0.837740597129
6	41680	27600.094974095803	0.56030033417
6	41710	27624.153736825551	0.888652478158
6	41715	27636.214710642807	0.834887716919
6	41735	27642.489390285414	0.606094061399
6	41770	27660.938843246515	1.786445186068
6	41815	27687.472135824549	0.497937308531
6	41820	27699.462463629943	0.531727257464
6	41829	27704.856697966547	0.694998194557
6	41837	27706.423423822986	1.165444575434
6	41850	27713.053484521473	1.70390273832
6	41870	27726.485155985323	1.797280881594
6	41875	27727.289727868093	0.726025858801
6	41890	27745.044586417812	0.509939156612
6	41912	27748.744585317444	1.152671974746
6	41915	27749.292665278237	1.787209410639
6	41920	27759.460450269548	0.534097976377
6	41947	27771.070932714718	0.992465865985
6	41992	27816.207444513146	0.835236499645
6	42035	27831.437578623955	0.594169235462
6	42040	27840.33178684407	0.447821559245
6	42045	27845.595284598196	0.606183045357
6	42087	27856.755713007493	4.524455921306
6	42105	27860.240445922739	7.010438442704
6	42115	27862.482023149595	0.950782110263
6	42120	27865.309962603213	0.472620828357
6	42135	27894.287543791158	0.692359942617
6	42155	27898.960637144609	0.432727746526
6	42182	27905.856838067568	1.089853195665
6	42185	27906.689554024714	1.041093136489
6	42212	27913.704442582908	1.424651619327
6	42249	27934.205327036709	1.230985861711
6	42252	27934.609163992724	0.610627241688
6	42262	27936.027846150438	0.730918936351
6	42365	27994.35795342179	1.312243129906
6	42380	28004.887336910249	0.800505338719
6	42392	28016.161718810457	1.853580986055
6	42400	28017.353754806253	0.704883476486
6	42427	28036.252979695299	0.800215601176
6	42440	28041.361983211605	1.091724436199
6	42445	28042.536289779408	2.639683162699
6	42455	28055.5648265646	0.927487147841
6	42470	28058.061528802802	2.207623339165
6	42475	28062.723354332122	0.601675606379
6	42480	28063.799421315044	0.842167740548
6	42547	28085.571493323689	0.817144073499
6	42565	28089.835751146294	2.009337955146
6	42590	28109.172708479855	2.7309976855
6	42600	28115.862992887148	0.754781536805
6	42657	28136.444321594939	0.740529559692
6	42660	28137.187115932715	2.640152571482
6	42670	28141.325944551733	2.043112987924
6	42687	28147.182320211184	2.10795290025
6	42692	28148.140735788698	1.570042033443
6	42700	28152.02681952608	0.635240749037
6	42715	28177.547102009791	0.787544416357
6	42727	28182.650623320794	1.930744267954
6	42740	28187.309664088146	1.226918069818
6	42755	28194.240779761134	0.780760551384
6	42772	28205.802513256499	1.247101578491
6	42775	28206.574866759281	0.93103051726
6	42785	28215.263529779134	0.50011817622
6	42810	28226.230310222416	2.455259599108
6	42842	28240.450120606319	0.784082631534
6	42845	28241.276432928302	1.477524825486
6	42852	28245.794238731492	0.852685227338
6	42892	28274.296406697914	0.494745531962
6	42905	28280.210149858207	0.722567491978
6	42922	28296.987604480056	0.672731135832
6	42930	28298.795447150812	0.676267139474
6	42942	28301.065311629084	1.508761974872
6	42955	28305.939583880551	0.771593373125
6	42975	28338.758294557277	2.597709145446
6	42980	28362.076986508313	0.525250103651
6	43002	28366.624522513599	2.731534925801
6	43035	28406.666192701734	0.626541307941
6	43045	28411.510734411767	0.728946705768
6	43055	28422.281602314465	0.549585876148
6	43070	28424.709566230899	0.437227561884
6	43080	28430.725503086415	0.561525513045
6	43115	28445.810727610814	1.389747668001
6	43137	28450.667527117101	0.904808216574
6	43145	28451.918906746512	2.917428263603
6	43170	28460.802984788567	0.596049548652
6	43180	28481.191511053276	0.965398258157
6	43190	28488.913603328809	0.813360920642
6	43195	28508.762892644107	0.62928574658
6	43215	28524.331089855784	0.695004656445
6	43220	28533.899838957465	0.868891830603
6	43230	28542.74688818452	0.629239062732
6	43247	28548.070560889496	0.975433622627
6	43250	28548.574298754838	0.796930238799
6	43255	28549.287085222657	0.534336885205
6	43292	28574.244712030041	0.739013704518
6	43295	28574.862264723322	0.673181319944
6	43300	28580.233584262449	0.516544387583
6	43315	28595.724011714231	0.746456790948
6	43325	28608.057172363245	0.619354096669
6	43332	28608.873719033615	1.748761789244
6	43365	28618.46170529608	1.226066350792
6	43379	28621.566265351719	0.757818364166
6	43390	28623.540699433742	3.28347607429
6	43410	28640.902163175558	0.984372260765
6	43440	28662.827773554446	1.324036956185
6	43457	28667.714878874159	0.8747835177
6	43460	28668.406548948985	1.4145194816
6	43499	28679.629098507263	1.352177516545
6	43502	28680.445999447735	1.613383839879
6	43535	28692.636710471302	0.479222045094
6	43545	28699.809132528343	0.687412534887
6	43550	28707.579508326043	0.700001150835
6	43570	28724.714397279775	2.028870660639
6	43595	28740.231939336183	0.839208208863
6	43602	28746.742947050059	0.95434885677
6	43605	28747.638543857602	1.844853804921
6	43625	28760.462463413031	0.632214872912
6	43635	28771.906726666708	0.680035256874
6	43645	28782.282201123359	0.786813880829
6	43665	28801.260224591118	0.500135671068
6	43685	28824.490809416262	0.532485849736
6	43690	28829.555369032674	0.492590157501
6	43715	28846.366669721385	0.969707459258
6	43752	28860.055591215348	2.27320581833
6	43765	28862.768545904226	4.051498593402
6	43780	28873.431264525569	1.065086192519
6	43795	28895.580550322012	0.839946236974
6	43800	28897.11719911346	0.957023288775
6	43805	28897.821220232528	0.610137384059
6	43810	28900.085132706704	0.7021508859
6	43825	28911.376848266275	0.850986623205
6	43832	28912.480219736293	0.437470290484
6	43847	28916.104205235005	3.693195562434
6	43870	28931.410953312263	0.89658197579
6	43897	28942.985045530669	2.72224742197
6	43900	28943.637569475708	1.052297740742
6	43915	28956.801384200114	0.853917860659
6	43962	28991.018453760204	0.490866878582
6	44005	29014.01667120503	0.456234880444
6	44025	29030.84124835001	0.534021137655
6	44030	29031.942664434955	0.773355963593
6	44040	29035.518494599753	1.792326050601
6	44045	29044.262139313363	0.624153006589
6	44050	29047.637641195275	0.730247907946
6	44055	29053.914852693192	0.891588724917
6	44060	29056.769426624106	0.472987382812
6	44075	29068.444046942471	0.726024132269
6	44080	29071.858497286194	0.512210577494
6	44095	29075.188954854194	1.080423935396
6	44105	29076.71981268613	1.350915822568
6	44110	29077.892594910194	0.962606203463
6	44120	29093.517070661306	0.545393393748
6	44127	29096.465729603074	0.828904222976
6	44147	29100.075735426252	3.692492551407
6	44150	29100.648511295975	0.835696206034
6	44200	29136.983876690432	3.132468229634
6	44207	29141.672979486789	0.773767165514
6	44260	29174.067890652025	1.050926587721
6	44282	29189.011171859611	1.51002161611
6	44285	29189.793044001671	3.717195727561
6	44290	29191.124405456106	0.52487595533
6	44310	29201.855448804162	0.841771066282
6	44320	29206.275995532493	0.947644949425
6	44325	29212.338501562677	0.654892739467
6	44355	29219.826620527762	4.155064392576
6	44395	29240.878793617548	1.642125348257
6	44400	29242.121998265344	0.846520110127
6	44420	29272.508424618713	0.401788953366
6	44462	29331.427439096284	1.509147928825
6	44470	29334.18249856366	0.574975379324
6	44480	29340.502143444652	0.532930988166
6	44535	29379.40974448137	0.764584759576
6	44550	29384.509130191975	2.11427810879
6	44560	29403.299295913606	0.478520127758
6	44565	29406.198123320633	0.760546992999
6	44570	29408.237526443161	0.458523694053
6	44575	29411.657323824099	0.653276187461
6	44580	29413.783161178391	0.92833282128
6	44595	29422.809496695188	0.970107505145
6	44605	29427.134460655913	0.918837890215
6	44610	29436.67160785328	0.799243590282
6	44620	29443.782780066999	0.668443209818
6	44651	29461.36189303613	1.103805450112
6	44658	29462.072019119893	1.329647210509
6	44661	29462.76774001206	0.934096901191
6	44680	29472.085485553302	0.538103556307
6	44685	29477.838693976493	0.846501342207
6	44695	29484.769052635851	0.731621548906
6	44700	29486.024634843573	0.757621824602
6	44710	29505.050517730147	0.953515078826
6	44730	29513.250746857707	0.752660132293
6	44735	29519.695628215109	0.810642297147
6	44740	29521.553186413262	0.835453271586
6	44745	29528.76550551048	0.511500637699
6	44750	29530.037349773056	0.793524391577
6	44755	29535.464251650728	0.49776648758
6	44760	29542.651196773122	0.596612230269
6	44790	29571.491884906237	0.568843812216
6	44800	29581.42045879052	0.76645894614
6	44805	29584.823065448367	0.665345583064
6	44812	29596.470394564839	0.618647402106
6	44835	29608.082781388117	3.865754504269
6	44862	29626.626420420259	0.857052805461
6	44885	29632.484036494839	0.420998935308
6	44905	29637.233763908876	0.427675466379
6	44912	29638.959056292422	0.883984456165
6	44925	29641.035829215731	0.806172548062
6	44935	29659.306714813597	0.69793305886
6	44962	29682.951236371868	0.521038072417
6	44965	29683.768267920413	1.195182936121
6	44972	29685.967436779271	0.80320516061
6	44990	29694.311673834454	0.684082805272
6	44995	29699.658636212205	0.747201765981
6	45005	29704.181582424131	0.955543745123
6	45015	29714.394118190949	0.597189636948
6	45030	29721.575911226435	1.579602216864
6	45060	29730.418410048092	0.614000205789
6	45105	29760.184594331912	0.472242975654
6	45130	29775.005227624566	1.647543235966
6	45140	29776.521471738321	1.33555098212
6	45192	29801.160994882075	1.643636151843
6	45200	29803.714853441997	0.973747888627
6	45215	29806.119943310781	2.190759876648
6	45255	29850.254173083535	0.66181727848
6	45262	29850.999452856523	0.543197983038
6	45275	29860.32822441465	0.600726106903
6	45287	29863.914005583993	1.287181917438
6	45290	29864.789384231207	0.919542861828
6	45315	29900.322351128694	0.77681430974
6	45320	29908.647976586204	0.632946593082
6	45340	29949.141883805476	0.554265704053
6	45362	29955.385503906795	3.189998253151
6	45370	29957.031661382589	1.077957078772
6	45390	29961.56114150559	1.583406922555
6	45425	29976.629326068536	0.896727782081
6	45430	29977.383563558454	0.53266700278
6	45457	29996.931291382049	1.434759120852
6	45462	29997.599775061372	1.261004023921

