version 2
run First_exit_9-3-20191114-11:42:27-8858
attr configname First_exit_9
attr datetime 20191114-11:42:27
attr experiment First_exit_9
attr inifile omnetpp.ini
attr iterationvars ""
attr iterationvarsf ""
attr measurement ""
attr network ResponseTimeNetwork
attr processid 8858
attr repetition 3
attr replication #3
attr resultdir results
attr runnumber 3
attr seedset 3
param **.Source.interArrivalTime exponential(4s)
param **.jobPriority bernoulli(0.4)
param **.PS.serviceTimeU1 "uniform(0.4s, 1.0s)"
param **.PS.serviceTimeU2 "uniform(1s, 1.2s)"
param **.SS1.serviceTime exponential(0.4s)
param **.SS2.serviceTime exponential(0.8s)
param **.PS.exitProbability bernoulli(0.9)

vector 0 ResponseTimeNetwork.SS2 queueLength:vector ETV
attr interpolationmode sample-hold
attr title "queue length, vector"
vector 1 ResponseTimeNetwork.QueueU2 queueLength:vector ETV
attr interpolationmode sample-hold
attr title "queue length, vector"
vector 2 ResponseTimeNetwork.QueueU1 queueLength:vector ETV
attr interpolationmode sample-hold
attr title "queue length, vector"
vector 3 ResponseTimeNetwork.sink lifeTimeU1:vector ETV
attr interpolationmode none
attr title "lifetime of arrived jobs U1, vector"
attr unit s
vector 4 ResponseTimeNetwork.sink totalServiceTimeU1:vector ETV
attr interpolationmode none
attr title "the total time spent  by arrived jobs U1, vector"
attr unit s
vector 5 ResponseTimeNetwork.sink lifeTime:vector ETV
attr interpolationmode none
attr title "lifetime of arrived jobs, vector"
attr unit s
vector 6 ResponseTimeNetwork.sink totalServiceTime:vector ETV
attr interpolationmode none
attr title "the total time spent  by arrived jobs, vector"
attr unit s
vector 7 ResponseTimeNetwork.sink lifeTimeU2:vector ETV
attr interpolationmode none
attr title "lifetime of arrived jobs U2, vector"
attr unit s
vector 8 ResponseTimeNetwork.sink totalServiceTimeU2:vector ETV
attr interpolationmode none
attr title "the total time spent  by arrived jobs U2, vector"
attr unit s
vector 9 ResponseTimeNetwork.SS1 queueLength:vector ETV
attr interpolationmode sample-hold
attr title "queue length, vector"
2	73049	10000.272312692022	1
2	73050	10000.460301069976	0
2	73059	10001.518472664458	1
2	73060	10002.073791811536	0
2	73069	10003.366614805074	1
2	73070	10003.586142507349	0
2	73084	10005.189336815161	1
2	73087	10005.603859710986	0
2	73171	10017.718194726396	1
2	73174	10018.177289788903	0
2	73181	10019.194584378943	1
2	73182	10019.601285309916	0
2	73189	10020.383884570674	1
2	73191	10020.671108215071	2
2	73194	10021.002446835781	1
2	73199	10021.984852275406	0
2	73203	10022.455074015572	1
2	73208	10022.549598421589	0
2	73217	10023.584593089366	1
2	73221	10023.895573083385	2
2	73222	10023.949896291517	1
2	73225	10024.538823420894	0
2	73229	10024.901496024559	1
2	73230	10025.151229536081	0
2	73239	10026.368965469926	1
2	73241	10026.475068428172	2
2	73242	10026.507521955589	1
2	73247	10027.178713755882	0
2	73251	10027.632345020722	1
2	73252	10027.889869032162	0
2	73256	10028.098385097613	1
2	73257	10028.650861163591	0
2	73261	10028.976344997188	1
2	73262	10029.33836811461	0
2	73266	10029.461149069229	1
2	73267	10030.335257355929	0
2	73274	10031.510538453624	1
2	73275	10032.267732842746	0
2	73284	10033.478443598411	1
2	73285	10033.942761070435	0
2	73294	10034.717162334603	1
2	73296	10034.88576820764	2
2	73297	10035.241012535398	1
2	73303	10035.736111427366	2
2	73305	10036.036146283327	3
2	73306	10036.127800647649	2
2	73310	10036.420424265228	3
2	73311	10036.560862779445	2
2	73315	10037.074850425244	3
2	73316	10037.150854248754	2
2	73320	10037.421360286875	3
2	73321	10037.731517507243	2
2	73324	10038.168212999185	1
2	73328	10038.858751623334	2
2	73329	10039.10987564825	1
2	73332	10039.517157863747	0
2	73336	10039.532905805033	1
2	73337	10039.948985310752	0
2	73341	10040.027478353405	1
2	73342	10040.842356263535	0
2	73349	10041.957661041982	1
2	73351	10042.269488350215	2
2	73352	10042.652115830747	1
2	73357	10043.07617178137	0
2	73361	10043.168526769967	1
2	73362	10043.725054879967	0
2	73366	10043.757296462248	1
2	73367	10044.222392267329	0
2	73371	10044.815529114483	1
2	73372	10045.097463328732	0
2	73376	10045.460386983072	1
2	73377	10045.818602774773	0
2	73383	10046.111522837292	1
2	73384	10046.227550507119	0
2	73388	10046.560498482383	1
2	73389	10047.149709895641	0
2	73393	10047.230468462764	1
2	73396	10047.57050371572	0
2	73403	10048.569544974623	1
2	73404	10048.857074315069	0
2	73413	10049.982395490085	1
2	73414	10050.181968109371	0
2	73423	10050.961061643322	1
2	73424	10051.810086063916	0
2	73441	10053.907773483712	1
2	73442	10054.201151433136	0
2	73451	10055.059942446499	1
2	73452	10055.673501736825	0
2	73579	10073.385187557759	1
2	73580	10073.694985704697	0
2	73591	10075.031184540402	1
2	73592	10075.413977670404	0
2	73601	10076.496675611607	1
2	73602	10076.852922380404	0
2	73611	10077.821667759122	1
2	73612	10078.182780238815	0
2	73619	10078.792919550336	1
2	73620	10079.242297718782	0
2	73629	10080.155573618138	1
2	73630	10080.528952489901	0
2	73639	10081.864972120849	1
2	73642	10082.206821207111	0
2	73651	10083.347912584437	1
2	73653	10083.364773317843	2
2	73654	10083.522070251792	1
2	73661	10084.304624980004	0
2	73668	10085.241657726007	1
2	73670	10085.692777673658	2
2	73671	10085.919746980318	1
2	73676	10086.661954138116	0
2	73680	10086.863147422995	1
2	73682	10087.255995346788	2
2	73683	10087.477398397834	1
2	73687	10087.957152418372	2
2	73688	10088.36440013546	1
2	73691	10088.92622543775	0
2	73695	10088.999668374878	1
2	73696	10089.455702989329	0
2	73703	10090.230160601585	1
2	73705	10090.505772436513	2
2	73706	10090.97227458918	1
2	73710	10091.162075929337	2
2	73711	10091.632921264614	1
2	73717	10092.311135128794	2
2	73718	10092.326430249927	1
2	73722	10092.839599441445	2
2	73723	10092.872942213402	1
2	73727	10092.904834248869	2
2	73728	10093.712079349733	1
2	73732	10093.84478194119	2
2	73733	10094.170532666394	1
2	73736	10095.106373406728	0
2	73740	10095.238284418299	1
2	73742	10095.765336346978	2
2	73743	10096.072926056772	1
2	73747	10096.379317009718	2
2	73748	10096.845770627601	1
2	73752	10096.967095996882	2
2	73753	10097.757997890437	1
2	73756	10098.547140174281	0
2	73760	10098.735488447635	1
2	73761	10099.162011027631	0
2	73765	10099.340168757333	1
2	73767	10099.422251178087	2
2	73768	10099.723626319521	1
2	73774	10100.157541137798	2
2	73775	10100.166336100518	1
2	73779	10100.192691561891	2
2	73781	10100.417920834982	3
2	73782	10100.909003676118	2
2	73786	10100.953734255184	3
2	73787	10101.907044599734	2
2	73791	10102.393606579139	3
2	73792	10102.525192933546	2
2	73796	10102.653342257085	3
2	73797	10103.447415560593	2
2	73801	10103.726324526193	3
2	73802	10103.907155718996	2
2	73805	10104.371932089996	1
2	73809	10104.485086425244	2
2	73811	10104.96729221464	3
2	73812	10105.334915073697	2
2	73816	10105.457879275184	3
2	73818	10105.477833238032	4
2	73819	10105.8532110857	3
2	73823	10105.90322548351	4
2	73824	10106.295458885111	3
2	73828	10106.790858557534	4
2	73831	10107.026273288034	3
2	73834	10107.486204510523	2
2	73838	10107.713409197902	3
2	73839	10107.985650210563	2
2	73843	10108.556494084604	3
2	73844	10108.900192506719	2
2	73848	10109.638293918552	3
2	73849	10109.670251745699	2
2	73853	10109.978106371428	3
2	73854	10110.129490119234	2
2	73857	10110.916968922332	1
2	73861	10111.100403700098	2
2	73863	10111.39829399211	3
2	73864	10111.760927105431	2
2	73868	10111.795024323762	3
2	73869	10112.413538993678	2
2	73873	10112.570573103371	3
2	73876	10113.410346649184	2
2	73880	10113.422924655962	3
2	73882	10113.763190896306	4
2	73883	10114.052354135753	3
2	73887	10114.304803799636	4
2	73888	10114.711186798306	3
2	73892	10114.941695759191	4
2	73893	10115.438474199472	3
2	73897	10115.444675844392	4
2	73898	10116.108604280854	3
2	73901	10116.923497122962	2
2	73904	10117.410339009406	1
2	73907	10117.944695176201	0
2	73911	10118.014228408032	1
2	73913	10118.177891881431	2
2	73919	10118.668420879929	3
2	73920	10118.831051631475	2
2	73924	10119.252778554261	3
2	73925	10119.608961269463	2
2	73929	10119.622167176124	3
2	73930	10120.52550047526	2
2	73933	10121.132642907387	1
2	73937	10121.626628835044	2
2	73938	10121.895991366001	1
2	73942	10122.171730950834	2
2	73943	10122.827987020293	1
2	73947	10122.938844691248	2
2	73948	10123.237886572087	1
2	73952	10123.32794508905	2
2	73953	10123.87097834057	1
2	73957	10124.191742473541	2
2	73958	10124.850650120963	1
2	73962	10124.88625645196	2
2	73964	10125.379414355469	3
2	73965	10125.717142263258	2
2	73969	10125.816709089095	3
2	73970	10126.166157036431	2
2	73973	10126.926520545238	1
2	73977	10127.010696121424	2
2	73979	10127.074639870758	3
2	73980	10127.367359405539	2
2	73983	10128.099158468486	1
2	73987	10128.110133495718	2
2	73989	10128.710465278538	3
2	73990	10128.773518526198	2
2	73994	10128.901568817415	3
2	73995	10129.464940198853	2
2	73998	10130.202904154097	1
2	74001	10130.772201891073	0
2	74005	10131.08899343382	1
2	74007	10131.146050138411	2
2	74009	10131.20793709771	3
2	74010	10131.230685785056	2
2	74014	10131.523489592923	3
2	74015	10131.983889969501	2
2	74019	10132.140926172545	3
2	74020	10132.958767303235	2
2	74024	10133.127275648356	3
2	74026	10133.44790293689	4
2	74027	10133.7384473622	3
2	74031	10134.121864689981	4
2	74032	10134.257514219141	3
2	74036	10134.710420337016	4
2	74038	10134.738809417768	5
2	74039	10134.74697305841	4
2	74043	10134.943949566291	5
2	74046	10135.517514481736	4
2	74050	10136.380191635126	5
2	74051	10136.482737152572	4
2	74057	10136.638038412823	5
2	74058	10137.154745736919	4
2	74062	10137.239351192604	5
2	74065	10138.004004692441	4
2	74069	10138.045935123751	5
2	74071	10138.387531765639	6
2	74072	10138.488771527834	5
2	74075	10138.940298623373	4
2	74078	10139.40429254008	3
2	74082	10139.511711779439	4
2	74084	10139.932008179528	5
2	74086	10139.938544494833	6
2	74087	10140.052711566365	5
2	74091	10140.409694730788	6
2	74092	10140.487003640192	5
2	74095	10140.915742420139	4
2	74099	10141.100570160461	5
2	74101	10141.21790350347	6
2	74103	10141.510462749842	7
2	74105	10141.579433687581	8
2	74106	10141.581230963826	7
2	74110	10142.033264070119	8
2	74111	10142.102130112624	7
2	74115	10142.654923164023	8
2	74116	10142.72025863483	7
2	74120	10142.86365418432	8
2	74121	10143.343344304957	7
2	74125	10143.711052169425	8
2	74126	10144.004671744736	7
2	74130	10144.015117924657	8
2	74131	10144.956967519144	7
2	74135	10145.143738718511	8
2	74136	10145.716027926853	7
2	74140	10146.021462125021	8
2	74141	10146.583557958448	7
2	74144	10147.521278106853	6
2	74148	10147.752163863373	7
2	74150	10147.770251391347	8
2	74151	10148.385132903432	7
2	74155	10148.452657081163	8
2	74156	10148.921324206203	7
2	74160	10149.156360939493	8
2	74161	10149.808209666716	7
2	74167	10150.238888151754	8
2	74168	10150.644314314857	7
2	74171	10151.484836022708	6
2	74175	10151.494311476952	7
2	74176	10152.020902330906	6
2	74180	10152.044492734254	7
2	74181	10152.873227210727	6
2	74184	10153.431412120594	5
2	74187	10153.831449194031	4
2	74191	10153.904794895023	5
2	74193	10154.483784473801	6
2	74194	10154.536511646316	5
2	74198	10154.574081183345	6
2	74199	10155.199945561041	5
2	74202	10156.173461936752	4
2	74206	10156.7982639059	5
2	74207	10156.986831990595	4
2	74210	10157.397926076467	3
2	74214	10157.410296171477	4
2	74215	10157.813539481408	3
2	74219	10158.13973680793	4
2	74220	10158.266511733144	3
2	74224	10158.353597102041	4
2	74226	10158.514095366849	5
2	74227	10158.814725271299	4
2	74231	10159.009940851368	5
2	74232	10159.78565878129	4
2	74236	10159.858950748278	5
2	74239	10160.673962243287	4
2	74243	10160.773962381334	5
2	74244	10161.122365594203	4
2	74247	10161.748529268908	3
2	74251	10161.979548389109	4
2	74253	10162.176083937139	5
2	74255	10162.494169758104	6
2	74256	10162.674263985189	5
2	74259	10163.116723768799	4
2	74263	10163.124882803133	5
2	74265	10163.351841394912	6
2	74266	10163.954282777863	5
2	74270	10164.116671117331	6
2	74271	10164.752783617391	5
2	74276	10165.596815952253	4
2	74280	10165.796214126018	5
2	74281	10166.37142248169	4
2	74285	10166.654401606426	5
2	74286	10167.27268488008	4
2	74289	10167.959553471221	3
2	74292	10168.421267103184	2
2	74296	10168.789528293198	3
2	74298	10168.813466882626	4
2	74299	10169.372784322979	3
2	74302	10170.149426192524	2
2	74306	10170.36045898942	3
2	74308	10170.576000431825	4
2	74309	10170.703491924763	3
2	74313	10170.856459040885	4
2	74315	10171.378840163182	5
2	74316	10171.648553834683	4
2	74320	10171.801924868941	5
2	74322	10171.955393683187	6
2	74324	10171.961014752182	7
2	74325	10172.125620680968	6
2	74328	10172.903592991424	5
2	74332	10173.060761401181	6
2	74334	10173.25920748502	7
2	74336	10173.469083506888	8
2	74337	10173.80086086324	7
2	74341	10173.897116580331	8
2	74342	10174.526003276292	7
2	74346	10174.755498939219	8
2	74348	10175.013775772482	9
2	74349	10175.46238527034	8
2	74352	10176.06105598874	7
2	74355	10176.526393482616	6
2	74358	10177.121369964085	5
2	74362	10177.400852916332	6
2	74364	10177.71010504319	7
2	74366	10177.845563905107	8
2	74367	10178.076048110766	7
2	74371	10178.479315337795	8
2	74372	10178.746505319947	7
2	74375	10179.51686549258	6
2	74379	10179.796318213266	7
2	74381	10179.826666407591	8
2	74382	10180.505912534488	7
2	74385	10181.356237302502	6
2	74389	10181.519108119909	7
2	74391	10181.814619743717	8
2	74392	10182.278471903238	7
2	74395	10182.738409390641	6
2	74398	10183.471958586728	5
2	74402	10183.775787677676	6
2	74405	10183.928595980551	5
2	74409	10184.007681487668	6
2	74411	10184.131857445203	7
2	74413	10184.243335315417	8
2	74414	10184.736031542454	7
2	74418	10184.736247393153	8
2	74419	10185.47799787155	7
2	74423	10185.765217256025	8
2	74424	10186.463428689834	7
2	74428	10186.61444964349	8
2	74429	10187.379127162664	7
2	74433	10187.484974966531	8
2	74434	10187.866443194371	7
2	74438	10187.985393963965	8
2	74439	10188.304198025601	7
2	74443	10188.820914328076	8
2	74444	10189.041004002901	7
2	74448	10189.447730258001	8
2	74449	10189.714589247402	7
2	74452	10190.354054096775	6
2	74456	10190.484615954034	7
2	74458	10190.695879026179	8
2	74459	10190.781214364167	7
2	74463	10190.847911293747	8
2	74464	10191.707691533925	7
2	74468	10192.021693505576	8
2	74469	10192.696937444588	7
2	74475	10192.917899031059	8
2	74476	10193.333725625804	7
2	74480	10193.642828428034	8
2	74481	10193.820662058998	7
2	74485	10194.043361444348	8
2	74486	10194.356567496263	7
2	74490	10194.423660432891	8
2	74491	10195.041069521165	7
2	74496	10195.750768267565	6
2	74500	10195.858371109607	7
2	74502	10195.874387514749	8
2	74503	10196.308827518175	7
2	74507	10196.546682731808	8
2	74508	10196.901254594761	7
2	74512	10197.109834334687	8
2	74513	10197.644345322779	7
2	74517	10197.688566760685	8
2	74518	10198.628437408355	7
2	74522	10198.848146652857	8
2	74523	10199.044257277173	7
2	74527	10199.439385575306	8
2	74528	10199.699695938236	7
2	74532	10200.06928593435	8
2	74533	10200.439257942296	7
2	74537	10200.910764103886	8
2	74538	10201.252731395995	7
2	74541	10201.848013242909	6
2	74544	10202.296588436949	5
2	74548	10202.569310543318	6
2	74550	10202.836702731708	7
2	74551	10203.155450192063	6
2	74555	10203.23062851866	7
2	74556	10203.753242209709	6
2	74560	10203.828850719009	7
2	74561	10204.709354453363	6
2	74564	10205.524155245271	5
2	74568	10205.679046439625	6
2	74569	10206.327084931421	5
2	74573	10206.768050824266	6
2	74574	10207.184432335074	5
2	74578	10207.806596188527	6
2	74580	10207.832031321546	7
2	74581	10208.116388786088	6
2	74585	10208.122424563664	7
2	74586	10208.626929011212	6
2	74590	10208.897076846704	7
2	74591	10209.258879151072	6
2	74595	10209.416875392171	7
2	74597	10209.530653964184	8
2	74598	10210.212099148629	7
2	74601	10210.87283264214	6
2	74605	10211.170063524891	7
2	74607	10211.392119774035	8
2	74608	10211.648001591412	7
2	74612	10211.939288230286	8
2	74613	10212.402539041329	7
2	74619	10212.839628021844	8
2	74620	10213.032568377413	7
2	74624	10213.147396392663	8
2	74625	10213.71904372067	7
2	74628	10214.385940370865	6
2	74634	10214.756258282411	7
2	74635	10215.231090048764	6
2	74639	10215.559616012141	7
2	74640	10216.15906523533	6
2	74643	10216.63515633365	5
2	74647	10216.801430714997	6
2	74648	10217.428069947398	5
2	74652	10217.890545849295	6
2	74653	10218.096754477097	5
2	74657	10218.505925439205	6
2	74658	10218.889141942159	5
2	74661	10219.336363768269	4
2	74665	10219.34539221458	5
2	74667	10219.363346929373	6
2	74668	10220.196268440568	5
2	74672	10220.21635197242	6
2	74673	10220.874751480174	5
2	74677	10221.118725034157	6
2	74678	10221.670987010904	5
2	74682	10221.893605563385	6
2	74683	10222.405370121001	5
2	74687	10222.70713951619	6
2	74688	10222.969401247957	5
2	74692	10223.045174961749	6
2	74696	10223.675546149473	7
2	74697	10223.764907480748	6
2	74701	10224.11250822844	7
2	74702	10224.260893439892	6
2	74706	10224.581107860191	7
2	74709	10225.260136998696	6
2	74712	10225.833554411465	5
2	74715	10226.568314028829	4
2	74719	10226.591331036016	5
2	74720	10227.045552883083	4
2	74724	10227.132804459434	5
2	74726	10227.530576429589	6
2	74728	10227.790699949258	7
2	74729	10227.960812127143	6
2	74735	10228.028775091325	7
2	74736	10228.793528807787	6
2	74740	10228.852661508677	7
2	74741	10229.43383948395	6
2	74745	10229.661844688517	7
2	74747	10229.817995505202	8
2	74748	10229.912465045294	7
2	74752	10229.930934515275	8
2	74753	10230.592793854857	7
2	74757	10230.773596265975	8
2	74759	10231.314864756904	9
2	74760	10231.336574281352	8
2	74764	10231.651766282912	9
2	74766	10232.050048567784	10
2	74767	10232.217879145192	9
2	74771	10232.279542166893	10
2	74772	10232.806306312205	9
2	74776	10233.135426776338	10
2	74777	10233.667052840227	9
2	74781	10234.04670210443	10
2	74782	10234.603724552802	9
2	74786	10234.656614874108	10
2	74787	10235.031894306437	9
2	74790	10235.864842164441	8
2	74796	10236.118527906803	9
2	74798	10236.154418270265	10
2	74800	10236.16696130396	11
2	74801	10236.750834896666	10
2	74804	10237.367689019087	9
2	74808	10237.92824087929	10
2	74810	10237.975078718222	11
2	74811	10238.275119487354	10
2	74814	10238.842013254687	9
2	74818	10238.966668844826	10
2	74820	10239.003270397147	11
2	74821	10239.716083344323	10
2	74825	10239.804864321075	11
2	74826	10240.39944412617	10
2	74830	10240.880996064029	11
2	74831	10241.386258280482	10
2	74835	10241.770599506323	11
2	74836	10242.007590869274	10
2	74840	10242.651012544581	11
2	74841	10242.920300690429	10
2	74845	10243.151808547365	11
2	74846	10243.638481076965	10
2	74849	10244.305625991169	9
2	74853	10244.677838009902	10
2	74855	10244.90935811221	11
2	74856	10245.044566342998	10
2	74860	10245.292776975182	11
2	74861	10245.642553506018	10
2	74865	10245.674204983209	11
2	74866	10246.118705008802	10
2	74871	10246.935065251001	9
2	74875	10246.952197698836	10
2	74877	10247.028204741983	11
2	74878	10247.683912236913	10
2	74882	10247.71273177394	11
2	74883	10248.638242980949	10
2	74887	10248.757034581153	11
2	74888	10249.119319468475	10
2	74892	10249.133261607882	11
2	74893	10249.630173546699	10
2	74896	10250.201259487978	9
2	74900	10250.49176226221	10
2	74901	10251.0053556428	9
2	74905	10251.137069782597	10
2	74906	10251.89088576354	9
2	74910	10252.622171616902	10
2	74911	10252.685050375777	9
2	74915	10252.945556732492	10
2	74916	10253.174172861566	9
2	74920	10253.252576749458	10
2	74922	10253.612934989109	11
2	74923	10253.927135859261	10
2	74926	10254.472333510843	9
2	74930	10254.569099180246	10
2	74932	10254.719626637358	11
2	74934	10254.880577259121	12
2	74937	10255.273120645638	11
2	74941	10255.303270310577	12
2	74942	10255.928818447627	11
2	74946	10256.298488345151	12
2	74947	10256.922134038964	11
2	74951	10257.056919235281	12
2	74952	10257.754672861071	11
2	74958	10258.05174172824	12
2	74959	10258.599369038893	11
2	74963	10258.830929448063	12
2	74964	10259.534421954369	11
2	74968	10259.943794837857	12
2	74969	10260.352305552708	11
2	74973	10260.714886927368	12
2	74974	10260.89283029425	11
2	74977	10261.815617658869	10
2	74981	10261.998493719074	11
2	74982	10262.689799911921	10
2	74986	10262.741945307573	11
2	74987	10263.264475967196	10
2	74991	10263.428131466349	11
2	74992	10263.79957856943	10
2	74995	10264.760951376679	9
2	74999	10264.972829053453	10
2	75000	10265.691587425089	9
2	75004	10265.764842773273	10
2	75007	10266.396177143762	9
2	75011	10266.402079695481	10
2	75012	10266.953030233756	9
2	75017	10267.770861186898	8
2	75021	10268.177096167029	9
2	75022	10268.406851795801	8
2	75026	10268.625463685901	9
2	75027	10269.075705065225	8
2	75031	10269.466550610831	9
2	75032	10269.60416949044	8
2	75036	10269.96577809997	9
2	75037	10270.097007932905	8
2	75041	10270.140796862455	9
2	75043	10270.323221912462	10
2	75046	10270.76455102439	9
2	75049	10271.532585182432	8
2	75052	10272.198681354867	7
2	75056	10272.375907194512	8
2	75058	10272.377226342836	9
2	75060	10272.480854376573	10
2	75061	10273.135702901119	9
2	75065	10273.216049340809	10
2	75066	10273.848101975694	9
2	75069	10274.752031276906	8
2	75073	10275.057776907679	9
2	75075	10275.173021754897	10
2	75076	10275.259771646997	9
2	75080	10275.330313865312	10
2	75081	10275.811485382002	9
2	75084	10276.798529772526	8
2	75088	10276.840512863295	9
2	75090	10276.902734250577	10
2	75092	10277.23870570317	11
2	75093	10277.38870458535	10
2	75096	10278.202970433161	9
2	75100	10278.475009247768	10
2	75102	10278.653180098885	11
2	75103	10278.851651883005	10
2	75107	10278.983468704966	11
2	75108	10279.45257664213	10
2	75112	10279.488951626113	11
2	75113	10280.031277739276	10
2	75117	10280.13102557189	11
2	75118	10280.739572274378	10
2	75121	10281.214537843196	9
2	75124	10281.790439259792	8
2	75128	10281.818683722814	9
2	75130	10281.923162017547	10
2	75131	10282.23461550965	9
2	75134	10282.735767487036	8
2	75138	10283.094777921012	9
2	75140	10283.124412930968	10
2	75142	10283.241967141542	11
2	75145	10283.457662055241	10
2	75149	10283.774550262016	11
2	75151	10284.261111076537	12
2	75152	10284.398250212912	11
2	75156	10284.800459553691	12
2	75157	10285.055870422274	11
2	75160	10285.510449879356	10
2	75164	10286.173413327341	11
2	75166	10286.18888042952	12
2	75168	10286.252683784018	13
2	75169	10286.461566165341	12
2	75173	10286.506014674421	13
2	75174	10286.948560584821	12
2	75178	10287.772879930015	13
2	75180	10287.789047085669	14
2	75181	10287.797723963037	13
2	75185	10288.051760821837	14
2	75186	10288.199997046329	13
2	75190	10288.290819440401	14
2	75192	10288.447345517713	15
2	75193	10288.71550448562	14
2	75196	10289.334479809431	13
2	75200	10289.410565618156	14
2	75201	10289.952462921403	13
2	75205	10290.345820941427	14
2	75207	10290.567367756624	15
2	75208	10290.778368620081	14
2	75212	10290.915346741096	15
2	75213	10291.564163243463	14
2	75217	10291.706576762643	15
2	75218	10292.21371502459	14
2	75222	10292.687561728784	15
2	75223	10293.081164364023	14
2	75227	10293.438711973108	15
2	75229	10293.505488663802	16
2	75230	10293.866431774078	15
2	75233	10294.397695643194	14
2	75236	10295.287376955403	13
2	75240	10295.377836314893	14
2	75242	10295.389498998235	15
2	75244	10295.596280772591	16
2	75246	10295.717430771951	17
2	75247	10296.167317124149	16
2	75250	10296.68108913132	15
2	75253	10297.15866354459	14
2	75256	10297.643716958929	13
2	75260	10297.865356477504	14
2	75262	10298.031061772974	15
2	75264	10298.06077252538	16
2	75265	10298.101248810366	15
2	75269	10298.213886184397	16
2	75270	10299.097846971099	15
2	75274	10299.480030963164	16
2	75275	10299.509907985358	15
2	75281	10299.80439159423	16
2	75282	10300.081592274243	15
2	75286	10300.089382541981	16
2	75287	10300.682035347745	15
2	75290	10301.302593150009	14
2	75294	10302.076981339557	15
2	75296	10302.118664625138	16
2	75297	10302.256482405374	15
2	75301	10302.488522613481	16
2	75302	10302.90340662987	15
2	75305	10303.474925327553	14
2	75309	10303.813607298239	15
2	75310	10303.945903752298	14
2	75314	10304.315107727064	15
2	75315	10304.580459529553	14
2	75318	10305.220409893124	13
2	75322	10305.298501216848	14
2	75325	10305.974182207017	13
2	75329	10306.170833929554	14
2	75331	10306.259541265723	15
2	75332	10306.589416991566	14
2	75336	10307.010936637053	15
2	75337	10307.318282952505	14
2	75340	10307.968278442389	13
2	75344	10308.467266107835	14
2	75346	10308.661764479009	15
2	75347	10308.857315907926	14
2	75350	10309.503688667594	13
2	75354	10309.918409091443	14
2	75356	10309.918805517706	15
2	75357	10310.39829611566	14
2	75361	10310.998393029494	15
2	75362	10311.005867279201	14
2	75367	10311.453653562647	13
2	75370	10311.944263836947	12
2	75373	10312.416651694775	11
2	75379	10312.49754878491	12
2	75381	10312.750698478538	13
2	75383	10312.895087977853	14
2	75384	10313.34532232645	13
2	75388	10313.976166496983	14
2	75389	10314.336908052927	13
2	75392	10315.096719835531	12
2	75396	10315.259461297422	13
2	75397	10315.929812803837	12
2	75401	10315.940751762574	13
2	75403	10315.995788509241	14
2	75404	10316.499319957775	13
2	75407	10316.921486462858	12
2	75411	10317.164984038613	13
2	75413	10317.260239770047	14
2	75414	10317.761729916251	13
2	75417	10318.498573889975	12
2	75421	10318.675224763738	13
2	75423	10318.776444124982	14
2	75424	10319.181846425608	13
2	75428	10319.640038879953	14
2	75429	10320.156337109972	13
2	75433	10320.223100015781	14
2	75434	10320.861173865544	13
2	75439	10321.841988695711	12
2	75442	10322.260716197565	11
2	75446	10322.489663730731	12
2	75448	10322.833390595313	13
2	75449	10323.142121822079	12
2	75453	10323.729483292504	13
2	75454	10323.738921282272	12
2	75457	10324.160108480294	11
2	75461	10324.905811840774	12
2	75462	10325.035343077517	11
2	75466	10325.242739605733	12
2	75468	10325.304666990579	13
2	75469	10325.910939573747	12
2	75473	10326.070797324577	13
2	75474	10326.603328971489	12
2	75477	10327.449606954976	11
2	75481	10327.745345265896	12
2	75484	10327.989070211462	11
2	75487	10328.718932942179	10
2	75491	10328.728016503961	11
2	75493	10329.029732323758	12
2	75494	10329.613268640702	11
2	75498	10329.978055883712	12
2	75499	10330.071543365549	11
2	75503	10330.344719817333	12
2	75504	10330.523470687465	11
2	75508	10330.821677704623	12
2	75511	10331.396653321031	11
2	75515	10331.711264936295	12
2	75516	10332.360247857049	11
2	75520	10333.13407167032	12
2	75521	10333.142086510332	11
2	75525	10333.284693818427	12
2	75526	10333.802416042909	11
2	75530	10333.805931265039	12
2	75531	10334.276878926223	11
2	75535	10334.521319644277	12
2	75536	10334.86227157481	11
2	75540	10335.096679447913	12
2	75541	10335.482539509628	11
2	75545	10335.640042734318	12
2	75546	10335.955322525715	11
2	75550	10336.464687563063	12
2	75551	10336.679070439161	11
2	75555	10337.133175634593	12
2	75556	10337.372708452278	11
2	75559	10337.878070294456	10
2	75563	10338.703589255275	11
2	75565	10338.812215555236	12
2	75566	10338.824470064248	11
2	75570	10338.909184246051	12
2	75573	10339.779633300164	11
2	75577	10340.090411628376	12
2	75578	10340.591004048539	11
2	75581	10341.289375534858	10
2	75584	10342.243963990006	9
2	75588	10342.600595340807	10
2	75590	10342.656287040645	11
2	75592	10342.850970122353	12
2	75593	10342.974079022016	11
2	75597	10343.456018274554	12
2	75598	10343.458475213423	11
2	75601	10343.962173076272	10
2	75605	10344.025695414364	11
2	75607	10344.335721393888	12
2	75608	10344.95860315931	11
2	75612	10345.284558822872	12
2	75615	10345.595592146897	11
2	75619	10345.841001515107	12
2	75620	10346.11125897129	11
2	75624	10346.320107710558	12
2	75625	10346.821502074384	11
2	75629	10347.100614251071	12
2	75630	10347.423356047244	11
2	75634	10347.479152917048	12
2	75635	10347.885233963671	11
2	75638	10348.831663736625	10
2	75641	10349.49193373869	9
2	75647	10349.773015871615	10
2	75649	10349.953065169943	11
2	75651	10350.083520478685	12
2	75652	10350.192396270547	11
2	75655	10350.775387826299	10
2	75659	10350.841153837927	11
2	75661	10351.158138598234	12
2	75662	10351.280680660827	11
2	75666	10351.640257460137	12
2	75667	10351.869391039217	11
2	75671	10351.930312286049	12
2	75674	10352.332663431361	11
2	75677	10353.11951117466	10
2	75680	10353.954273306222	9
2	75684	10354.231900784941	10
2	75686	10354.50057924895	11
2	75688	10354.653466468982	12
2	75689	10354.722995820518	11
2	75693	10354.802856747812	12
2	75696	10355.500407526519	11
2	75700	10355.752403066661	12
2	75701	10356.011053411819	11
2	75704	10356.490586070267	10
2	75708	10356.5151398598	11
2	75710	10356.990799783144	12
2	75711	10357.182873729027	11
2	75714	10357.858508422614	10
2	75718	10358.249566699103	11
2	75719	10358.55131056315	10
2	75723	10358.574625836779	11
2	75725	10359.119241436736	12
2	75726	10359.139598344143	11
2	75730	10359.51985164369	12
2	75731	10359.599146549001	11
2	75735	10359.643994999264	12
2	75736	10360.463163210189	11
2	75739	10361.184337891655	10
2	75742	10361.998330168815	9
2	75746	10362.060172930824	10
2	75747	10362.650690008483	9
2	75751	10362.774341071362	10
2	75752	10363.449794113419	9
2	75756	10363.675910520917	10
2	75757	10363.968413545207	9
2	75761	10364.059273826069	10
2	75763	10364.282556115952	11
2	75765	10364.642283277046	12
2	75766	10364.896480975735	11
2	75770	10364.964358021707	12
2	75773	10365.710386859641	11
2	75777	10366.400161685761	12
2	75778	10366.448544430702	11
2	75781	10367.082205477932	10
2	75785	10367.374039530369	11
2	75789	10367.428818169528	12
2	75790	10368.036746483825	11
2	75794	10368.363379783809	12
2	75795	10368.589744871639	11
2	75799	10368.602576891543	12
2	75800	10369.014691208227	11
2	75803	10369.490598878934	10
2	75807	10369.762406438779	11
2	75809	10370.031100141585	12
2	75810	10370.419128497661	11
2	75814	10370.558068227633	12
2	75815	10371.369884492009	11
2	75819	10372.216644358646	12
2	75820	10372.294692207099	11
2	75824	10372.301272101065	12
2	75825	10373.042304936395	11
2	75831	10373.527766661778	12
2	75832	10373.907196498401	11
2	75835	10374.328361032735	10
2	75838	10374.959646433331	9
2	75842	10375.285547678244	10
2	75843	10375.712918125624	9
2	75847	10376.099052236341	10
2	75848	10376.188194409916	9
2	75852	10376.565444914396	10
2	75853	10377.184282852728	9
2	75857	10377.378542331979	10
2	75859	10377.725944272439	11
2	75860	10377.816582042277	10
2	75864	10377.986525038333	11
2	75866	10378.278333970626	12
2	75867	10378.677117885295	11
2	75871	10379.159292494863	12
2	75872	10379.277056219028	11
2	75876	10379.796603062524	12
2	75877	10380.173930310569	11
2	75880	10380.830450395419	10
2	75884	10380.832446848192	11
2	75886	10380.842023747845	12
2	75887	10381.362364073674	11
2	75891	10381.524884833812	12
2	75892	10382.344315847819	11
2	75896	10382.585841980954	12
2	75897	10383.172079410143	11
2	75900	10383.832369644027	10
2	75904	10384.471878337898	11
2	75906	10384.527265725083	12
2	75907	10384.641089116242	11
2	75910	10385.095829186375	10
2	75913	10385.576989789513	9
2	75917	10385.877552893694	10
2	75919	10386.063456556421	11
2	75920	10386.10305301223	10
2	75924	10386.110967135207	11
2	75925	10386.718426959282	10
2	75929	10387.333045093743	11
2	75930	10387.713666768484	10
2	75934	10387.988052251184	11
2	75935	10388.183430934716	10
2	75939	10388.214621923494	11
2	75940	10388.808671872802	10
2	75946	10388.917909312594	11
2	75947	10389.764417672222	10
2	75951	10389.784990587348	11
2	75952	10390.316056590359	10
2	75956	10390.419536487324	11
2	75957	10390.820661240182	10
2	75961	10390.962322082507	11
2	75962	10391.430065600964	10
2	75966	10391.801733467122	11
2	75967	10392.273125408049	10
2	75970	10392.723125936342	9
2	75973	10393.688496188744	8
2	75977	10393.814606207912	9
2	75980	10394.340815673041	8
2	75984	10394.450077311112	9
2	75987	10395.046470402757	8
2	75990	10395.527010895655	7
2	75995	10396.465729794482	6
2	75999	10396.899467705715	7
2	76001	10397.003932909635	8
2	76003	10397.012185454819	9
2	76004	10397.06972187531	8
2	76007	10397.736021315603	7
2	76012	10398.251133298798	6
2	76016	10398.365640490464	7
2	76018	10398.41945357853	8
2	76020	10398.452285420244	9
2	76021	10399.229980568139	8
2	76025	10399.315832378276	9
2	76026	10400.07119239915	8
2	76030	10400.718026575201	9
2	76031	10400.84071349033	8
2	76035	10400.879277874819	9
2	76036	10401.70494111047	8
2	76040	10401.870532021711	9
2	76043	10402.200789384142	8
2	76047	10402.508589002689	9
2	76048	10403.147553810588	8
2	76052	10403.226185792278	9
2	76055	10404.058920886758	8
2	76059	10404.072211235313	9
2	76060	10404.902922768071	8
2	76064	10404.905437221049	9
2	76066	10405.126852394757	10
2	76067	10405.314683768311	9
2	76073	10406.039047493324	10
2	76074	10406.139256101353	9
2	76079	10407.089923757845	8
2	76085	10407.49719532182	9
2	76086	10407.961882067071	8
2	76090	10408.513297137639	9
2	76092	10408.637107486899	10
2	76093	10408.805202273903	9
2	76096	10409.463336653793	8
2	76099	10409.95032893449	7
2	76102	10410.437768697198	6
2	76106	10410.635049414788	7
2	76107	10410.845368358837	6
2	76111	10410.850324220471	7
2	76112	10411.557588626183	6
2	76116	10411.920100663918	7
2	76118	10411.970137616774	8
2	76120	10412.042350286599	9
2	76121	10412.178286104621	8
2	76125	10412.471070022085	9
2	76126	10412.895190183231	8
2	76129	10413.418599154492	7
2	76132	10413.896917248628	6
2	76136	10413.99436032053	7
2	76139	10414.551413056784	6
2	76143	10414.944814035378	7
2	76144	10414.987872763834	6
2	76148	10415.043211603709	7
2	76149	10415.73406547496	6
2	76152	10416.298798278132	5
2	76156	10416.511289290304	6
2	76157	10416.821148368315	5
2	76161	10416.966347424714	6
2	76162	10417.553457268904	5
2	76166	10417.739141724012	6
2	76167	10418.037715550064	5
2	76171	10418.082343520935	6
2	76172	10419.017075712112	5
2	76176	10419.043676249377	6
2	76177	10419.841109322216	5
2	76180	10420.648689669342	4
2	76184	10420.990350503651	5
2	76185	10421.647266801744	4
2	76190	10422.504744409881	3
2	76194	10422.806939915858	4
2	76195	10423.285878585018	3
2	76200	10424.092139453506	2
2	76204	10424.480086402811	3
2	76206	10424.791278014293	4
2	76207	10424.967477386743	3
2	76211	10425.537231355594	4
2	76212	10425.667002254091	3
2	76216	10425.745607640086	4
2	76217	10426.243747495739	3
2	76221	10426.439571773811	4
2	76222	10427.030632034894	3
2	76225	10427.642144620903	2
2	76229	10427.861998198891	3
2	76231	10427.953670820273	4
2	76232	10428.368161764899	3
2	76235	10429.147185830977	2
2	76238	10429.849485229254	1
2	76241	10430.387170836069	0
2	76256	10432.286027430781	1
2	76258	10432.375061172667	2
2	76260	10432.745192067714	3
2	76264	10433.139548412062	4
2	76265	10433.229776340184	3
2	76268	10433.681289726981	2
2	76271	10434.641921996857	1
2	76277	10435.267014348224	2
2	76278	10435.507147354186	1
2	76282	10435.551009907126	2
2	76284	10435.559011543021	3
2	76286	10436.277338349493	4
2	76287	10436.482800812759	3
2	76290	10437.265528977076	2
2	76294	10437.734880917991	3
2	76295	10437.784662315222	2
2	76299	10437.801206811853	3
2	76300	10438.720425776644	2
2	76304	10439.023703132615	3
2	76305	10439.255923150871	2
2	76309	10439.301881405336	3
2	76310	10439.997766890861	2
2	76314	10440.129374934666	3
2	76315	10440.477889709892	2
2	76319	10440.512211466174	3
2	76322	10441.234063672759	2
2	76325	10441.947776211258	1
2	76329	10442.653748840764	2
2	76330	10442.836908251345	1
2	76334	10442.932682679145	2
2	76335	10443.306491012238	1
2	76339	10443.451785606379	2
2	76341	10443.911980980598	3
2	76342	10444.005984549848	2
2	76346	10444.195856553511	3
2	76347	10444.438934112545	2
2	76351	10444.699196104873	3
2	76352	10445.237683024835	2
2	76356	10445.248517524572	3
2	76357	10446.210848137057	2
2	76360	10446.742454147498	1
2	76364	10446.84108569373	2
2	76366	10447.227038108329	3
2	76367	10447.472386596092	2
2	76371	10447.546043419533	3
2	76372	10447.95291394421	2
2	76376	10448.287157460338	3
2	76379	10448.489603413242	2
2	76382	10449.127938386957	1
2	76386	10449.448963139123	2
2	76387	10449.971057574098	1
2	76391	10450.116927183205	2
2	76392	10450.603065980618	1
2	76396	10450.746106526865	2
2	76398	10451.072661538049	3
2	76399	10451.185134445057	2
2	76403	10451.622726461232	3
2	76404	10451.724607572491	2
2	76407	10452.440461957986	1
2	76411	10453.296035904198	2
2	76412	10453.392138020155	1
2	76416	10453.662794232048	2
2	76418	10453.709583963554	3
2	76419	10454.264867115506	2
2	76423	10454.557716397063	3
2	76425	10454.837028102608	4
2	76426	10455.026346639796	3
2	76429	10455.509555615923	2
2	76433	10455.751606777753	3
2	76434	10456.36634752892	2
2	76438	10456.427692611417	3
2	76439	10456.775823721542	2
2	76442	10457.241176329526	1
2	76446	10457.297742967604	2
2	76448	10457.434433124629	3
2	76451	10457.853862182629	2
2	76457	10458.109265718521	3
2	76458	10458.4172610481	2
2	76462	10458.564669445053	3
2	76463	10459.144327345138	2
2	76466	10459.886195506082	1
2	76470	10460.101853889929	2
2	76471	10460.353412478716	1
2	76475	10460.596852409264	2
2	76477	10460.617051460676	3
2	76478	10461.337759601437	2
2	76482	10461.829208166563	3
2	76483	10461.89332684937	2
2	76487	10461.983350388765	3
2	76488	10462.746937514675	2
2	76492	10463.464008728439	3
2	76493	10463.595165120457	2
2	76498	10464.370218033735	1
2	76502	10464.381759638075	2
2	76504	10464.930533807526	3
2	76505	10465.368787855301	2
2	76509	10465.696918584697	3
2	76512	10466.272577408114	2
2	76516	10466.766372198139	3
2	76517	10466.977231994615	2
2	76521	10467.275959119471	3
2	76522	10467.678194507695	2
2	76526	10467.78451070573	3
2	76527	10468.179426748649	2
2	76531	10468.365831806555	3
2	76532	10468.701338105433	2
2	76536	10468.950975710646	3
2	76537	10469.266941632999	2
2	76541	10469.329808280961	3
2	76542	10469.678561610792	2
2	76545	10470.238264693989	1
2	76549	10470.433337507862	2
2	76551	10470.468119280917	3
2	76552	10471.121734304604	2
2	76556	10471.64561878546	3
2	76557	10471.720444273221	2
2	76561	10472.065795141907	3
2	76562	10472.637237651012	2
2	76565	10473.240894351359	1
2	76571	10474.008091056912	2
2	76572	10474.118998076831	1
2	76576	10474.35464686044	2
2	76577	10474.90290810109	1
2	76580	10475.312267424277	0
2	76584	10475.41415197724	1
2	76586	10475.679610262806	2
2	76590	10475.737572705591	3
2	76591	10476.204384388885	2
2	76595	10476.369415786034	3
2	76597	10476.603443868064	4
2	76598	10476.789706991723	3
2	76602	10476.827105076912	4
2	76603	10477.734542819083	3
2	76607	10477.97393546086	4
2	76608	10478.20067339788	3
2	76611	10478.751745971914	2
2	76615	10478.819101205876	3
2	76617	10479.290412484233	4
2	76618	10479.462604359367	3
2	76621	10479.946490568684	2
2	76625	10480.225422145763	3
2	76626	10480.37390993593	2
2	76630	10480.401323300637	3
2	76633	10480.966582273009	2
2	76637	10481.165585494459	3
2	76638	10481.76519082097	2
2	76642	10482.33910715069	3
2	76643	10482.347741080696	2
2	76647	10482.424094072465	3
2	76648	10483.212713510605	2
2	76652	10483.806240557388	3
2	76653	10484.09989343464	2
2	76659	10484.587074070861	3
2	76660	10484.965145244278	2
2	76664	10485.145131839691	3
2	76667	10485.655520634694	2
2	76670	10486.098117314341	1
2	76674	10486.111149503688	2
2	76675	10486.776137955083	1
2	76679	10486.91634190953	2
2	76680	10487.616097484358	1
2	76684	10487.750066399433	2
2	76685	10488.479683481126	1
2	76688	10489.101567099026	0
2	76695	10489.900873118957	1
2	76697	10490.039580741555	2
2	76699	10490.047845345683	3
2	76701	10490.476726194221	4
2	76702	10490.567262243123	3
2	76707	10491.264852597534	2
2	76711	10491.293956926817	3
2	76712	10492.214085271924	2
2	76715	10492.748763393208	1
2	76719	10493.375433098405	2
2	76721	10493.57769193841	3
2	76722	10493.686618832096	2
2	76726	10494.342320224124	3
2	76727	10494.550469682335	2
2	76731	10494.750959672085	3
2	76732	10495.24811744496	2
2	76736	10495.382659909521	3
2	76737	10496.24278008553	2
2	76740	10496.675460692931	1
2	76743	10497.319281150371	0
2	76747	10497.603823567888	1
2	76748	10498.028732281661	0
2	76752	10498.271520369954	1
2	76756	10498.33665843778	2
2	76758	10498.637921058136	3
2	76759	10498.883408195217	2
2	76765	10499.238492530239	3
2	76767	10499.434213078913	4
2	76768	10499.654667305033	3
2	76772	10499.847845795246	4
2	76774	10499.944661182104	5
2	76777	10500.640970160318	4
2	76780	10501.405868827197	3
2	76784	10502.016102739159	4
2	76786	10502.19020109999	5
2	76787	10502.378370852367	4
2	76791	10502.989819332681	5
2	76792	10503.164849594113	4
2	76796	10503.487392053229	5
2	76797	10503.620433791465	4
2	76800	10504.157758777373	3
2	76804	10504.349211298163	4
2	76806	10504.583740935367	5
2	76807	10504.860817050532	4
2	76811	10505.042142051597	5
2	76812	10505.710282844462	4
2	76816	10505.811855857331	5
2	76817	10506.346065449592	4
2	76820	10506.936096173309	3
2	76824	10506.995305512	4
2	76826	10507.23412889461	5
2	76827	10507.78298358891	4
2	76830	10508.496045084734	3
2	76834	10508.647693417833	4
2	76835	10509.44983731035	3
2	76838	10510.016851982864	2
2	76842	10510.566352989068	3
2	76843	10510.976871870894	2
2	76847	10511.18792788493	3
2	76848	10511.481871009542	2
2	76852	10511.701838082474	3
2	76855	10512.292392640112	2
2	76859	10512.701527165202	3
2	76860	10512.912293036159	2
2	76863	10513.514303633401	1
2	76866	10514.119274269434	0
2	76873	10515.25013983447	1
2	76875	10515.697474193214	2
2	76876	10515.789396027446	1
2	76880	10516.036565692332	2
2	76883	10516.401858816033	1
2	76887	10516.492960656729	2
2	76888	10516.937538963526	1
2	76892	10517.168967277951	2
2	76893	10517.622815798845	1
2	76897	10517.625385394393	2
2	76898	10518.023000151122	1
2	76902	10518.127103507375	2
2	76903	10518.60335912152	1
2	76906	10519.08119937998	0
2	76910	10519.264298870394	1
2	76911	10519.582284840119	0
2	76920	10520.779062911864	1
2	76922	10520.934850432971	2
2	76923	10521.238447114236	1
2	76926	10521.80585316072	0
2	76930	10521.841089830648	1
2	76933	10522.686665134148	0
2	76940	10523.937557095287	1
2	76941	10524.178441081678	0
2	76945	10524.383465070194	1
2	76946	10525.116558702167	0
2	76950	10525.386350288274	1
2	76951	10526.102519623021	0
2	76955	10526.127476472642	1
2	76958	10527.091373773309	0
2	76962	10527.14954004425	1
2	76963	10527.510754149564	0
2	76970	10528.353373158602	1
2	76972	10528.822840057038	2
2	76973	10529.170588356367	1
2	76978	10530.120690831047	0
2	76984	10530.712841380103	1
2	76987	10530.768903441651	0
2	76991	10530.779895205953	1
2	76992	10531.510318456654	0
2	76996	10531.839266045639	1
2	76997	10532.044127260725	0
2	77001	10532.553908968358	1
2	77004	10532.651306902495	0
2	77008	10532.700974106752	1
2	77009	10533.377786553901	0
2	77016	10534.019785364051	1
2	77018	10534.301343917075	2
2	77019	10534.714275129296	1
2	77022	10535.477722735906	0
2	77026	10535.512707351574	1
2	77029	10536.404123426525	0
2	77038	10537.805146514718	1
2	77039	10537.937935473135	0
2	77048	10539.063139013766	1
2	77049	10539.324196220812	0
2	77056	10540.221196397597	1
2	77057	10540.567277150013	0
2	77068	10541.517656081191	1
2	77071	10541.960692745418	0
2	77075	10542.085398255443	1
2	77076	10542.483781457849	0
2	77083	10543.641476891721	1
2	77085	10543.929652002112	2
2	77086	10544.118331278086	1
2	77091	10545.018439648923	0
2	77095	10545.286891719328	1
2	77096	10545.809351284773	0
2	77100	10546.04057105942	1
2	77101	10546.549942625238	0
2	77105	10546.640653514446	1
2	77106	10547.541405329125	0
2	77110	10547.754744606895	1
2	77111	10548.325393663969	0
2	77126	10550.402215347905	1
2	77130	10550.634626249631	2
2	77131	10551.141141440596	1
2	77134	10551.973899728588	0
2	77138	10552.033740902458	1
2	77139	10552.735056937269	0
2	77143	10553.140061030264	1
2	77144	10553.538133413454	0
2	77150	10553.754841297572	1
2	77151	10554.373981344157	0
2	77155	10554.624036956198	1
2	77156	10554.875293832335	0
2	77166	10556.029568973494	1
2	77168	10556.036655457937	2
2	77169	10556.289135055773	1
2	77172	10556.824279259348	0
2	77176	10556.925517392855	1
2	77179	10557.752293516479	0
2	77183	10558.023145487798	1
2	77186	10558.415473710436	0
2	77198	10560.045100227764	1
2	77200	10560.191974460998	2
2	77201	10560.344254436966	1
2	77204	10560.878495493548	0
2	77213	10561.866808870998	1
2	77215	10561.985057169696	2
2	77216	10562.278322170039	1
2	77223	10563.225153713317	0
2	77227	10563.330724955261	1
2	77228	10564.115820861391	0
2	77232	10564.365648977901	1
2	77233	10565.019188731832	0
2	77237	10565.613908316387	1
2	77238	10565.824874432727	0
2	77242	10565.87696539047	1
2	77243	10566.815668161975	0
2	77256	10568.773866431295	1
2	77259	10569.576425263535	0
2	77272	10570.985261615207	1
2	77273	10571.296266686095	0
2	77282	10572.267382599249	1
2	77283	10572.939198399585	0
2	77287	10573.50978669024	1
2	77288	10573.779141948901	0
2	77295	10574.355273298313	1
2	77296	10575.161293311667	0
2	77305	10575.878225667224	1
2	77306	10576.19414458854	0
2	77315	10577.059255572301	1
2	77316	10577.617689147656	0
2	77325	10578.28529363798	1
2	77326	10578.946339633707	0
2	77344	10580.600315482847	1
2	77346	10580.603564604244	2
2	77347	10580.8765393621	1
2	77352	10581.452661786293	0
2	77361	10582.183144063934	1
2	77362	10582.603237324598	0
2	77371	10584.309849146477	1
2	77372	10584.375328680983	0
2	77376	10584.485342910381	1
2	77377	10584.878620543022	0
2	77381	10584.929531926184	1
2	77382	10585.41258785433	0
2	77397	10587.178935097094	1
2	77398	10587.487441205438	0
2	77405	10588.534490254618	1
2	77411	10589.088409921918	2
2	77414	10589.434024359257	1
2	77417	10590.304143403442	0
2	77421	10590.489660461167	1
2	77424	10591.204332030024	0
2	77428	10591.45849494799	1
2	77434	10591.956096672137	2
2	77437	10592.181346184825	1
2	77440	10592.589731487976	0
2	77447	10593.662276091854	1
2	77448	10593.808455104166	0
2	77452	10593.994273233111	1
2	77455	10594.241880375491	0
2	77459	10594.241889714903	1
2	77460	10594.764908511769	0
2	77467	10595.774133032458	1
2	77468	10596.253281375877	0
2	77472	10596.513529986608	1
2	77474	10596.657446734186	2
2	77475	10596.979043700378	1
2	77479	10597.426285440321	2
2	77480	10597.623532565422	1
2	77485	10598.074206265034	0
2	77492	10598.935753743472	1
2	77493	10599.305266698795	0
2	77502	10600.43653673853	1
2	77503	10601.012897957974	0
2	77515	10602.29314431933	1
2	77516	10603.199751681482	0
2	77523	10604.110081540431	1
2	77524	10604.5587116393	0
2	77531	10605.571896706496	1
2	77532	10606.26402584065	0
2	77536	10607.001705219113	1
2	77537	10607.123153052593	0
2	77541	10607.192193162569	1
2	77544	10607.557827556759	0
2	77548	10607.736826509879	1
2	77549	10608.143004900657	0
2	77558	10609.092050012618	1
2	77561	10609.63249783681	0
2	77567	10609.713138495945	1
2	77569	10609.893703445957	2
2	77570	10610.231875710257	1
2	77574	10610.332151239127	2
2	77577	10610.889239479762	1
2	77581	10611.304842973069	2
2	77582	10611.680765846206	1
2	77586	10611.789174557512	2
2	77588	10611.964677661989	3
2	77589	10612.115744446378	2
2	77593	10612.185373981284	3
2	77594	10612.677068845017	2
2	77598	10613.124543152654	3
2	77599	10613.544505468823	2
2	77603	10614.081496006446	3
2	77604	10614.09662658821	2
2	77608	10614.208219584507	3
2	77609	10614.805143371431	2
2	77613	10614.934347931201	3
2	77614	10615.548805419888	2
2	77618	10615.702860507646	3
2	77619	10616.065064961204	2
2	77623	10616.070719372022	3
2	77624	10617.015538181012	2
2	77627	10617.644827453579	1
2	77630	10618.062523085178	0
2	77634	10618.232090714258	1
2	77638	10618.605326507765	2
2	77640	10618.770745537947	3
2	77641	10618.825207683091	2
2	77645	10619.190982424088	3
2	77646	10619.781690526587	2
2	77652	10620.353192491006	3
2	77653	10620.449272451709	2
2	77657	10620.55320154072	3
2	77658	10621.165725119711	2
2	77662	10621.486357831467	3
2	77665	10621.873606317743	2
2	77669	10622.138809836121	3
2	77670	10622.748849906932	2
2	77674	10622.920575890793	3
2	77675	10623.301723296541	2
2	77679	10623.406087134021	3
2	77682	10624.097146412145	2
2	77686	10624.306016733654	3
2	77687	10624.776040227452	2
2	77691	10625.073272599531	3
2	77692	10625.772516285089	2
2	77696	10626.056277527382	3
2	77697	10626.463425875149	2
2	77701	10626.601002166148	3
2	77702	10627.218948678972	2
2	77705	10627.620307234322	1
2	77709	10627.768533081712	2
2	77710	10628.023835672458	1
2	77713	10628.903129686575	0
2	77717	10629.165957947287	1
2	77719	10629.240326088771	2
2	77720	10629.809439361814	1
2	77723	10630.346616381706	0
2	77727	10630.62204616808	1
2	77730	10631.310484530703	0
2	77734	10631.408741580361	1
2	77736	10631.709357504922	2
2	77737	10632.132030592273	1
2	77741	10632.242496610699	2
2	77742	10632.53925793606	1
2	77746	10632.809208356239	2
2	77748	10633.049424113485	3
2	77749	10633.452705091863	2
2	77752	10634.314790840839	1
2	77756	10634.615604693416	2
2	77758	10634.982544502085	3
2	77759	10635.102383752792	2
2	77763	10635.168832371655	3
2	77764	10635.700859291452	2
2	77768	10635.908958201445	3
2	77769	10636.218832509938	2
2	77772	10637.060860180642	1
2	77776	10637.250311725844	2
2	77777	10637.561714122837	1
2	77781	10637.632963969903	2
2	77783	10637.720373309877	3
2	77784	10638.081406001394	2
2	77787	10638.753620998768	1
2	77791	10639.481374160429	2
2	77792	10639.671770625628	1
2	77796	10639.738079982592	2
2	77797	10640.645268990306	1
2	77801	10641.273989707366	2
2	77802	10641.293831932751	1
2	77805	10641.752580927612	0
2	77809	10641.904189312937	1
2	77810	10642.281049260331	0
2	77814	10642.380070775766	1
2	77816	10642.401995254314	2
2	77817	10642.923832427917	1
2	77821	10643.031261989378	2
2	77822	10643.540776176771	1
2	77825	10643.984626305915	0
2	77829	10644.331631574149	1
2	77830	10644.592545207098	0
2	77834	10644.776236857296	1
2	77835	10645.150810574015	0
2	77839	10645.317384979745	1
2	77841	10645.599198175542	2
2	77842	10645.752774193763	1
2	77846	10645.852861093742	2
2	77847	10646.227004021472	1
2	77850	10646.634106790899	0
2	77854	10646.659598403576	1
2	77855	10647.051790690767	0
2	77859	10647.350671322856	1
2	77861	10647.535349671008	2
2	77863	10647.658325428727	3
2	77864	10647.70061962788	2
2	77868	10648.31689673311	3
2	77869	10648.644933528798	2
2	77873	10648.7475679422	3
2	77874	10649.621416906007	2
2	77878	10649.658062490589	3
2	77879	10650.227801416554	2
2	77883	10650.252686683076	3
2	77884	10651.029570692471	2
2	77888	10651.124272028078	3
2	77889	10651.54583750886	2
2	77893	10651.900184893814	3
2	77894	10652.465223463225	2
2	77898	10652.711511900016	3
2	77899	10653.351198590659	2
2	77903	10653.604304187963	3
2	77905	10653.80839386215	4
2	77906	10653.843813290093	3
2	77912	10653.93645102334	4
2	77913	10654.597798841419	3
2	77917	10654.762917223086	4
2	77918	10655.441046670936	3
2	77922	10655.6901648429	4
2	77923	10656.092802301533	3
2	77927	10656.345585343521	4
2	77930	10656.662913586171	3
2	77933	10657.172208706261	2
2	77937	10657.324589200848	3
2	77938	10657.674413001974	2
2	77942	10657.859343352931	3
2	77944	10658.2674411624	4
2	77945	10658.584816601424	3
2	77948	10659.055617629894	2
2	77951	10659.719056401373	1
2	77955	10660.033324773243	2
2	77957	10660.329138496372	3
2	77958	10660.490407869983	2
2	77963	10661.201472615003	1
2	77967	10661.487175379909	2
2	77969	10661.561310207231	3
2	77971	10661.579119692064	4
2	77972	10661.805945666059	3
2	77976	10662.333512804227	4
2	77977	10662.521501829586	3
2	77981	10662.568762254173	4
2	77982	10663.110590189061	3
2	77986	10663.430715717582	4
2	77987	10663.642731536849	3
2	77990	10664.267088732886	2
2	77994	10664.93352919746	3
2	77995	10665.039897800487	2
2	77999	10665.273779273835	3
2	78000	10665.804855639132	2
2	78004	10665.913423742842	3
2	78005	10666.754650066857	2
2	78008	10667.272462068935	1
2	78012	10667.325374332748	2
2	78014	10667.351042638163	3
2	78015	10668.155101613951	2
2	78019	10668.179577940594	3
2	78021	10668.440712780467	4
2	78022	10668.964216882846	3
2	78025	10669.615838697617	2
2	78029	10670.14897877714	3
2	78030	10670.202013362822	2
2	78034	10670.836209937452	3
2	78036	10670.885837448387	4
2	78037	10670.961712498096	3
2	78041	10671.245193230252	4
2	78043	10671.309597729259	5
2	78044	10671.581011235965	4
2	78047	10672.03940984115	3
2	78051	10672.34424400269	4
2	78052	10672.515966157028	3
2	78056	10672.647925830152	4
2	78058	10672.895582941606	5
2	78059	10673.160930172186	4
2	78062	10673.869771169796	3
2	78066	10673.907350797049	4
2	78067	10674.663002758305	3
2	78070	10675.448318925611	2
2	78074	10675.647759549132	3
2	78076	10675.833356784984	4
2	78077	10676.074349879864	3
2	78084	10676.727755453595	2
2	78088	10676.771247011782	3
2	78090	10676.807681399102	4
2	78091	10677.618430258119	3
2	78095	10678.025842301243	4
2	78096	10678.508114591445	3
2	78100	10678.831265483231	4
2	78101	10679.422160565219	3
2	78105	10679.443136175954	4
2	78106	10680.19536747734	3
2	78109	10680.705591546716	2
2	78113	10680.939480644294	3
2	78115	10681.263568946423	4
2	78116	10681.595434644604	3
2	78120	10681.606759276778	4
2	78122	10682.182610919007	5
2	78123	10682.422990753986	4
2	78127	10683.170780689498	5
2	78128	10683.221733836103	4
2	78132	10683.404498297921	5
2	78133	10683.644148165425	4
2	78136	10684.382312915446	3
2	78139	10684.987786465809	2
2	78142	10685.43112892082	1
2	78146	10685.447011966486	2
2	78150	10686.143398525672	3
2	78151	10686.159152821377	2
2	78155	10686.285050051406	3
2	78156	10686.865846226756	2
2	78160	10687.058236438849	3
2	78162	10687.193645551751	4
2	78163	10687.491147240038	3
2	78167	10687.555948825279	4
2	78168	10688.433523669765	3
2	78172	10688.500852426975	4
2	78173	10689.131938474039	3
2	78177	10689.837565851617	4
2	78179	10689.856933527917	5
2	78180	10689.974258161029	4
2	78184	10690.403997089512	5
2	78187	10690.701234575985	4
2	78191	10690.766800008075	5
2	78192	10691.288155821357	4
2	78196	10691.421540367486	5
2	78197	10691.760155315716	4
2	78200	10692.427055224516	3
2	78204	10692.704574554258	4
2	78206	10692.819584022559	5
2	78207	10693.176235508845	4
2	78211	10693.291481643334	5
2	78212	10694.043281472959	4
2	78216	10694.545087568921	5
2	78217	10694.638062217012	4
2	78220	10695.072383829225	3
2	78224	10695.625749508784	4
2	78226	10695.798025223393	5
2	78227	10696.038675409667	4
2	78231	10696.3032581608	5
2	78232	10696.718116790121	4
2	78235	10697.708641614504	3
2	78239	10697.79376550503	4
2	78242	10698.440200618347	3
2	78245	10699.253040523939	2
2	78251	10699.793390363754	3
2	78252	10699.940713443766	2
2	78255	10700.690102326004	1
2	78259	10701.09436627277	2
2	78261	10701.259299255301	3
2	78262	10701.449210451469	2
2	78265	10702.37982214151	1
2	78271	10702.700014362726	2
2	78272	10702.90834485015	1
2	78276	10703.027736122287	2
2	78281	10703.399343279629	1
2	78284	10703.999776817738	0
2	78294	10705.677949303588	1
2	78299	10706.109584411113	0
2	78308	10707.165918876849	1
2	78310	10707.189563061445	2
2	78314	10707.304776114154	3
2	78315	10707.920571712563	2
2	78318	10708.890596299032	1
2	78323	10709.414417355526	0
2	78327	10709.541723783693	1
2	78329	10709.882410691109	2
2	78330	10710.014938429761	1
2	78333	10710.770125276148	0
2	78337	10711.327874887695	1
2	78338	10711.589617036627	0
2	78342	10712.092722729114	1
2	78343	10712.537060408126	0
2	78350	10713.133072066728	1
2	78352	10713.260124873951	2
2	78353	10713.488382147503	1
2	78356	10713.913664260897	0
2	78368	10715.103682528018	1
2	78372	10715.693332234552	2
2	78373	10715.794087605242	1
2	78377	10715.817632765736	2
2	78378	10716.310521746211	1
2	78382	10716.335457664396	2
2	78383	10716.90196915252	1
2	78387	10716.947853568187	2
2	78390	10717.54872970471	1
2	78394	10717.852147346395	2
2	78395	10718.034881684248	1
2	78399	10718.049094453542	2
2	78400	10718.561014239554	1
2	78404	10718.834264109936	2
2	78405	10719.275191053486	1
2	78408	10719.71876014049	0
2	78412	10719.743189900534	1
2	78413	10720.558339611504	0
2	78417	10720.56256358781	1
2	78419	10721.169265769091	2
2	78420	10721.256218724854	1
2	78424	10721.444121679488	2
2	78425	10721.829801462421	1
2	78429	10722.503255386179	2
2	78430	10722.762023382278	1
2	78434	10722.765358969711	2
2	78435	10723.553904640458	1
2	78439	10723.643880884569	2
2	78440	10724.146707021648	1
2	78444	10724.557464066926	2
2	78445	10725.023905783489	1
2	78449	10725.448085063052	2
2	78450	10725.523922661056	1
2	78454	10725.52480456329	2
2	78455	10726.461267302434	1
2	78458	10727.041296217094	0
2	78468	10728.217186361284	1
2	78471	10729.097324294846	0
2	78475	10729.501203979317	1
2	78476	10729.893504605039	0
2	78485	10731.024835477757	1
2	78487	10731.282685323102	2
2	78488	10731.492438628913	1
2	78491	10732.004733355685	0
2	78495	10732.244945801181	1
2	78496	10732.485037280821	0
2	78502	10732.719476221692	1
2	78503	10732.911635351057	0
2	78507	10733.139043935698	1
2	78508	10733.874922572418	0
2	78512	10733.915727230838	1
2	78513	10734.3954715999	0
2	78517	10734.442940138691	1
2	78518	10735.179176461852	0
2	78522	10735.340644303796	1
2	78523	10735.709562116784	0
2	78527	10736.214436355688	1
2	78528	10736.305861368465	0
2	78532	10736.498265157875	1
2	78533	10737.000695077113	0
2	78537	10737.164934735562	1
2	78538	10737.785011272195	0
2	78542	10737.83832518444	1
2	78543	10738.390625597599	0
2	78547	10738.657462789621	1
2	78548	10739.130647980484	0
2	78552	10739.683243629143	1
2	78553	10739.900968979454	0
2	78557	10739.971555771252	1
2	78558	10740.636560521942	0
2	78562	10740.843677281401	1
2	78564	10740.953625052785	2
2	78565	10741.15496245382	1
2	78569	10741.340692249691	2
2	78570	10741.93959741226	1
2	78574	10742.30974225078	2
2	78575	10742.61427253719	1
2	78578	10743.523500411972	0
2	78582	10743.75925512664	1
2	78583	10744.47696593978	0
2	78595	10745.793254586088	1
2	78599	10745.939038668998	2
2	78600	10746.118184730426	1
2	78603	10746.79655125627	0
2	78607	10747.213044733287	1
2	78608	10747.603217517181	0
2	78617	10748.690926092726	1
2	78618	10749.281458071123	0
2	78629	10750.601267989416	1
2	78630	10751.152821728603	0
2	78692	10758.422452743633	1
2	78697	10759.303876225434	0
2	78704	10760.358156940507	1
2	78707	10760.754417862154	0
2	78716	10761.7242363279	1
2	78717	10762.194292847316	0
2	78731	10763.613467726131	1
2	78732	10764.269430774699	0
2	78739	10764.783169650268	1
2	78740	10765.126821774959	0
2	78756	10767.188341818762	1
2	78757	10767.303863912791	0
2	78766	10768.315254549301	1
2	78767	10768.803961187618	0
2	78776	10769.265598431835	1
2	78779	10769.917369962733	0
2	78791	10771.286096885603	1
2	78792	10771.455739323811	0
2	78803	10772.635594342716	1
2	78805	10773.165604530099	2
2	78806	10773.289374050281	1
2	78811	10773.838531306495	0
2	78824	10775.606265787059	1
2	78826	10776.142427704098	2
2	78827	10776.357050802202	1
2	78830	10777.15937719221	0
2	78834	10777.434358394523	1
2	78835	10778.13478810868	0
2	78839	10778.395585652668	1
2	78840	10778.67192760349	0
2	78846	10778.866484897791	1
2	78847	10779.303167187625	0
2	78853	10779.862786731873	1
2	78854	10780.169957395287	0
2	78862	10780.823778780108	1
2	78863	10780.909617725637	0
2	78867	10780.926129406293	1
2	78868	10781.908017187536	0
2	78872	10782.175077785338	1
2	78873	10782.482740585756	0
2	78877	10782.676277935023	1
2	78878	10783.423013224563	0
2	78882	10783.474346415635	1
2	78883	10784.413453756336	0
2	78890	10785.247704624206	1
2	78891	10785.420290595589	0
2	79072	10810.934006661725	1
2	79074	10810.94463777591	2
2	79075	10811.08245872452	1
2	79080	10811.67354712721	0
2	79084	10811.764233184789	1
2	79085	10812.655670932653	0
2	79089	10812.885214579486	1
2	79090	10813.272535266048	0
2	79100	10813.713766356086	1
2	79105	10813.889048724874	0
2	79111	10814.043210348447	1
2	79112	10814.312037568419	0
2	79116	10814.505741331574	1
2	79117	10815.02219534318	0
2	79121	10815.089453822318	1
2	79123	10815.271454898909	2
2	79126	10815.873818185246	1
2	79130	10816.372225328543	2
2	79131	10816.791614858965	1
2	79135	10816.873552609228	2
2	79136	10817.51850186877	1
2	79140	10818.117687513371	2
2	79141	10818.179111124455	1
2	79145	10818.658809012845	2
2	79146	10818.771269949266	1
2	79151	10819.373781277213	0
2	79160	10820.339953681898	1
2	79162	10820.539412387542	2
2	79166	10820.723462051033	3
2	79168	10820.741078317216	4
2	79169	10821.073831623254	3
2	79174	10821.940613634672	2
2	79178	10822.36399614733	3
2	79179	10822.786015681477	2
2	79183	10822.802409986618	3
2	79184	10823.303315976608	2
2	79188	10823.560895527502	3
2	79189	10824.246291177367	2
2	79193	10824.428930726458	3
2	79196	10825.023902044232	2
2	79200	10825.082104320902	3
2	79201	10825.833144862364	2
2	79205	10826.110041474312	3
2	79206	10826.332654300352	2
2	79209	10826.885007642462	1
2	79213	10826.914561871557	2
2	79215	10827.162076386315	3
2	79216	10827.850868878952	2
2	79220	10828.550807597943	3
2	79221	10828.791961134338	2
2	79225	10828.819823449684	3
2	79228	10829.667388042594	2
2	79232	10829.718666693569	3
2	79233	10830.640189127364	2
2	79237	10830.673566005358	3
2	79239	10831.094451836018	4
2	79242	10831.619092991735	3
2	79246	10832.008110892866	4
2	79247	10832.559815575575	3
2	79250	10832.999403785655	2
2	79254	10833.382349896916	3
2	79256	10833.751416730185	4
2	79257	10833.955149195177	3
2	79260	10834.394883902484	2
2	79264	10834.548006607738	3
2	79265	10835.027962821369	2
2	79269	10835.175629404802	3
2	79270	10835.839358853196	2
2	79273	10836.344252645291	1
2	79277	10836.576221760968	2
2	79279	10836.998077662291	3
2	79280	10837.007579045623	2
2	79283	10837.54040237453	1
2	79287	10837.946589164219	2
2	79289	10838.365673044721	3
2	79290	10838.453955123594	2
2	79293	10838.950945065843	1
2	79297	10838.96377465074	2
2	79299	10839.070543777858	3
2	79300	10839.670762045376	2
2	79303	10840.582671980673	1
2	79307	10840.65340784293	2
2	79308	10841.20994528399	1
2	79312	10841.499836675519	2
2	79313	10842.192879979752	1
2	79316	10842.628072975038	0
2	79320	10843.336268709893	1
2	79321	10843.405133606002	0
2	79325	10843.417033886868	1
2	79327	10843.527272240174	2
2	79328	10844.293145462007	1
2	79332	10844.684075738963	2
2	79333	10844.857057043466	1
2	79337	10844.928341351579	2
2	79340	10845.623609231155	1
2	79343	10846.081831594532	0
2	79347	10846.575649422479	1
2	79348	10846.787802710779	0
2	79355	10847.89853305774	1
2	79356	10847.918807994923	0
2	79373	10850.091584319895	1
2	79374	10850.553140229289	0
2	79387	10851.918614030993	1
2	79388	10852.144873116235	0
2	79398	10853.514244756271	1
2	79399	10853.951756615913	0
2	79413	10854.832598482814	1
2	79416	10855.335235833026	0
2	79427	10856.105865486079	1
2	79428	10856.775730596365	0
2	79434	10857.165836156908	1
2	79435	10857.575963896209	0
2	79439	10858.116167639053	1
2	79440	10858.20694711774	0
2	79444	10858.247442660563	1
2	79445	10858.888566930661	0
2	79449	10859.168079727669	1
2	79451	10859.301861584092	2
2	79452	10859.431058551021	1
2	79456	10859.519873671802	2
2	79458	10859.698083112137	3
2	79459	10860.237403452978	2
2	79463	10860.380740042229	3
2	79464	10861.231135489395	2
2	79468	10861.299878817564	3
2	79469	10862.046615373179	2
2	79473	10862.350839820626	3
2	79474	10862.503756763855	2
2	79477	10863.435681405965	1
2	79481	10863.84317154305	2
2	79482	10863.884063122211	1
2	79486	10864.31951194767	2
2	79487	10864.533014658209	1
2	79491	10864.616215299004	2
2	79492	10864.950849830475	1
2	79496	10865.215773679262	2
2	79498	10865.296610072342	3
2	79500	10865.403477237539	4
2	79501	10865.940570574276	3
2	79505	10866.684560378497	4
2	79506	10866.858358454401	3
2	79509	10867.679025324038	2
2	79513	10867.74723607753	3
2	79514	10868.523863990023	2
2	79518	10869.231226427293	3
2	79519	10869.36703526706	2
2	79522	10869.773668923579	1
2	79526	10870.245244078828	2
2	79527	10870.274011630589	1
2	79531	10870.345382627154	2
2	79532	10870.682750507701	1
2	79536	10870.940107789092	2
2	79538	10871.36497219945	3
2	79539	10871.57144953895	2
2	79542	10872.130411334733	1
2	79546	10872.248426076915	2
2	79547	10872.601396480646	1
2	79551	10872.996183419046	2
2	79552	10873.224429911958	1
2	79556	10873.442602391308	2
2	79557	10873.781153337961	1
2	79561	10873.932171960856	2
2	79563	10874.118499380926	3
2	79564	10874.572943926161	2
2	79569	10875.298996651616	1
2	79573	10876.09831755016	2
2	79575	10876.114202409183	3
2	79576	10876.224367618445	2
2	79580	10876.684229278847	3
2	79581	10876.803516374599	2
2	79584	10877.725852601021	1
2	79588	10878.48943345288	2
2	79589	10878.703184108925	1
2	79593	10878.765476084382	2
2	79594	10879.600543824187	1
2	79598	10879.664362763168	2
2	79600	10880.133631722175	3
2	79601	10880.585683959885	2
2	79605	10880.914189745552	3
2	79606	10881.485845215083	2
2	79609	10881.989004683425	1
2	79613	10882.548592968511	2
2	79615	10882.656814273037	3
2	79616	10882.712080678786	2
2	79620	10882.816170659548	3
2	79621	10883.404042590665	2
2	79625	10883.490004957441	3
2	79628	10884.255067003681	2
2	79632	10884.519601116542	3
2	79633	10884.667331278254	2
2	79636	10885.08896474808	1
2	79641	10885.527965091705	0
2	79645	10885.925368004208	1
2	79646	10885.98544562033	0
2	79653	10886.479207172477	1
2	79655	10886.999955142076	2
2	79657	10887.055486947167	3
2	79659	10887.323577602832	4
2	79660	10887.42606769011	3
2	79663	10888.349969112199	2
2	79669	10889.012969602798	3
2	79670	10889.305465307903	2
2	79673	10889.798133708934	1
2	79677	10890.041251655049	2
2	79678	10890.258209602234	1
2	79682	10890.307027197861	2
2	79683	10890.903288083875	1
2	79687	10891.196214661613	2
2	79688	10891.479058640243	1
2	79692	10891.643807156508	2
2	79693	10891.940323691748	1
2	79697	10891.975605859963	2
2	79698	10892.379063298952	1
2	79702	10892.52498714714	2
2	79703	10892.801319684161	1
2	79708	10893.685227300765	0
2	79712	10894.058809605967	1
2	79713	10894.381188206634	0
2	79717	10894.500260410474	1
2	79718	10895.372394596393	0
2	79725	10896.775999095503	1
2	79728	10896.976419774842	0
2	79732	10897.361254362846	1
2	79736	10897.524211602078	2
2	79737	10897.54190431333	1
2	79741	10897.613925661419	2
2	79742	10898.369492569127	1
2	79746	10898.710994750947	2
2	79747	10899.050239233048	1
2	79753	10899.436305758773	2
2	79754	10899.809937203097	1
2	79758	10900.242704175171	2
2	79759	10900.265098389544	1
2	79762	10900.912081028501	0
2	79766	10901.098258940918	1
2	79767	10901.509140013371	0
2	79771	10901.621331366049	1
2	79772	10902.248163185807	0
2	79784	10903.379624688099	1
2	79785	10904.21214267982	0
2	79794	10905.217825488282	1
2	79795	10905.795599433154	0
2	79804	10906.474135917175	1
2	79805	10907.284398147257	0
2	79809	10907.293309964292	1
2	79810	10907.899861864492	0
2	79816	10908.034139482825	1
2	79817	10908.653748344656	0
2	79821	10908.775763944356	1
2	79822	10909.499103234595	0
2	79826	10909.95315104988	1
2	79827	10910.286112364734	0
2	79831	10910.364176180432	1
2	79832	10910.96777801996	0
2	79836	10910.993991915805	1
2	79837	10911.808816781294	0
2	79841	10912.050581640567	1
2	79843	10912.366482414939	2
2	79844	10912.495064485891	1
2	79847	10913.003541356072	0
2	79854	10914.165493666242	1
2	79855	10914.914004461168	0
2	79859	10915.304891313071	1
2	79860	10915.535483754919	0
2	79864	10915.726372876349	1
2	79865	10915.995294796144	0
2	79869	10916.354183869207	1
2	79870	10916.823184985695	0
2	79874	10916.834690977581	1
2	79875	10917.473509286046	0
2	79879	10917.535476149831	1
2	79882	10918.216737939119	0
2	79886	10918.466913983761	1
2	79887	10919.112185206525	0
2	79901	10920.603625092343	1
2	79903	10920.634830603288	2
2	79904	10921.197260036859	1
2	79907	10922.118433159105	0
2	79919	10923.720003668482	1
2	79921	10923.83467504303	2
2	79924	10924.173884939663	1
2	79927	10924.948164636483	0
2	79931	10925.058914927559	1
2	79932	10925.709990034699	0
2	79941	10926.574809460892	1
2	79942	10927.22913982205	0
2	79972	10931.567150287984	1
2	79973	10931.664724838435	0
2	79984	10932.518037671573	1
2	79985	10933.038849343713	0
2	79992	10934.159779116807	1
2	79995	10934.415046809595	0
2	80010	10935.141266393748	1
2	80011	10935.544745916203	0
2	80022	10936.594872425936	1
2	80025	10937.140317606815	0
2	80037	10938.18330248836	1
2	80038	10938.567034139839	0
2	80057	10940.572123981328	1
2	80059	10940.844385216805	2
2	80060	10940.932317663804	1
2	80065	10941.724711373663	0
2	80079	10943.203335176823	1
2	80082	10943.664265414682	0
2	80113	10948.738633974133	1
2	80114	10948.867294983967	0
2	80121	10949.570885795339	1
2	80122	10950.269997306336	0
2	80133	10951.25686331153	1
2	80134	10951.637217890127	0
2	80143	10952.626711276237	1
2	80144	10952.82379233826	0
2	80157	10954.437812287857	1
2	80158	10954.55872744823	0
2	80165	10955.140450033531	1
2	80168	10955.621599335811	0
2	80172	10956.401642258802	1
2	80173	10956.470529618329	0
2	80177	10956.914601496439	1
2	80178	10957.418497133703	0
2	80186	10957.812488277125	1
2	80189	10958.347061274556	0
2	80193	10958.611662639801	1
2	80194	10959.174251921644	0
2	80198	10959.30786645203	1
2	80199	10959.618212388485	0
2	80203	10959.79095605042	1
2	80204	10960.598165953654	0
2	80211	10961.727891130269	1
2	80212	10962.103284783085	0
2	80224	10963.954807771178	1
2	80225	10964.544512811658	0
2	80232	10965.15489486247	1
2	80237	10965.812913683738	0
2	80244	10966.43541472783	1
2	80246	10966.441695796679	2
2	80247	10966.857713306865	1
2	80254	10967.519034819242	0
2	80348	10981.226038787733	1
2	80349	10981.42936018727	0
2	80358	10982.300800648559	1
2	80359	10982.883262424714	0
2	80370	10984.165351899703	1
2	80371	10984.277751409572	0
2	80380	10985.84007456515	1
2	80381	10985.948292619811	0
2	80399	10987.772580082238	1
2	80400	10988.108881160646	0
2	80407	10988.707758636056	1
2	80410	10989.09716964041	0
2	80419	10990.237954236948	1
2	80420	10990.48022778554	0
2	80427	10990.968550543352	1
2	80430	10991.702250729484	0
2	80439	10992.70766221894	1
2	80440	10992.93016400126	0
2	80447	10994.175558586139	1
2	80449	10994.341237993029	2
2	80450	10994.570092434979	1
2	80455	10995.212647251164	0
2	80459	10995.332501026774	1
2	80460	10996.024529768651	0
2	80464	10996.258554253162	1
2	80465	10996.447689685443	0
2	80469	10996.486316150426	1
2	80472	10997.239924179794	0
2	80479	10998.36696179103	1
2	80480	10998.605066080656	0
2	80491	11000.22906007101	1
2	80492	11000.306437923418	0
2	80501	11001.183058880871	1
2	80502	11001.894871316369	0
2	80534	11007.652940938971	1
2	80535	11007.99314452981	0
2	80544	11009.286634794128	1
2	80545	11009.456747006889	0
2	80559	11010.557569515273	1
2	80560	11011.25953542705	0
2	80576	11013.08485484866	1
2	80578	11013.233540412122	2
2	80579	11013.517278767222	1
2	80584	11014.240473268864	0
2	80590	11014.295476704921	1
2	80591	11014.718191698178	0
2	80597	11015.146739194986	1
2	80599	11015.313115210565	2
2	80600	11015.63230013613	1
2	80604	11015.87240964601	2
2	80607	11016.358057365412	1
2	80613	11016.520615141974	2
2	80614	11017.283673898954	1
2	80618	11017.633995014733	2
2	80619	11017.958539021792	1
2	80623	11018.032157541612	2
2	80626	11018.697688307505	1
2	80629	11019.388173629794	0
2	80633	11019.458058280646	1
2	80635	11019.673851898777	2
2	80636	11020.224526798291	1
2	80639	11021.074810180658	0
2	80643	11021.439276697793	1
2	80644	11021.848680182205	0
2	80648	11022.000109204767	1
2	80651	11022.762599013404	0
2	80655	11022.847140898027	1
2	80656	11023.395585209581	0
2	80660	11023.653646744177	1
2	80661	11024.184435558024	0
2	80665	11024.336397303686	1
2	80666	11024.644604868892	0
2	80670	11024.742265611907	1
2	80672	11025.431342225845	2
2	80673	11025.463450285172	1
2	80677	11026.0144114052	2
2	80678	11026.286298917964	1
2	80682	11026.441447285111	2
2	80683	11027.196035733804	1
2	80686	11027.696636679567	0
2	80692	11028.428211304461	1
2	80693	11028.459059362005	0
2	80697	11028.564305552842	1
2	80698	11029.069855827963	0
2	80702	11029.286031534338	1
2	80703	11029.499194822585	0
2	80707	11029.635015418249	1
2	80709	11030.014679926077	2
2	80710	11030.268272626059	1
2	80713	11030.745077932238	0
2	80717	11030.760075420457	1
2	80719	11030.993665664863	2
2	80720	11031.620857878433	1
2	80724	11031.863973338009	2
2	80725	11032.225070346178	1
2	80728	11032.65383066594	0
2	80732	11032.894367170138	1
2	80734	11033.103220372335	2
2	80735	11033.288987083252	1
2	80738	11034.089514211969	0
2	80742	11034.165467785711	1
2	80744	11034.511490655047	2
2	80745	11034.72780572845	1
2	80748	11035.155118785923	0
2	80752	11035.25613987438	1
2	80753	11035.581881829615	0
2	80757	11035.619229004537	1
2	80759	11035.634938902415	2
2	80761	11035.780018199725	3
2	80762	11036.372924065435	2
2	80766	11036.57959570746	3
2	80767	11036.970034318635	2
2	80771	11036.996604706907	3
2	80772	11037.63002274128	2
2	80776	11037.96997384338	3
2	80777	11038.312035513887	2
2	80781	11038.604205505585	3
2	80782	11039.034572356039	2
2	80786	11039.039962799776	3
2	80787	11039.827001786915	2
2	80791	11040.332412652314	3
2	80792	11040.346098873609	2
2	80796	11040.66210427269	3
2	80797	11040.919886425215	2
2	80801	11041.229342177452	3
2	80802	11041.494838438447	2
2	80806	11041.941384886986	3
2	80807	11042.044180756326	2
2	80811	11042.046571832497	3
2	80812	11042.555089192868	2
2	80816	11042.641272983548	3
2	80817	11043.165428678862	2
2	80821	11043.499283504645	3
2	80822	11043.648783097913	2
2	80826	11044.315800544801	3
2	80827	11044.366153126521	2
2	80831	11045.01641315639	3
2	80832	11045.307631759563	2
2	80835	11045.898469578692	1
2	80839	11046.181414486548	2
2	80841	11046.275404144959	3
2	80842	11046.428314385315	2
2	80845	11047.220283339297	1
2	80849	11047.246466994186	2
2	80851	11047.354971918621	3
2	80853	11047.622532631575	4
2	80854	11048.011371005172	3
2	80858	11048.617479540914	4
2	80859	11048.999747181762	3
2	80863	11049.155398403694	4
2	80864	11049.560548721611	3
2	80867	11050.37161642968	2
2	80871	11050.389046712418	3
2	80873	11050.610274029949	4
2	80874	11051.233241057613	3
2	80877	11052.01633351411	2
2	80881	11052.458706556649	3
2	80882	11052.819333423286	2
2	80886	11052.847903777294	3
2	80887	11053.291283918296	2
2	80890	11054.121342508852	1
2	80893	11054.897227918062	0
2	80900	11055.968543663719	1
2	80901	11056.310794148485	0
2	80905	11056.641541225052	1
2	80908	11056.868106678671	0
2	80915	11057.899341227129	1
2	80917	11058.003233382833	2
2	80919	11058.040989511253	3
2	80920	11058.354724626367	2
2	80925	11059.281871261804	1
2	80928	11059.860066333816	0
2	80932	11060.354978428993	1
2	80933	11060.517978271127	0
2	80940	11061.341405685276	1
2	80945	11061.605312601042	0
2	80951	11061.650603500739	1
2	80953	11061.828371763822	2
2	80954	11062.548775624934	1
2	80958	11062.568020878064	2
2	80961	11063.45323035776	1
2	80965	11063.76739247319	2
2	80966	11064.116421604374	1
2	80970	11064.265140205689	2
2	80971	11064.642450064405	1
2	80975	11064.748067142033	2
2	80976	11065.266735775241	1
2	80980	11065.460553231366	2
2	80982	11065.884500099858	3
2	80983	11066.101845987545	2
2	80987	11066.165066956492	3
2	80990	11066.582141602583	2
2	80994	11067.151823644107	3
2	80995	11067.172142544839	2
2	80998	11068.1207889153	1
2	81002	11068.150729697469	2
2	81004	11068.358734862496	3
2	81005	11068.839036954272	2
2	81009	11068.985386389594	3
2	81010	11069.29107971148	2
2	81014	11069.341743813229	3
2	81015	11069.866368840806	2
2	81019	11070.240470204059	3
2	81020	11070.459409036845	2
2	81024	11070.769894741876	3
2	81025	11071.161151127549	2
2	81029	11071.504347720278	3
2	81030	11071.659628604896	2
2	81033	11072.232837022453	1
2	81039	11072.440625419737	2
2	81041	11072.651789671099	3
2	81042	11072.808715152865	2
2	81046	11072.915741584013	3
2	81047	11073.269442545794	2
2	81050	11073.829317489298	1
2	81054	11073.971590184696	2
2	81055	11074.439088340415	1
2	81058	11075.279621313684	0
2	81062	11075.503713221171	1
2	81063	11076.209927839445	0
2	81067	11076.217218459307	1
2	81068	11077.067989663718	0
2	81072	11077.684313714165	1
2	81073	11077.780567972999	0
2	81077	11078.280304226282	1
2	81078	11078.388986577824	0
2	81082	11078.63070121711	1
2	81083	11078.830604011597	0
2	81087	11079.277302075113	1
2	81088	11079.750933789074	0
2	81092	11079.820709304378	1
2	81093	11080.401326354438	0
2	81100	11081.154375892371	1
2	81101	11081.775533676411	0
2	81113	11083.832439903232	1
2	81115	11083.994644439849	2
2	81116	11084.2692338358	1
2	81119	11084.874969643759	0
2	81128	11085.557742481323	1
2	81130	11085.607018722916	2
2	81131	11086.166028433185	1
2	81136	11086.571359225534	0
2	81142	11087.219776401301	1
2	81143	11087.270388842685	0
2	81147	11087.278669853365	1
2	81148	11088.269849218413	0
2	81152	11088.851534106657	1
2	81153	11089.148438739296	0
2	81157	11089.35680873818	1
2	81159	11089.802001036143	2
2	81160	11089.889823829088	1
2	81164	11090.393332845796	2
2	81165	11090.833931712046	1
2	81169	11090.989492330677	2
2	81170	11091.591223980052	1
2	81173	11092.009425062345	0
2	81180	11092.828787552699	1
2	81182	11092.833318485816	2
2	81184	11092.938805436552	3
2	81185	11093.34941197744	2
2	81188	11094.120670630302	1
2	81192	11094.402692439809	2
2	81193	11094.524583418093	1
2	81199	11094.98526232868	2
2	81200	11095.270756208229	1
2	81204	11095.394969126828	2
2	81206	11095.81343960909	3
2	81207	11095.832927417693	2
2	81211	11096.186554559397	3
2	81212	11096.755088139915	2
2	81216	11097.099074528559	3
2	81217	11097.210355240231	2
2	81220	11097.617696748891	1
2	81224	11098.262652135949	2
2	81225	11098.382835491777	1
2	81229	11098.822766420077	2
2	81230	11098.834781002004	1
2	81234	11099.556983639812	2
2	81235	11099.831597170869	1
2	81239	11099.959880360728	2
2	81242	11100.261502281606	1
2	81246	11100.523894162979	2
2	81247	11101.129641834723	1
2	81251	11101.631848282769	2
2	81252	11101.684695368383	1
2	81256	11101.909035400825	2
2	81258	11102.117241860643	3
2	81259	11102.240602651408	2
2	81263	11102.329212103493	3
2	81264	11102.983354980622	2
2	81268	11103.133838850586	3
2	81269	11103.418858036895	2
2	81275	11103.994243628664	3
2	81276	11104.389762977448	2
2	81280	11104.557870279081	3
2	81281	11105.262202338765	2
2	81285	11105.403127297129	3
2	81286	11105.814547448729	2
2	81290	11106.194864598392	3
2	81291	11106.38926281499	2
2	81295	11106.777864247229	3
2	81296	11106.915422643612	2
2	81300	11107.340707917697	3
2	81302	11107.34833132969	4
2	81303	11107.432724118356	3
2	81307	11107.822510646253	4
2	81308	11107.976648137097	3
2	81312	11107.981607758225	4
2	81313	11108.377267327982	3
2	81317	11108.53927582181	4
2	81318	11109.249383455313	3
2	81322	11109.271374747342	4
2	81323	11109.87683697332	3
2	81327	11110.291519070489	4
2	81328	11110.421670040612	3
2	81332	11110.58283982694	4
2	81333	11110.969617996069	3
2	81337	11111.173638581599	4
2	81340	11111.72352592706	3
2	81344	11111.886321590917	4
2	81347	11112.127413621668	3
2	81351	11112.481062175395	4
2	81352	11113.003297833709	3
2	81356	11113.027511290153	4
2	81357	11113.549623088894	3
2	81360	11113.984502298833	2
2	81364	11114.286201867608	3
2	81365	11114.664742980647	2
2	81369	11115.078445274876	3
2	81370	11115.478890468582	2
2	81374	11115.482497387856	3
2	81375	11116.403957452561	2
2	81379	11117.000161069313	3
2	81380	11117.049054568011	2
2	81384	11117.708020760175	3
2	81385	11117.956475843286	2
2	81389	11118.01983929629	3
2	81390	11118.92387063292	2
2	81394	11119.058448198544	3
2	81395	11119.375545723393	2
2	81399	11119.386057333657	3
2	81400	11119.98696482422	2
2	81404	11120.382093712077	3
2	81405	11120.66334353395	2
2	81409	11120.731976503751	3
2	81410	11121.347120781273	2
2	81413	11122.136693487859	1
2	81417	11122.502272570854	2
2	81418	11123.024910269382	1
2	81422	11123.215160100494	2
2	81423	11123.782865768748	1
2	81427	11124.410841610627	2
2	81428	11124.716496558006	1
2	81432	11124.867387985444	2
2	81433	11125.352333266785	1
2	81437	11125.396678322676	2
2	81438	11126.316941244047	1
2	81442	11126.58453572629	2
2	81443	11126.940952240102	1
2	81447	11126.975992310286	2
2	81448	11127.852269204505	1
2	81453	11128.406508099459	0
2	81457	11128.571827511785	1
2	81459	11128.665962169986	2
2	81460	11129.166661519216	1
2	81464	11129.206836958229	2
2	81467	11130.080759240066	1
2	81471	11130.495105228846	2
2	81472	11130.825035358484	1
2	81476	11131.357389985941	2
2	81477	11131.399743640081	1
2	81480	11132.168432348625	0
2	81486	11133.045926011469	1
2	81487	11133.166908055668	0
2	81491	11133.653573731402	1
2	81492	11133.674855358464	0
2	81496	11134.115605874006	1
2	81497	11134.231374726615	0
2	81501	11134.817394635894	1
2	81502	11134.862224280539	0
2	81506	11135.032691413392	1
2	81508	11135.38316572714	2
2	81510	11135.523087279092	3
2	81511	11135.586546617265	2
2	81514	11136.026502605838	1
2	81518	11136.235363372477	2
2	81520	11136.423758985497	3
2	81522	11136.450455767683	4
2	81523	11136.782407545655	3
2	81527	11137.019915634351	4
2	81528	11137.565242872464	3
2	81531	11138.285101897719	2
2	81535	11138.52980198347	3
2	81536	11138.914644885047	2
2	81540	11139.124184131481	3
2	81541	11139.383638399264	2
2	81545	11139.702520667094	3
2	81546	11139.985033856735	2
2	81550	11140.518430967602	3
2	81551	11140.970822043188	2
2	81555	11141.861641597641	3
2	81556	11141.891947411915	2
2	81560	11141.919078071677	3
2	81561	11142.818073167169	2
2	81564	11143.293604874314	1
2	81568	11143.669441300108	2
2	81569	11144.025242030463	1
2	81573	11144.370997626066	2
2	81574	11144.47359054152	1
2	81578	11145.113188020634	2
2	81579	11145.428173442679	1
[...]
9	212037	28902.065584342208	0
9	212040	28902.358739248503	1
9	212042	28902.400557519278	0
9	212084	28907.895264160288	1
9	212086	28907.985353474439	0
9	212142	28916.005769531736	1
9	212147	28916.693126811161	2
9	212149	28917.091383872966	1
9	212151	28917.177598890826	0
9	212154	28917.520562289729	1
9	212156	28917.555153155272	0
9	212209	28925.350285475356	1
9	212212	28925.91347827984	2
9	212217	28926.772829431049	1
9	212221	28926.824168587091	0
9	212272	28932.415069879386	1
9	212274	28932.521229488484	0
9	212284	28933.579670542785	1
9	212286	28933.8126703731	0
9	212330	28940.580592987433	1
9	212332	28940.81475118854	0
9	212335	28941.266534340314	1
9	212337	28941.729005715606	0
9	212340	28942.074148574357	1
9	212342	28942.181278836381	0
9	212364	28945.152594855128	1
9	212367	28945.638130547552	2
9	212369	28945.894905235673	1
9	212371	28946.148116535718	0
9	212379	28946.901768783693	1
9	212386	28947.627105048652	2
9	212388	28947.832728993492	1
9	212390	28947.933792685345	0
9	212415	28951.187727466066	1
9	212417	28951.40563554582	0
9	212524	28965.419147968645	1
9	212526	28965.444849829206	0
9	212552	28969.596401729368	1
9	212555	28970.553783052255	2
9	212557	28970.571156731293	1
9	212559	28970.808456615365	0
9	212572	28972.726336127034	1
9	212576	28973.282162958961	0
9	212579	28973.397437287801	1
9	212581	28973.485493278347	0
9	212614	28978.47607780055	1
9	212616	28978.616845028085	0
9	212629	28980.8440269416	1
9	212631	28981.259346473518	0
9	212641	28982.384180165342	1
9	212643	28982.741003737657	0
9	212646	28983.07366881648	1
9	212650	28983.565459348398	0
9	212676	28987.93095120348	1
9	212678	28988.098775036325	0
9	212802	29004.360658080159	1
9	212804	29005.155214844456	0
9	212807	29005.193058460187	1
9	212809	29005.393780290677	0
9	212834	29008.873300736751	1
9	212837	29009.40892225367	2
9	212839	29009.505253213932	1
9	212844	29009.893844774812	2
9	212846	29010.117934488559	1
9	212851	29010.86441215028	2
9	212853	29010.999917114087	1
9	212856	29011.663927318137	2
9	212861	29012.138496988434	3
9	212863	29012.436195590683	2
9	212868	29012.837469837845	1
9	212872	29013.10062689806	0
9	212875	29013.139690046832	1
9	212877	29013.618163619802	0
9	212907	29017.591961362847	1
9	212909	29017.78465757689	0
9	212983	29026.440281294223	1
9	212986	29027.400361752819	2
9	212988	29027.797154604367	1
9	212991	29027.817141021538	2
9	212993	29027.913201225706	1
9	212996	29028.297060385376	2
9	212998	29028.374444106756	1
9	213000	29028.470196767848	0
9	213026	29032.126188436646	1
9	213028	29032.168481963915	0
9	213053	29035.548049466155	1
9	213055	29036.31393086701	0
9	213058	29036.519554184127	1
9	213060	29036.708401034826	0
9	213068	29037.835655000043	1
9	213070	29038.728079708616	0
9	213073	29038.794561250257	1
9	213075	29038.82908210076	0
9	213078	29039.323599550436	1
9	213080	29039.637935147871	0
9	213083	29040.283320567599	1
9	213085	29040.538831735225	0
9	213088	29040.808505953597	1
9	213090	29041.116823114058	0
9	213152	29049.262690766929	1
9	213154	29049.536505103216	0
9	213162	29050.496155000739	1
9	213164	29050.843114752532	0
9	213184	29053.511100459034	1
9	213186	29053.916994707499	0
9	213194	29054.493267421034	1
9	213196	29054.81337984564	0
9	213222	29057.983116016053	1
9	213224	29058.423141095216	0
9	213266	29065.940079914342	1
9	213268	29066.135658193255	0
9	213271	29066.893962272798	1
9	213273	29067.251264691827	0
9	213276	29067.370699484675	1
9	213278	29067.605067868504	0
9	213291	29069.58265310906	1
9	213294	29070.110286512022	2
9	213296	29070.141672454431	1
9	213298	29070.297687515357	0
9	213306	29071.079889320518	1
9	213308	29071.32474669448	0
9	213311	29071.68480622003	1
9	213313	29071.966924396533	0
9	213326	29074.074551862554	1
9	213328	29074.3176031325	0
9	213336	29075.606593914685	1
9	213338	29075.912036555851	0
9	213343	29076.22800030362	1
9	213345	29076.557421701803	0
9	213348	29077.0495574395	1
9	213350	29077.617056109328	0
9	213398	29083.770395700851	1
9	213400	29084.302502416057	0
9	213403	29084.3093048564	1
9	213407	29084.58433003695	0
9	213410	29084.905474910823	1
9	213412	29085.164672316223	0
9	213451	29090.2696884245	1
9	213456	29090.819575289063	2
9	213458	29090.917064226265	1
9	213461	29091.628451264122	2
9	213463	29091.64637307125	1
9	213468	29092.586616574212	2
9	213470	29092.735574370246	1
9	213472	29092.758488053912	0
9	213475	29093.017366857811	1
9	213477	29093.027969229796	0
9	213507	29096.458642860114	1
9	213509	29096.734814473524	0
9	213568	29106.703736206922	1
9	213570	29106.830782061572	0
9	213585	29108.468543490334	1
9	213587	29109.01800597078	0
9	213590	29109.101792793753	1
9	213597	29109.740936345931	0
9	213615	29112.269777628719	1
9	213621	29113.293121348168	2
9	213624	29113.989175515562	3
9	213628	29114.802894522192	2
9	213635	29115.228867892497	1
9	213638	29115.397706686739	2
9	213640	29115.461757938768	1
9	213642	29115.629474198069	0
9	213645	29115.896600083063	1
9	213647	29116.118006848622	0
9	213672	29120.81860807779	1
9	213674	29120.894823739357	0
9	213758	29132.572388899548	1
9	213760	29133.024201830465	0
9	213763	29133.563304331794	1
9	213765	29133.694976883419	0
9	213834	29142.442501700705	1
9	213836	29142.626121725398	0
9	213859	29145.417441763672	1
9	213862	29146.364570770496	2
9	213864	29146.397913137673	1
9	213866	29146.802738085214	0
9	213869	29146.900530224097	1
9	213871	29147.424129881932	0
9	213874	29147.74323393287	1
9	213876	29147.816314822201	0
9	213924	29155.197665155063	1
9	213927	29155.864015643102	2
9	213929	29155.867389501895	1
9	213931	29156.135881326488	0
9	213939	29157.093497298182	1
9	213941	29157.118603228192	0
9	213979	29163.296535458684	1
9	213981	29163.377031774595	0
9	213984	29163.732482733194	1
9	213986	29164.233100655976	0
9	213989	29164.675110690704	1
9	213991	29165.129268985029	0
9	214004	29166.533461645188	1
9	214007	29166.960033363559	2
9	214009	29167.083141126281	1
9	214012	29167.669763547684	2
9	214014	29168.159477335637	1
9	214017	29168.251234794118	2
9	214019	29168.755718829661	1
9	214021	29169.004991892969	0
9	214024	29169.08726058238	1
9	214026	29169.608715454988	0
9	214032	29170.790319672914	1
9	214034	29171.567111472372	0
9	214037	29171.572262099886	1
9	214041	29171.781032304008	0
9	214049	29173.049998272572	1
9	214051	29173.12558839082	0
9	214072	29176.444238373812	1
9	214074	29176.710746935304	0
9	214077	29176.994617149502	1
9	214079	29177.084133527231	0
9	214082	29177.491352137027	1
9	214084	29178.146392342743	0
9	214087	29178.205442234303	1
9	214091	29179.130787440541	0
9	214094	29179.182017830049	1
9	214097	29179.687328365201	2
9	214101	29179.826159705101	1
9	214103	29179.977953032658	0
9	214173	29189.88947188653	1
9	214175	29189.997776722291	0
9	214210	29194.891522873183	1
9	214212	29195.004058088347	0
9	214239	29198.695731166228	1
9	214241	29198.950264633409	0
9	214267	29203.275424555074	1
9	214269	29203.584018985386	0
9	214272	29203.88875741329	1
9	214274	29203.94544330637	0
9	214277	29204.393429277036	1
9	214279	29205.147506743554	0
9	214290	29206.665045589804	1
9	214294	29207.142666566868	0
9	214297	29207.456668751165	1
9	214299	29207.869503245461	0
9	214302	29208.085942051736	1
9	214304	29208.393888899432	0
9	214327	29211.432884115948	1
9	214329	29212.260595529904	0
9	214332	29212.314619079268	1
9	214334	29212.4601669542	0
9	214352	29215.682136432583	1
9	214354	29216.20994007654	0
9	214357	29216.268950415718	1
9	214359	29216.376088322205	0
9	214371	29217.954401733902	1
9	214373	29218.17400585112	0
9	214376	29218.614632696555	1
9	214378	29218.74475694732	0
9	214416	29224.374594759184	1
9	214418	29224.432274457942	0
9	214421	29225.241569008294	1
9	214423	29225.361168034082	0
9	214431	29226.918472201505	1
9	214433	29226.936951078695	0
9	214476	29233.195350276108	1
9	214479	29234.021038942306	2
9	214481	29234.226517566767	1
9	214485	29234.362046794666	0
9	214503	29236.839822222094	1
9	214506	29237.434177698974	2
9	214508	29237.609525555857	1
9	214510	29237.832775544068	0
9	214522	29238.570656025164	1
9	214524	29238.76154229511	0
9	214597	29248.897130004024	1
9	214599	29249.374419062434	0
9	214630	29253.686894967487	1
9	214632	29253.767993039123	0
9	214635	29254.161395268315	1
9	214637	29254.456862351013	0
9	214640	29254.642389403782	1
9	214642	29254.827784439603	0
9	214673	29259.404362126427	1
9	214675	29259.585819977289	0
9	214683	29261.100089905445	1
9	214686	29261.581582460167	2
9	214688	29261.685076100654	1
9	214691	29262.034581598813	2
9	214694	29262.437876507208	3
9	214696	29262.674357727435	2
9	214699	29262.943744741926	3
9	214701	29263.057981555044	2
9	214703	29263.375868289932	1
9	214708	29263.851263095425	2
9	214710	29264.399001376195	1
9	214714	29264.572134928358	0
9	214750	29269.804008006059	1
9	214753	29270.764944755972	2
9	214755	29270.932577601763	1
9	214757	29270.969718011874	0
9	214821	29279.480311791354	1
9	214825	29279.942202268054	0
9	214828	29280.369368933688	1
9	214830	29280.393422826587	0
9	214914	29291.986110389034	1
9	214917	29292.445231502537	2
9	214919	29292.524376657698	1
9	214922	29292.967974838928	2
9	214924	29292.980080406164	1
9	214926	29293.315244781934	0
9	214946	29295.809174380206	1
9	214948	29295.829043154376	0
9	215003	29303.804432635322	1
9	215005	29303.928286001041	0
9	215018	29305.983542192761	1
9	215020	29306.191252273573	0
9	215048	29309.842559955955	1
9	215050	29310.009114300829	0
9	215095	29316.719751756253	1
9	215098	29317.185955351346	2
9	215100	29317.598475143271	1
9	215103	29317.704717568016	2
9	215107	29317.905402574875	1
9	215112	29318.112382334691	2
9	215114	29318.58261407529	1
9	215117	29318.638448957108	2
9	215119	29318.917890709895	1
9	215121	29319.170658689118	0
9	215124	29319.226707574805	1
9	215126	29319.363383543799	0
9	215129	29319.970661780784	1
9	215131	29319.975677432185	0
9	215158	29324.086167929355	1
9	215160	29324.760500471838	0
9	215210	29331.575601458956	1
9	215213	29332.027575621183	2
9	215215	29332.24258520632	1
9	215219	29332.693965243489	0
9	215239	29334.47129180663	1
9	215241	29334.476520414737	0
9	215330	29347.119690119648	1
9	215332	29347.47866264436	0
9	215335	29347.748515029052	1
9	215338	29348.413267965322	2
9	215340	29348.532393956301	1
9	215342	29348.584760962468	0
9	215355	29350.711235267423	1
9	215360	29351.311941420786	2
9	215362	29351.385674419276	1
9	215364	29351.4676767959	0
9	215381	29353.340733050542	1
9	215383	29353.504769658547	0
9	215406	29356.996215945656	1
9	215409	29357.580058284836	2
9	215411	29357.952885173391	1
9	215413	29357.982486165593	0
9	215416	29358.272047588077	1
9	215418	29358.549095105646	0
9	215421	29358.794611033319	1
9	215424	29359.209578336576	2
9	215426	29359.561132668206	1
9	215429	29359.717012622893	2
9	215431	29359.725317408949	1
9	215433	29359.875245252795	0
9	215473	29365.135726186667	1
9	215475	29365.429979942162	0
9	215483	29366.505719209962	1
9	215487	29366.571611603036	0
9	215522	29371.101208041315	1
9	215524	29371.24233893406	0
9	215537	29373.050426564911	1
9	215539	29373.339087130909	0
9	215569	29376.502127661124	1
9	215571	29376.580553677115	0
9	215650	29386.899100915329	1
9	215652	29387.222635618678	0
9	215685	29391.858123791252	1
9	215687	29391.869827304649	0
9	215727	29396.485994212271	1
9	215729	29396.518669550091	0
9	215732	29397.0661241033	1
9	215734	29397.724003279478	0
9	215742	29399.021682148369	1
9	215744	29399.387115353188	0
9	215757	29401.580746411102	1
9	215759	29401.649164215647	0
9	215762	29402.558310157934	1
9	215764	29402.84177393043	0
9	215770	29403.962658669882	1
9	215772	29404.311707098525	0
9	215780	29405.687117625902	1
9	215782	29405.868046981109	0
9	215793	29408.109662196588	1
9	215795	29408.473402673756	0
9	215798	29408.7355970065	1
9	215800	29409.39354103117	0
9	215861	29417.585045426933	1
9	215864	29418.068433398323	2
9	215866	29418.189773011906	1
9	215869	29418.671354035836	2
9	215871	29418.725156723906	1
9	215873	29419.107964093959	0
9	215876	29419.378819819203	1
9	215878	29419.394194831157	0
9	215981	29433.966189835723	1
9	215989	29434.962954897005	2
9	215996	29435.828565468024	3
9	215998	29436.022156754297	2
9	216001	29436.323723534578	3
9	216006	29437.023880584202	4
9	216008	29437.441257705522	3
9	216011	29437.810263982079	4
9	216013	29438.18207976783	3
9	216016	29438.631186413289	4
9	216018	29438.785795922316	3
9	216020	29438.874887511558	2
9	216022	29439.053349463451	1
9	216024	29439.125617592692	0
9	216027	29439.387087688957	1
9	216029	29439.723266358719	0
9	216035	29440.795915439249	1
9	216037	29440.829237152672	0
9	216065	29444.548833641725	1
9	216067	29444.685131399932	0
9	216110	29450.43756710709	1
9	216112	29450.930224188651	0
9	216115	29451.224949533948	1
9	216117	29451.463267877664	0
9	216137	29454.357931490605	1
9	216139	29454.394894750416	0
9	216144	29454.957262095287	1
9	216146	29455.263021547845	0
9	216212	29465.176418074629	1
9	216215	29465.786401563314	2
9	216217	29465.876450236943	1
9	216219	29466.262222053951	0
9	216260	29472.239212411492	1
9	216262	29472.539321781058	0
9	216302	29477.772589020655	1
9	216305	29478.222118000119	2
9	216309	29478.605366267537	1
9	216312	29479.145121050385	2
9	216314	29479.333377085616	1
9	216317	29479.551332471744	2
9	216319	29479.644657919768	1
9	216321	29479.714456774139	0
9	216374	29487.110215403457	1
9	216377	29487.983565136828	2
9	216379	29488.590090435666	1
9	216384	29489.450496942823	0
9	216387	29489.714864067398	1
9	216389	29490.081378532363	0
9	216392	29490.1231297471	1
9	216396	29490.155019076698	0
9	216426	29494.369638236929	1
9	216431	29495.160759525551	2
9	216434	29495.925834316053	3
9	216436	29496.25329648253	2
9	216439	29496.7745384382	3
9	216442	29497.336310168534	4
9	216444	29497.56702245873	3
9	216446	29497.69666058248	2
9	216449	29497.802202358601	3
9	216451	29498.265118831562	2
9	216454	29498.5351809238	3
9	216456	29498.821541324941	2
9	216461	29499.308473712842	1
9	216463	29499.320729780562	0
9	216476	29500.837442433826	1
9	216479	29501.565138205086	2
9	216481	29502.054834271494	1
9	216484	29502.213091518023	2
9	216486	29502.264266465027	1
9	216488	29502.588653049489	0
9	216494	29503.874609148773	1
9	216496	29503.928818876037	0
9	216526	29508.387304639016	1
9	216528	29508.888480758531	0
9	216531	29509.281285039839	1
9	216533	29509.315856709535	0
9	216614	29519.26178183592	1
9	216616	29519.717287989594	0
9	216619	29520.136151470748	1
9	216622	29520.705113681118	2
9	216624	29520.873864915649	1
9	216627	29521.299420300164	2
9	216629	29521.39884863695	1
9	216631	29521.679275278436	0
9	216634	29521.853334197161	1
9	216636	29522.180258239994	0
9	216639	29522.42229927987	1
9	216641	29522.453584830124	0
9	216644	29523.322211453264	1
9	216649	29523.808894145714	2
9	216651	29523.870585058039	1
9	216653	29524.428666707847	0
9	216661	29525.285281605219	1
9	216663	29525.346884525839	0
9	216681	29528.11239213789	1
9	216683	29528.213464177279	0
9	216696	29530.090044680043	1
9	216698	29530.096454505007	0
9	216706	29531.042569254377	1
9	216708	29531.185316187857	0
9	216718	29532.498778979891	1
9	216720	29532.934134344802	0
9	216789	29542.339833997927	1
9	216791	29542.554142650719	0
9	216824	29547.561886616555	1
9	216826	29547.866235215201	0
9	216839	29549.933027575436	1
9	216841	29550.798636347743	0
9	216844	29550.878494696171	1
9	216847	29551.477198581762	2
9	216849	29551.510454117961	1
9	216851	29552.056195566892	0
9	216899	29558.611438903111	1
9	216902	29559.15270927948	2
9	216904	29559.180240443211	1
9	216906	29559.181016879682	0
9	217156	29593.698267883616	1
9	217161	29594.516965258271	0
9	217196	29599.625186141855	1
9	217198	29600.039694957286	0
9	217246	29605.531745569357	1
9	217248	29605.634820322705	0
9	217276	29609.764058886511	1
9	217278	29610.151682083091	0
9	217301	29613.573042078359	1
9	217303	29613.908741878849	0
9	217324	29617.563883071853	1
9	217326	29617.577186173726	0
9	217472	29638.168158829908	1
9	217474	29638.421236135786	0
9	217499	29641.459145318389	1
9	217501	29641.651821605874	0
9	217703	29669.935872366975	1
9	217705	29670.50824945952	0
9	217797	29682.71768293143	1
9	217802	29683.296186592554	0
9	217880	29694.849316090062	1
9	217882	29695.208479023833	0
9	217924	29701.214349094728	1
9	217926	29701.284679085931	0
9	217939	29703.217340967242	1
9	217941	29703.28424216192	0
9	217966	29706.678776085	1
9	217973	29707.559193382034	0
9	218011	29712.066551077408	1
9	218013	29712.167991105078	0
9	218026	29714.234801955004	1
9	218031	29715.081669468145	0
9	218370	29763.319687693933	1
9	218372	29763.478715225342	0
9	218390	29766.238041064138	1
9	218398	29767.302429204339	0
9	218447	29772.832507858932	1
9	218449	29772.969020824483	0
9	218514	29780.979612478283	1
9	218516	29781.155026862121	0
9	218551	29786.083896945039	1
9	218553	29786.389333747716	0
9	218601	29793.065307351335	1
9	218603	29793.073827796793	0
9	218621	29795.337099308374	1
9	218623	29795.516370311355	0
9	218634	29797.950639667029	1
9	218636	29798.027179390628	0
9	218654	29801.152912998332	1
9	218656	29801.9675243493	0
9	218659	29802.096124333229	1
9	218662	29802.607826183543	2
9	218664	29802.670569622885	1
9	218666	29802.979344880711	0
9	218674	29803.573650724154	1
9	218676	29803.651907374484	0
9	218689	29805.210112685284	1
9	218692	29806.012317158554	2
9	218695	29806.447701829944	3
9	218697	29806.779899011495	2
9	218700	29806.924263634432	3
9	218702	29807.197347199827	2
9	218704	29807.519238224285	1
9	218707	29807.709797994273	2
9	218709	29807.859457679007	1
9	218712	29808.163412566196	2
9	218716	29808.884440274878	1
9	218718	29809.079391643439	0
9	218721	29809.101003498623	1
9	218723	29809.134868739974	0
9	218781	29816.942248520806	1
9	218783	29817.433636904292	0
9	218825	29822.416920334839	1
9	218827	29822.448565252051	0
9	218847	29825.076650009204	1
9	218849	29825.190339072579	0
9	218852	29825.659598137338	1
9	218856	29825.983595752066	0
9	218941	29837.710384035197	1
9	218943	29837.940574166584	0
9	218946	29838.125369254912	1
9	218948	29838.592222029762	0
9	218953	29838.695662082213	1
9	218955	29839.387694191465	0
9	218958	29839.618612889613	1
9	218960	29839.930648365489	0
9	218968	29841.426937352487	1
9	218971	29841.997084314835	2
9	218973	29842.099097309079	1
9	218976	29842.91337620727	2
9	218978	29843.259016737054	1
9	218981	29843.518430430575	2
9	218983	29843.536726697793	1
9	218986	29844.008506068534	2
9	218988	29844.121693990701	1
9	218990	29844.357504716189	0
9	218993	29844.774759428662	1
9	218995	29844.808289202763	0
9	219023	29849.291533901117	1
9	219028	29849.942200987919	2
9	219030	29850.148763593784	1
9	219033	29850.82091016955	2
9	219035	29851.042785161421	1
9	219037	29851.114430165742	0
9	219040	29851.305202723893	1
9	219042	29851.604499664166	0
9	219064	29854.445631215853	1
9	219066	29854.684051394852	0
9	219074	29855.70880481586	1
9	219076	29856.094448979298	0
9	219149	29866.184462590135	1
9	219151	29866.281204600201	0
9	219159	29867.495109899427	1
9	219161	29867.532848746246	0
9	219164	29867.923188765711	1
9	219166	29867.995839437874	0
9	219186	29871.216356043416	1
9	219189	29871.718180010133	2
9	219192	29872.359156259979	3
9	219196	29872.83279167661	2
9	219201	29873.323292343054	1
9	219203	29873.728187786208	0
9	219272	29882.303487349899	1
9	219274	29882.621063876427	0
9	219277	29883.161589867614	1
9	219280	29883.605889739089	2
9	219282	29883.741051323069	1
9	219284	29884.152736841942	0
9	219287	29884.594136763124	1
9	219289	29884.928559528215	0
9	219309	29887.094976429774	1
9	219311	29887.208687639644	0
9	219337	29891.111377427161	1
9	219339	29891.187193783277	0
9	219352	29893.059261583343	1
9	219354	29893.591000325604	0
9	219357	29893.671326787948	1
9	219359	29894.284842970212	0
9	219382	29897.021576617697	1
9	219386	29897.17427275907	0
9	219475	29909.364527588983	1
9	219480	29909.991752991539	2
9	219482	29910.014610738589	1
9	219487	29910.933235179011	0
9	219622	29929.534699864914	1
9	219624	29930.443057190846	0
9	219630	29931.219793052036	1
9	219632	29931.261094915311	0
9	219645	29933.262731027925	1
9	219647	29933.48342853846	0
9	219690	29940.206487980341	1
9	219693	29940.680635351497	2
9	219698	29941.53322628658	1
9	219705	29942.542996891791	0
9	219708	29942.63512389571	1
9	219710	29942.919223745789	0

