version 2
run First_exit_9-2-20191114-11:42:26-8851
attr configname First_exit_9
attr datetime 20191114-11:42:26
attr experiment First_exit_9
attr inifile omnetpp.ini
attr iterationvars ""
attr iterationvarsf ""
attr measurement ""
attr network ResponseTimeNetwork
attr processid 8851
attr repetition 2
attr replication #2
attr resultdir results
attr runnumber 2
attr seedset 2
param **.Source.interArrivalTime exponential(4s)
param **.jobPriority bernoulli(0.4)
param **.PS.serviceTimeU1 "uniform(0.4s, 1.0s)"
param **.PS.serviceTimeU2 "uniform(1s, 1.2s)"
param **.SS1.serviceTime exponential(0.4s)
param **.SS2.serviceTime exponential(0.8s)
param **.PS.exitProbability bernoulli(0.9)

vector 0 ResponseTimeNetwork.QueueU1 queueLength:vector ETV
attr interpolationmode sample-hold
attr title "queue length, vector"
vector 1 ResponseTimeNetwork.QueueU2 queueLength:vector ETV
attr interpolationmode sample-hold
attr title "queue length, vector"
vector 2 ResponseTimeNetwork.sink lifeTimeU1:vector ETV
attr interpolationmode none
attr title "lifetime of arrived jobs U1, vector"
attr unit s
vector 3 ResponseTimeNetwork.sink totalServiceTimeU1:vector ETV
attr interpolationmode none
attr title "the total time spent  by arrived jobs U1, vector"
attr unit s
vector 4 ResponseTimeNetwork.sink lifeTime:vector ETV
attr interpolationmode none
attr title "lifetime of arrived jobs, vector"
attr unit s
vector 5 ResponseTimeNetwork.sink totalServiceTime:vector ETV
attr interpolationmode none
attr title "the total time spent  by arrived jobs, vector"
attr unit s
vector 6 ResponseTimeNetwork.SS1 queueLength:vector ETV
attr interpolationmode sample-hold
attr title "queue length, vector"
vector 7 ResponseTimeNetwork.SS2 queueLength:vector ETV
attr interpolationmode sample-hold
attr title "queue length, vector"
vector 8 ResponseTimeNetwork.sink lifeTimeU2:vector ETV
attr interpolationmode none
attr title "lifetime of arrived jobs U2, vector"
attr unit s
vector 9 ResponseTimeNetwork.sink totalServiceTimeU2:vector ETV
attr interpolationmode none
attr title "the total time spent  by arrived jobs U2, vector"
attr unit s
0	73765	10000.238040338682	5
0	73769	10000.281604005182	6
0	73770	10000.845934854813	5
0	73774	10000.850826885442	6
0	73775	10001.582978877604	5
0	73779	10001.760963183954	6
0	73780	10002.274792297922	5
0	73784	10002.433776506953	6
0	73785	10003.15566055569	5
0	73789	10003.830581875358	6
0	73790	10004.075635755613	5
0	73794	10004.17765215691	6
0	73797	10004.988454043066	5
0	73801	10005.426944798921	6
0	73802	10005.430839584527	5
0	73806	10005.688712620827	6
0	73807	10006.157788940604	5
0	73811	10006.606283065955	6
0	73812	10006.666084981282	5
0	73816	10006.985366820608	6
0	73817	10007.593130874206	5
0	73820	10008.358452075478	4
0	73824	10008.565601362827	5
0	73825	10009.33040705029	4
0	73829	10009.366419731447	5
0	73830	10010.131509783436	4
0	73833	10010.652491780781	3
0	73837	10011.226996208573	4
0	73839	10011.573880276533	5
0	73840	10011.576603025096	4
0	73844	10011.674089505425	5
0	73845	10012.443265039092	4
0	73849	10012.468003710328	5
0	73850	10013.046100153392	4
0	73854	10013.439666188197	5
0	73855	10013.64718947568	4
0	73859	10014.08694420491	5
0	73860	10014.336607085439	4
0	73864	10014.714910317965	5
0	73865	10015.046077497341	4
0	73869	10015.310514624917	5
0	73870	10015.555975168143	4
0	73874	10016.104342985972	5
0	73875	10016.364971667147	4
0	73879	10016.664063279198	5
0	73882	10017.268431497543	4
0	73886	10017.292634476712	5
0	73888	10017.316480954521	6
0	73889	10018.151110447562	5
0	73893	10018.375018168476	6
0	73894	10018.728238740927	5
0	73898	10018.989155515443	6
0	73900	10019.279228626753	7
0	73901	10019.43886408018	6
0	73904	10020.312235855582	5
0	73908	10020.589690003421	6
0	73909	10021.191126433193	5
0	73912	10021.974075232391	4
0	73916	10022.402936784127	5
0	73917	10022.563451000341	4
0	73920	10023.115700388831	3
0	73924	10023.193142621479	4
0	73925	10023.739306155491	3
0	73929	10023.826396886204	4
0	73930	10024.463867538787	3
0	73934	10024.585125496989	4
0	73935	10025.24321831315	3
0	73939	10025.700175316431	4
0	73940	10025.716642526111	3
0	73943	10026.626551855488	2
0	73946	10027.325796234461	1
0	73949	10027.936165800591	0
0	73953	10028.543402976953	1
0	73956	10028.840724992326	0
0	73960	10029.271837023812	1
0	73961	10029.274868553218	0
0	73965	10029.746567959135	1
0	73966	10030.115358736173	0
0	73970	10030.245046095415	1
0	73973	10031.06023934399	0
0	73977	10031.307725657462	1
0	73978	10031.911730549943	0
0	73984	10032.27821764037	1
0	73985	10032.604300844662	0
0	73989	10032.945232459708	1
0	73990	10033.564466235966	0
0	73997	10034.018698409597	1
0	73998	10034.92203620462	0
0	74004	10035.509661501758	1
0	74005	10035.718686464934	0
0	74100	10052.971114064728	1
0	74101	10053.070804714545	0
0	74114	10054.542945745387	1
0	74115	10054.638585412263	0
0	74125	10055.737479017651	1
0	74126	10056.330358054296	0
0	74132	10056.462953409932	1
0	74137	10057.227441412623	0
0	74141	10057.463254424149	1
0	74142	10057.771517337712	0
0	74146	10057.818538704882	1
0	74148	10057.963653333528	2
0	74149	10058.411494018922	1
0	74153	10058.423378999116	2
0	74154	10059.157396483321	1
0	74158	10059.277075474833	2
0	74159	10059.923181875788	1
0	74163	10060.476527455329	2
0	74164	10060.560344136592	1
0	74170	10060.861489527472	2
0	74171	10061.256342456343	1
0	74178	10061.873771456622	0
0	74184	10062.380209555342	1
0	74185	10062.434881238865	0
0	74189	10062.513832169142	1
0	74191	10062.588045687684	2
0	74196	10062.910916750498	1
0	74200	10063.036009016187	2
0	74203	10063.724649724403	1
0	74207	10063.798484058637	2
0	74208	10064.232953613476	1
0	74212	10064.234074591879	2
0	74219	10064.926288743449	1
0	74224	10065.501508165096	0
0	74228	10065.674329037762	1
0	74230	10065.996544008235	2
0	74231	10066.132356455728	1
0	74235	10066.159279736556	2
0	74236	10066.691094320865	1
0	74239	10067.324227146145	0
0	74243	10067.459648236092	1
0	74245	10067.563488299849	2
0	74247	10067.734113664722	3
0	74248	10067.95506347594	2
0	74252	10068.020705524697	3
0	74253	10068.849488265013	2
0	74257	10069.497860184601	3
0	74258	10069.625674261285	2
0	74262	10069.868543161834	3
0	74263	10070.381874670174	2
0	74267	10070.447468465522	3
0	74270	10071.338233262433	2
0	74273	10072.170252467731	1
0	74277	10072.309093074584	2
0	74278	10072.860857682388	1
0	74281	10073.30567302107	0
0	74285	10073.889389351636	1
0	74286	10074.273372705086	0
0	74290	10074.56920977946	1
0	74291	10075.124501340502	0
0	74295	10075.207188729496	1
0	74296	10076.034280933944	0
0	74300	10076.525867873318	1
0	74301	10076.922498225506	0
0	74305	10077.0556236727	1
0	74306	10077.556032851284	0
0	74313	10078.545628224698	1
0	74314	10078.860489509014	0
0	74318	10079.007058656398	1
0	74321	10079.818644572647	0
0	74328	10080.885490682427	1
0	74330	10080.937897860333	2
0	74331	10081.248068890852	1
0	74334	10081.713610035499	0
0	74343	10082.767277680848	1
0	74345	10083.265137742033	2
0	74348	10083.33388553233	1
0	74354	10084.254914179997	2
0	74355	10084.299245556995	1
0	74360	10084.807644629564	0
0	74364	10084.862760155048	1
0	74366	10084.954751294573	2
0	74369	10085.533348449638	1
0	74372	10086.198039414447	0
0	74376	10086.221679588076	1
0	74378	10086.405077615291	2
0	74379	10086.966639313793	1
0	74383	10087.268791666492	2
0	74384	10087.383676540192	1
0	74388	10087.384183845918	2
0	74389	10088.345323541147	1
0	74392	10089.047017611648	0
0	74399	10090.42793520493	1
0	74401	10090.535025739214	2
0	74402	10090.694197590222	1
0	74405	10091.438387423513	0
0	74409	10091.501856352794	1
0	74410	10092.333659729866	0
0	74414	10092.810832775104	1
0	74415	10092.892878595685	0
0	74421	10093.49836286021	1
0	74422	10093.824617638152	0
0	74432	10095.046671509132	1
0	74435	10095.255825890873	0
0	74442	10096.245981372379	1
0	74443	10096.699878004884	0
0	74449	10097.332446252657	1
0	74450	10097.39092463459	0
0	74454	10097.561427225689	1
0	74457	10097.979513320458	0
0	74461	10098.088833606953	1
0	74462	10098.74600233025	0
0	74466	10099.251892318295	1
0	74467	10099.36380591415	0
0	74474	10099.995421721907	1
0	74477	10100.834874634204	0
0	74481	10100.848702209974	1
0	74484	10101.322323440427	0
0	74490	10101.906580673135	1
0	74491	10102.18250463674	0
0	74498	10102.955193137781	1
0	74500	10103.030510980588	2
0	74501	10103.942498605737	1
0	74506	10104.605053461661	0
0	74510	10104.687604168556	1
0	74511	10105.35415776753	0
0	74518	10106.077857981628	1
0	74520	10106.488718286852	2
0	74521	10106.562179837461	1
0	74524	10106.970679329654	0
0	74528	10107.363439647443	1
0	74529	10107.944479977611	0
0	74533	10108.357089274018	1
0	74534	10108.604299561904	0
0	74538	10108.752485978478	1
0	74539	10109.127559332215	0
0	74546	10109.69928187615	1
0	74548	10109.707619523499	2
0	74551	10110.556088028281	1
0	74554	10111.314318699521	0
0	74558	10111.687767905958	1
0	74559	10112.297742744899	0
0	74571	10114.104221067295	1
0	74572	10114.636937903185	0
0	74581	10115.726843116352	1
0	74582	10116.332499915399	0
0	74596	10118.301638639888	1
0	74597	10118.474065430128	0
0	74606	10119.561546215612	1
0	74607	10120.144943120974	0
0	74616	10121.655234528849	1
0	74617	10121.893518761909	0
0	74621	10122.524263956503	1
0	74624	10122.886335951034	0
0	74628	10123.1918135141	1
0	74629	10123.442465877524	0
0	74636	10124.233458971198	1
0	74637	10124.634957140722	0
0	74646	10125.582474679232	1
0	74649	10126.421791222497	0
0	74658	10127.445552061076	1
0	74661	10127.984146496738	0
0	74665	10128.272498901267	1
0	74668	10128.800652145958	0
0	74675	10129.895258978838	1
0	74676	10130.248910854562	0
0	74683	10131.210922902632	1
0	74684	10131.28146447287	0
0	74693	10131.898489568375	1
0	74694	10132.157879084852	0
0	74703	10133.305590289891	1
0	74704	10133.461707902412	0
0	74716	10135.32287758448	1
0	74717	10135.852771659141	0
0	74721	10135.993515163719	1
0	74722	10136.818173191828	0
0	74726	10136.820364396638	1
0	74729	10137.691495318004	0
0	74739	10139.105316941418	1
0	74743	10139.275596974367	2
0	74744	10139.366648495096	1
0	74749	10140.269371227772	0
0	74756	10141.191591227451	1
0	74757	10141.500003444069	0
0	74766	10142.865087985137	1
0	74767	10143.210515874615	0
0	74771	10143.342413551381	1
0	74772	10143.792430359442	0
0	74781	10144.605409484247	1
0	74782	10145.236872301381	0
0	74791	10145.892198228215	1
0	74792	10146.342333974074	0
0	74801	10147.412670644228	1
0	74802	10147.479271418452	0
0	74809	10148.592962783041	1
0	74812	10149.105606867969	0
0	74826	10150.87402190058	1
0	74827	10151.509722228758	0
0	74839	10152.829469240166	1
0	74840	10153.634392832442	0
0	74850	10155.717717431602	1
0	74855	10156.006122267003	0
0	74861	10156.476908825533	1
0	74862	10156.727786850872	0
0	74866	10156.858582484776	1
0	74867	10157.512168313599	0
0	74871	10157.889938644108	1
0	74876	10158.494594005438	0
0	74880	10158.701082653825	1
0	74881	10158.908880245256	0
0	74885	10158.930191229701	1
0	74886	10159.361830368348	0
0	74890	10159.608792069323	1
0	74892	10159.70393386889	2
0	74893	10160.105210801483	1
0	74897	10160.417419277503	2
0	74898	10160.857116129565	1
0	74902	10160.977881771049	2
0	74903	10161.39470750926	1
0	74907	10161.485721153173	2
0	74908	10162.325008952375	1
0	74911	10162.91556065021	0
0	74915	10163.287458456103	1
0	74916	10163.441796772591	0
0	74920	10164.346901436395	1
0	74921	10164.407207490587	0
0	74925	10164.44188846821	1
0	74926	10165.146516480753	0
0	74930	10165.253365055564	1
0	74931	10165.819902163315	0
0	74938	10167.109883302373	1
0	74939	10167.565966693768	0
0	74948	10168.863681566713	1
0	74949	10169.289832044942	0
0	74956	10170.05437305888	1
0	74960	10170.723027130118	2
0	74961	10170.731004360821	1
0	74965	10171.090924624047	2
0	74968	10171.456540890122	1
0	74972	10171.832565870973	2
0	74973	10172.212228182508	1
0	74977	10172.72623191761	2
0	74978	10172.84530386556	1
0	74982	10172.871707221539	2
0	74983	10173.294208712029	1
0	74986	10173.862114248556	0
0	74990	10173.89069064077	1
0	74991	10174.731592147696	0
0	74995	10174.884536468803	1
0	74997	10175.217558772945	2
0	74998	10175.383636268872	1
0	75002	10175.498231642504	2
0	75005	10175.863951834935	1
0	75008	10176.341875351119	0
0	75012	10176.394253985159	1
0	75014	10176.466365852621	2
0	75015	10176.798763426292	1
0	75019	10176.975228842264	2
0	75020	10177.734900075329	1
0	75024	10177.817639946215	2
0	75025	10178.219056208191	1
0	75029	10178.419645113246	2
0	75030	10179.13187633142	1
0	75034	10179.850270419254	2
0	75035	10180.016684737328	1
0	75039	10180.345064969513	2
0	75040	10180.922875796344	1
0	75044	10181.393248103288	2
0	75045	10181.809768437493	1
0	75049	10182.19991883194	2
0	75050	10182.429401951927	1
0	75054	10182.489844439685	2
0	75057	10183.395857500975	1
0	75061	10183.906008110896	2
0	75062	10184.303760457403	1
0	75065	10184.862884685948	0
0	75069	10185.044045872823	1
0	75071	10185.184777905068	2
0	75072	10185.763493450257	1
0	75076	10185.91406376642	2
0	75077	10186.308463002593	1
0	75083	10186.477565130598	2
0	75084	10187.246402532645	1
0	75088	10187.60268719983	2
0	75089	10187.723139111689	1
0	75093	10187.827725072136	2
0	75094	10188.398083598717	1
0	75098	10188.484190725639	2
0	75099	10188.970293246993	1
0	75103	10189.351983983374	2
0	75104	10189.625248361091	1
0	75108	10189.752994259259	2
0	75109	10190.463723979044	1
0	75113	10190.560455161961	2
0	75114	10190.927254329846	1
0	75118	10191.596463834666	2
0	75119	10191.810881513395	1
0	75123	10191.885669291897	2
0	75124	10192.76503303432	1
0	75128	10193.211790448593	2
0	75129	10193.338435147322	1
0	75133	10193.775003895699	2
0	75134	10193.932998660664	1
0	75138	10193.987128600093	2
0	75139	10194.799172177064	1
0	75143	10194.824574840276	2
0	75144	10195.732615814349	1
0	75148	10196.073406304158	2
0	75149	10196.300701274993	1
0	75153	10196.358661265417	2
0	75154	10197.269088218352	1
0	75158	10197.512753617514	2
0	75159	10197.885927556632	1
0	75163	10198.375242637795	2
0	75164	10198.431761988243	1
0	75168	10198.577584571622	2
0	75169	10198.858800276872	1
0	75172	10199.333360366235	0
0	75176	10199.334794230147	1
0	75177	10199.938283798462	0
0	75181	10200.432446215689	1
0	75182	10200.541416164944	0
0	75186	10200.789641177198	1
0	75187	10201.288645559074	0
0	75204	10203.682793470611	1
0	75205	10204.424528266247	0
0	75216	10205.720134704186	1
0	75217	10205.887425076905	0
0	75226	10206.754208381482	1
0	75227	10207.297927803164	0
0	75236	10208.555249958134	1
0	75237	10208.568090130659	0
0	75246	10209.822974402751	1
0	75247	10209.940467817979	0
0	75256	10211.265370259429	1
0	75257	10211.711647358807	0
0	75266	10212.507587032998	1
0	75267	10213.003504882138	0
0	75279	10214.657107719763	1
0	75282	10215.245491246683	0
0	75293	10215.958470292426	1
0	75294	10216.610688503588	0
0	75306	10218.193587109277	1
0	75308	10219.061834735238	2
0	75309	10219.072144223971	1
0	75312	10219.972336624505	0
0	75316	10220.200971197046	1
0	75321	10220.892745481607	0
0	75325	10221.175062451533	1
0	75326	10221.801369201102	0
0	75342	10224.066005709526	1
0	75343	10224.314340127574	0
0	75349	10224.705745278733	1
0	75350	10224.765104006685	0
0	75354	10224.860305526299	1
0	75355	10225.491461305355	0
0	75359	10225.705010969741	1
0	75362	10226.025239465327	0
0	75366	10226.078622251923	1
0	75368	10226.424513468488	2
0	75369	10226.536701033718	1
0	75373	10226.770960538427	2
0	75375	10226.819790446166	3
0	75376	10227.508238708914	2
0	75379	10228.226769183238	1
0	75383	10228.769819044236	2
0	75384	10229.018845786002	1
0	75387	10229.518234389356	0
0	75393	10229.757874764328	1
0	75394	10230.445398698735	0
0	75398	10230.532866355434	1
0	75400	10230.753233914389	2
0	75402	10230.866341661332	3
0	75403	10231.26899658608	2
0	75407	10231.896550189967	3
0	75408	10231.98027369919	2
0	75412	10232.03230068702	3
0	75413	10232.443059609027	2
0	75417	10232.570789340861	3
0	75418	10233.375538334052	2
0	75424	10233.632161299043	3
0	75425	10233.792857876361	2
0	75429	10233.828342572872	3
0	75430	10234.577356542262	2
0	75434	10234.821227048305	3
0	75435	10235.261024449195	2
0	75438	10235.699299372488	1
0	75442	10235.827354675546	2
0	75443	10236.344845363439	1
0	75447	10236.784586474897	2
0	75448	10237.128868508327	1
0	75452	10237.544685398352	2
0	75453	10238.050204261706	1
0	75457	10238.085285676064	2
0	75460	10238.824015940713	1
0	75463	10239.459364698814	0
0	75470	10240.202699895221	1
0	75471	10240.496789741643	0
0	75480	10241.400389232128	1
0	75481	10242.017035465349	0
0	75490	10243.308407394256	1
0	75491	10243.552139356022	0
0	75500	10244.128197444426	1
0	75501	10244.618395745324	0
0	75508	10245.485911418736	1
0	75510	10246.144494049721	2
0	75511	10246.154585159373	1
0	75514	10246.937490132533	0
0	75518	10247.026858935164	1
0	75519	10247.350436925504	0
0	75523	10247.789675449442	1
0	75526	10247.943854070676	0
0	75530	10248.004355479119	1
0	75533	10248.740596645779	0
0	75537	10249.172265534676	1
0	75538	10249.29952443646	0
0	75557	10251.719478967962	1
0	75558	10251.723688841738	0
0	75612	10259.811319038668	1
0	75613	10260.179917798039	0
0	75624	10261.136693659305	1
0	75625	10261.751201646948	0
0	75637	10263.05937225012	1
0	75640	10263.399844946512	0
0	75649	10264.380773275009	1
0	75650	10264.567619343647	0
0	75659	10265.852351755027	1
0	75660	10266.011445325925	0
0	75667	10267.279989833107	1
0	75672	10267.620876829824	0
0	75682	10269.781182653051	1
0	75683	10269.949174338425	0
0	75692	10270.708381536393	1
0	75695	10270.936474503934	0
0	75704	10271.933481706457	1
0	75705	10272.901771823721	0
0	75714	10273.822231474988	1
0	75715	10274.17508050728	0
0	75721	10274.437832997757	1
0	75722	10274.694527913941	0
0	75728	10275.009888833287	1
0	75729	10275.567316252723	0
0	75733	10275.943585342692	1
0	75734	10276.157714530438	0
0	75740	10276.85669721342	1
0	75741	10277.127018078634	0
0	75751	10278.319514716689	1
0	75754	10278.852234735045	0
0	75758	10278.868106538543	1
0	75761	10279.693463988261	0
0	75765	10279.744265505297	1
0	75766	10280.4967919499	0
0	75770	10280.934794291456	1
0	75771	10281.481623867652	0
0	75775	10281.48734244411	1
0	75776	10282.194635320999	0
0	75780	10282.521494561432	1
0	75781	10282.716649865298	0
0	75785	10283.189121779417	1
0	75786	10283.326004561488	0
0	75790	10283.589580237531	1
0	75791	10284.319062972986	0
0	75795	10284.320568115839	1
0	75796	10284.793434747807	0
0	75800	10284.907765589782	1
0	75801	10285.674358106391	0
0	75805	10285.872529314478	1
0	75806	10286.530158611653	0
0	75810	10286.764173380345	1
0	75811	10287.338875681335	0
0	75815	10287.496940262908	1
0	75817	10287.966471239849	2
0	75818	10288.210043127961	1
0	75822	10288.229595906899	2
0	75823	10289.022800729131	1
0	75827	10289.265276888978	2
0	75830	10289.713528495874	1
0	75834	10289.923507950614	2
0	75835	10290.435050050808	1
0	75838	10291.001871110439	0
0	75845	10291.849639688921	1
0	75846	10291.935215524663	0
0	75855	10292.977303429159	1
0	75858	10293.253240993046	0
0	75862	10293.432484922795	1
0	75863	10293.865888098567	0
0	75867	10294.135482799192	1
0	75872	10294.80998344094	0
0	75882	10296.036137416676	1
0	75886	10296.717108304401	2
0	75888	10296.815769704238	3
0	75891	10296.869460353335	2
0	75894	10297.435128865378	1
0	75899	10298.228140401687	0
0	75903	10298.59345505167	1
0	75904	10299.052639078615	0
0	75908	10299.200218084088	1
0	75910	10299.210183445631	2
0	75911	10299.834005269022	1
0	75915	10300.376918481207	2
0	75916	10300.637366462113	1
0	75920	10301.010312380038	2
0	75921	10301.459022606011	1
0	75925	10301.529519930784	2
0	75926	10302.310271063108	1
0	75929	10302.85068734422	0
0	75933	10303.183461726276	1
0	75934	10303.267402949591	0
0	75938	10303.422563195156	1
0	75939	10304.017006792721	0
0	75954	10306.332304693335	1
0	75956	10306.638713040668	2
0	75957	10306.868068369373	1
0	75960	10307.546599412837	0
0	75964	10307.682148708871	1
0	75967	10308.045843398885	0
0	75971	10308.135667181975	1
0	75974	10308.86603602044	0
0	75978	10308.930094217168	1
0	75979	10309.276745776494	0
0	75983	10309.483795206003	1
0	75984	10309.996260067063	0
0	75988	10310.010901439656	1
0	75989	10310.929526305279	0
0	75993	10311.398853344473	1
0	75994	10311.513615738774	0
0	75998	10311.907019899815	1
0	76000	10312.101140987956	2
0	76001	10312.484006093057	1
0	76005	10312.533974574794	2
0	76008	10313.274332402447	1
0	76012	10313.579703510285	2
0	76013	10313.836618892556	1
0	76017	10314.047738852516	2
0	76018	10314.584981458668	1
0	76021	10315.057294589315	0
0	76025	10315.111720329487	1
0	76026	10315.896482581865	0
0	76030	10315.936032827056	1
0	76031	10316.66430670017	0
0	76035	10316.805841136274	1
0	76036	10317.22739447354	0
0	76040	10317.259992461272	1
0	76041	10317.942682268504	0
0	76045	10317.976521450699	1
0	76046	10318.445039519422	0
0	76065	10321.289319993873	1
0	76066	10321.368590428434	0
0	76074	10322.12578308564	1
0	76075	10322.186992847999	0
0	76079	10322.589933481024	1
0	76080	10323.109384672563	0
0	76087	10323.986059869927	1
0	76088	10324.240485184486	0
0	76092	10324.262840371351	1
0	76095	10324.886507571242	0
0	76099	10325.051680699169	1
0	76100	10325.37056310534	0
0	76104	10325.633388271513	1
0	76105	10325.906675554379	0
0	76112	10326.573679852125	1
0	76114	10326.994961535323	2
0	76115	10327.324999167523	1
0	76120	10328.220552581534	0
0	76129	10329.648495225729	1
0	76130	10329.680974163799	0
0	76139	10330.474931676576	1
0	76140	10331.012429622453	0
0	76149	10331.902795417079	1
0	76150	10332.8312442249	0
0	76159	10333.480171896908	1
0	76160	10334.318331842342	0
0	76175	10335.596700823982	1
0	76176	10335.851961010633	0
0	76183	10336.979780379666	1
0	76184	10337.0593396935	0
0	76193	10338.188566746072	1
0	76196	10339.000539383092	0
0	76203	10339.685789386051	1
0	76204	10340.240298620365	0
0	76213	10341.011747068856	1
0	76214	10341.238094000691	0
0	76221	10342.296150894962	1
0	76222	10342.417931939089	0
0	76231	10343.062981913103	1
0	76232	10343.284240972796	0
0	76239	10344.222954866106	1
0	76240	10344.604399485221	0
0	76253	10346.117168137913	1
0	76254	10346.171895027241	0
0	76261	10346.869078279871	1
0	76264	10347.303088936197	0
0	76271	10347.786670507157	1
0	76274	10348.383113841002	0
0	76285	10349.954370716521	1
0	76286	10350.045676412188	0
0	76290	10350.350832946532	1
0	76291	10350.810905213455	0
0	76305	10352.481863646134	1
0	76306	10352.761436009348	0
0	76313	10353.285767936937	1
0	76314	10354.206637987063	0
0	76323	10355.036379504972	1
0	76324	10355.43643486289	0
0	76336	10356.912560818453	1
0	76337	10357.069920279725	0
0	76344	10357.901003833906	1
0	76346	10358.023442875931	2
0	76347	10358.037958622618	1
0	76354	10358.95470697492	0
0	76358	10359.174873720585	1
0	76359	10359.390001861459	0
0	76363	10359.592489686068	1
0	76370	10360.278343655855	0
0	76374	10360.284431290066	1
0	76375	10360.951159338687	0
0	76379	10361.420666207909	1
0	76380	10361.620143491669	0
0	76392	10363.064760083739	1
0	76393	10363.439062496541	0
0	76402	10364.368123504613	1
0	76403	10364.853134032791	0
0	76412	10365.677355342461	1
0	76413	10366.336020602087	0
0	76417	10366.495258893101	1
0	76420	10367.331583063571	0
0	76424	10367.409600093399	1
0	76426	10367.727739794687	2
0	76427	10368.266401135443	1
0	76431	10368.333022162548	2
0	76432	10369.063392418098	1
0	76435	10369.609537649142	0
0	76442	10370.118832388771	1
0	76443	10370.843256682751	0
0	76454	10371.886131360492	1
0	76456	10371.954465443766	2
0	76458	10371.986355228685	3
0	76459	10372.496936297917	2
0	76464	10373.481856428634	1
0	76468	10373.716549655864	2
0	76469	10374.455023534212	1
0	76473	10374.588649300935	2
0	76474	10375.210802737798	1
0	76477	10376.044109027914	0
0	76481	10376.777319045473	1
0	76484	10376.935258500173	0
0	76488	10377.530824812819	1
0	76489	10377.680075131764	0
0	76493	10377.691016003765	1
0	76494	10378.596049386251	0
0	76501	10379.46863088071	1
0	76502	10380.378164575563	0
0	76514	10382.276660493503	1
0	76517	10382.946493919135	0
0	76526	10384.226614318819	1
0	76527	10384.39148920708	0
0	76541	10386.569908349971	1
0	76542	10386.83976368833	0
0	76546	10387.546615321263	1
0	76547	10387.636209147877	0
0	76551	10387.642089262139	1
0	76554	10388.230409013747	0
0	76561	10389.377526344265	1
0	76562	10389.809978370449	0
0	76571	10390.937089224512	1
0	76574	10391.297943405794	0
0	76588	10392.970875299492	1
0	76591	10393.776791644828	0
0	76600	10394.713590370171	1
0	76601	10395.171866239314	0
0	76610	10396.124534995171	1
0	76611	10396.764947910547	0
0	76659	10403.543456917315	1
0	76660	10403.700317114999	0
0	76672	10404.973015753702	1
0	76677	10405.639964450651	0
0	76716	10411.951371011725	1
0	76717	10412.291931689657	0
0	76724	10412.906798462522	1
0	76729	10413.482076590076	0
0	76735	10414.414077556177	1
0	76736	10414.42641778736	0
0	76740	10414.630188956928	1
0	76745	10415.267462837497	0
0	76749	10415.392957268469	1
0	76751	10415.73434110841	2
0	76752	10415.791563527692	1
0	76756	10416.222370181935	2
0	76757	10416.458397078082	1
0	76765	10416.675389975151	2
0	76766	10417.155145022027	1
0	76770	10417.446260746961	2
0	76773	10417.934949495397	1
0	76777	10418.027229622326	2
0	76778	10418.748372553043	1
0	76782	10418.9322994889	2
0	76783	10419.734089663891	1
0	76787	10420.003173224196	2
0	76788	10420.454412313864	1
0	76791	10421.182032311462	0
0	76798	10422.243554410443	1
0	76799	10422.341762001567	0
0	76811	10423.495971667328	1
0	76814	10423.708037583844	0
0	76875	10431.597825665093	1
0	76876	10431.927730827954	0
0	76885	10432.692081849825	1
0	76886	10433.131115155377	0
0	76893	10434.701461504457	1
0	76894	10434.774765167514	0
0	76919	10436.955271331759	1
0	76920	10437.20130155011	0
0	76927	10437.920805657821	1
0	76930	10438.298112611603	0
0	76939	10439.107291005817	1
0	76942	10439.609430441438	0
0	76955	10440.185117295752	1
0	76957	10440.813785506819	2
0	76958	10441.003938344811	1
0	76963	10441.942490991942	0
0	76967	10442.022375202138	1
0	76970	10442.410100004348	0
0	76974	10443.197193678149	1
0	76975	10443.289719321244	0
0	76979	10443.42219871039	1
0	76981	10443.44343181848	2
0	76982	10444.029696738711	1
0	76986	10444.118924788822	2
0	76987	10444.916969185686	1
0	76991	10445.165084696998	2
0	76992	10445.533253694224	1
0	76996	10445.635390340104	2
0	76997	10446.505538862795	1
0	77001	10446.643930507011	2
0	77002	10447.03458610409	1
0	77006	10447.257649957385	2
0	77007	10447.587488835389	1
0	77010	10448.085144839986	0
0	77014	10448.631953023027	1
0	77016	10448.793940899375	2
0	77017	10448.82482332917	1
0	77020	10449.685617699838	0
0	77024	10449.701687086031	1
0	77025	10450.334105122453	0
0	77029	10450.832965165818	1
0	77030	10450.911989441412	0
0	77034	10451.251888928874	1
0	77035	10451.501514991876	0
0	77042	10452.241735692403	1
0	77043	10452.749694346813	0
0	77052	10453.899116518206	1
0	77053	10453.943514761785	0
0	77060	10454.525494391306	1
0	77063	10455.282114551812	0
0	77077	10456.992593168087	1
0	77078	10457.221875595665	0
0	77087	10458.003214488608	1
0	77088	10458.56431086719	0
0	77100	10459.711465748125	1
0	77101	10460.162149504376	0
0	77110	10461.246809804025	1
0	77113	10461.867761580543	0
0	77124	10462.753381396364	1
0	77125	10463.315438837362	0
0	77129	10463.333167736302	1
0	77132	10463.778517969921	0
0	77136	10464.20806763649	1
0	77137	10464.265874861032	0
0	77144	10465.307481541812	1
0	77145	10465.386816237951	0
0	77151	10465.750153730138	1
0	77152	10465.897866096478	0
0	77156	10466.656332575711	1
0	77157	10466.791694637192	0
0	77161	10467.587109672718	1
0	77162	10467.72126977317	0
0	77166	10467.851832000969	1
0	77167	10468.224073582831	0
0	77171	10468.568645918415	1
0	77172	10468.875729763125	0
0	77176	10469.038591496389	1
0	77177	10469.756095137996	0
0	77184	10470.290281469228	1
0	77186	10470.688821452987	2
0	77187	10470.91863883444	1
0	77192	10471.635939489527	0
0	77196	10471.981470597587	1
0	77197	10472.4832229284	0
0	77201	10472.821067707132	1
0	77203	10473.238238594615	2
0	77204	10473.443891395665	1
0	77208	10473.59004372475	2
0	77209	10473.905620461785	1
0	77214	10474.627090027406	0
0	77221	10475.395943518896	1
0	77223	10475.775376262453	2
0	77224	10476.031403899043	1
0	77227	10476.846914623481	0
0	77231	10477.164028095938	1
0	77232	10477.307115976549	0
0	77236	10477.376075655287	1
0	77239	10478.234306465545	0
0	77243	10478.707845367123	1
0	77248	10479.053773840414	0
0	77252	10479.237460502226	1
0	77253	10479.741879260577	0
0	77257	10480.167504004376	1
0	77258	10480.283982444685	0
0	77262	10480.608351007388	1
0	77263	10481.126431148304	0
0	77267	10481.275239233489	1
0	77268	10481.831006501234	0
0	77272	10482.016065262825	1
0	77273	10482.5567299636	0
0	77283	10484.356288362059	1
0	77287	10484.904746837146	2
0	77288	10485.101128757645	1
0	77291	10485.758655838335	0
0	77298	10486.459486657529	1
0	77300	10486.527744211474	2
0	77303	10487.214374643184	1
0	77306	10488.184957956981	0
0	77310	10488.401757836529	1
0	77313	10488.658065000122	0
0	77319	10489.150503548287	1
0	77320	10489.346972732145	0
0	77324	10489.551503195882	1
0	77325	10489.836963094996	0
0	77329	10489.895307479712	1
0	77330	10490.415788823079	0
0	77334	10490.820849739085	1
0	77335	10491.012415895044	0
0	77339	10491.765838329066	1
0	77341	10491.850437342765	2
0	77342	10491.963107753444	1
0	77346	10491.966905862946	2
0	77347	10492.760897522458	1
0	77351	10492.937012408782	2
0	77352	10493.209550909317	1
0	77356	10493.380202602691	2
0	77358	10493.888575591865	3
0	77359	10494.05228976844	2
0	77363	10494.423859951649	3
0	77364	10495.021703656289	2
0	77368	10495.024941479618	3
0	77369	10495.519559528624	2
0	77373	10495.554734581083	3
0	77374	10496.385198765892	2
0	77377	10497.034194504415	1
0	77380	10497.477246201403	0
0	77384	10497.47798517456	1
0	77386	10497.900352964294	2
0	77387	10498.277840412307	1
0	77390	10498.88708787406	0
0	77394	10499.059714396198	1
0	77395	10499.684358762616	0
0	77399	10499.82021749927	1
0	77400	10500.182603882152	0
0	77404	10500.616759070125	1
0	77405	10500.747305558707	0
0	77409	10500.922171551137	1
0	77410	10501.450244316963	0
0	77425	10504.677830600144	1
0	77426	10504.817397584851	0
0	77433	10505.841708169952	1
0	77438	10506.182777144798	0
0	77447	10507.106724422982	1
0	77448	10507.393666081401	0
0	77455	10508.539281257137	1
0	77458	10508.597311575655	0
0	77462	10508.911782959215	1
0	77463	10509.54724816395	0
0	77469	10509.689192967061	1
0	77474	10510.507872792604	0
0	77478	10511.318361847861	1
0	77479	10511.403615419278	0
0	77483	10511.571219574194	1
0	77487	10511.721405857517	2
0	77488	10512.028416771945	1
0	77492	10512.104372021952	2
0	77493	10512.961099474635	1
0	77497	10513.303335192504	2
0	77498	10513.493251396753	1
0	77501	10514.275800742945	0
0	77505	10514.296369924632	1
0	77506	10514.758080328619	0
0	77510	10515.032354698586	1
0	77515	10515.738497218154	0
0	77519	10515.828468769081	1
0	77522	10516.721440846789	0
0	77526	10516.748226529194	1
0	77529	10517.388446435183	0
0	77533	10517.466149191833	1
0	77534	10517.847758554239	0
0	77538	10517.892642802291	1
0	77541	10518.827512331158	0
0	77545	10518.939822415076	1
0	77546	10519.229999012025	0
0	77553	10520.299191643061	1
0	77555	10520.67002777811	2
0	77556	10520.956751748351	1
0	77559	10521.752674099467	0
0	77563	10521.966150595692	1
0	77564	10522.386882220525	0
0	77573	10523.01060227809	1
0	77575	10523.20367557381	2
0	77576	10523.545302961338	1
0	77581	10524.170873243818	0
0	77585	10524.241773928457	1
0	77587	10524.446242772495	2
0	77588	10524.748718981994	1
0	77592	10524.998170067739	2
0	77593	10525.285267660198	1
0	77597	10525.475340009943	2
0	77598	10526.23712202277	1
0	77602	10526.251782538751	2
0	77603	10526.653227531761	1
0	77606	10527.072811820163	0
0	77610	10527.3879355667	1
0	77612	10527.682489372483	2
0	77613	10527.961027307381	1
0	77617	10528.228893398261	2
0	77618	10528.41804121853	1
0	77622	10529.123122881346	2
0	77623	10529.281304148111	1
0	77626	10529.954772516751	0
0	77630	10530.170812645328	1
0	77632	10530.568550428564	2
0	77633	10530.717740319056	1
0	77637	10530.874725467403	2
0	77638	10531.362723584512	1
0	77641	10531.769292413156	0
0	77645	10532.141547729221	1
0	77646	10532.518810226388	0
0	77650	10532.585213710315	1
0	77652	10533.004202078894	2
0	77653	10533.030403845517	1
0	77657	10533.29924593675	2
0	77658	10533.47896316074	1
0	77661	10534.416871514164	0
0	77665	10534.420777794537	1
0	77666	10534.892707668796	0
0	77670	10535.090982196696	1
0	77671	10535.409568682212	0
0	77675	10535.413471410663	1
0	77676	10536.180684654267	0
0	77680	10536.265417103634	1
0	77681	10536.785297491021	0
0	77685	10537.166292589361	1
0	77686	10537.736831123281	0
0	77698	10539.255612335837	1
0	77699	10539.550927970225	0
0	77706	10540.582186272976	1
0	77709	10541.168514868376	0
0	77716	10542.379988195523	1
0	77717	10542.48538527474	0
0	77736	10544.758933082043	1
0	77737	10544.904884359095	0
0	77774	10550.930954163512	1
0	77775	10550.965606418386	0
0	77782	10551.934887064093	1
0	77783	10552.166403195583	0
0	77787	10552.483440361673	1
0	77788	10552.649253530889	0
0	77803	10554.215857501349	1
0	77804	10554.446305598966	0
0	77813	10555.252921195484	1
0	77814	10555.648120485149	0
0	77827	10558.174735884031	1
0	77834	10558.863329709595	0
0	77841	10559.493293914011	1
0	77843	10559.60963181483	2
0	77844	10559.780817062681	1
0	77848	10560.010131401147	2
0	77849	10560.747883686557	1
0	77853	10560.939836774573	2
0	77856	10561.413412205357	1
0	77860	10561.501594026913	2
0	77865	10562.37649542279	1
0	77868	10562.782012268104	0
0	77875	10563.334795109581	1
0	77877	10563.4015260357	2
0	77879	10563.406455639019	3
0	77880	10563.807610118244	2
0	77883	10564.267111637438	1
0	77887	10564.632780106313	2
0	77890	10565.205747085618	1
0	77895	10566.170316660212	0
0	77899	10566.249875918806	1
0	77900	10567.047301035042	0
0	77904	10567.253969357072	1
0	77905	10567.847074319276	0
0	77909	10568.407881687109	1
0	77910	10568.677563104306	0
0	77922	10570.443314420522	1
0	77923	10570.503918082167	0
0	77930	10571.015290804599	1
0	77932	10571.406744269557	2
0	77933	10571.59197556427	1
0	77937	10571.744188662174	2
0	77944	10572.587347131262	1
0	77948	10572.588089317584	2
0	77950	10572.621435574901	3
0	77952	10572.782168183858	4
0	77953	10573.121146187738	3
0	77957	10573.140382532078	4
0	77958	10573.947258880727	3
0	77962	10574.130546397645	4
0	77963	10574.943455732979	3
0	77967	10575.107187405075	4
0	77968	10575.744897671688	3
0	77972	10575.826260777029	4
0	77974	10575.988151195938	5
0	77975	10576.589147584412	4
0	77979	10576.807273418823	5
0	77980	10577.389689866632	4
0	77984	10577.697823923351	5
0	77985	10577.821995688129	4
0	77989	10577.901949837748	5
0	77990	10578.607043439235	4
0	77995	10579.135403335552	3
0	77999	10579.275635750066	4
0	78001	10579.345512170123	5
0	78002	10579.64683485971	4
0	78006	10579.770932507493	5
0	78009	10580.449040439252	4
0	78013	10580.870613241835	5
0	78015	10580.957918678478	6
0	78016	10581.045554091495	5
0	78020	10581.273355971329	6
0	78021	10581.51872183582	5
0	78027	10581.691430439551	6
0	78028	10581.932595834361	5
0	78033	10582.757076803121	4
0	78036	10583.489168421311	3
0	78040	10583.65156262651	4
0	78041	10584.138662610242	3
0	78045	10584.299831179821	4
0	78046	10584.963614740169	3
0	78050	10585.634432468365	4
0	78051	10585.813894976808	3
0	78054	10586.340867331757	2
0	78058	10586.775187770749	3
0	78060	10586.831860209886	4
0	78061	10587.251265060662	3
0	78065	10587.368238615041	4
0	78066	10588.099832168447	3
0	78070	10588.22321657757	4
0	78071	10588.713630844366	3
0	78074	10589.4388648807	2
0	78077	10590.119981318565	1
0	78081	10590.279423958919	2
0	78083	10590.441370027305	3
0	78085	10590.591857432862	4
0	78086	10590.841296062611	3
0	78090	10591.278838508713	4
0	78091	10591.723484305844	3
0	78094	10592.322391992102	2
0	78098	10592.932908855085	3
0	78100	10592.963681890589	4
0	78101	10593.037857055937	3
0	78105	10593.575535291279	4
0	78106	10593.983307037496	3
0	78110	10594.298686482082	4
0	78111	10594.409504249918	3
0	78114	10594.937203295336	2
0	78117	10595.36651548533	1
0	78121	10595.400397111042	2
0	78123	10595.460855342272	3
0	78125	10595.621583242754	4
0	78126	10596.090246796182	3
0	78130	10596.442629682191	4
0	78131	10596.868906284536	3
0	78134	10597.554678959579	2
0	78138	10597.635806945897	3
0	78139	10598.30599047201	2
0	78143	10598.34541047359	3
0	78144	10598.81362274363	2
0	78148	10598.826886642237	3
0	78149	10599.764996046427	2
0	78153	10599.830271870942	3
0	78154	10600.540067988721	2
0	78158	10600.977215702556	3
0	78160	10600.984469887092	4
0	78161	10601.299278481811	3
0	78165	10601.519152630248	4
0	78166	10601.887407395703	3
0	78172	10602.582223946508	4
0	78173	10602.829783534299	3
0	78177	10603.529667534241	4
0	78178	10603.662555422488	3
0	78182	10603.722998204021	4
0	78183	10604.256687618181	3
0	78186	10604.678619630024	2
0	78192	10605.32423903769	3
0	78194	10605.339460219877	4
0	78195	10605.549574012723	3
0	78199	10605.614009237997	4
0	78202	10606.506691724336	3
0	78205	10607.032999538811	2
0	78209	10607.04504767573	3
0	78211	10607.196132682791	4
0	78212	10607.999409191771	3
0	78216	10608.050944586299	4
0	78217	10608.488903300832	3
0	78223	10608.838212219789	4
0	78224	10609.281425428712	3
0	78227	10609.854127370189	2
0	78231	10610.034490498143	3
0	78232	10610.446010939167	2
0	78236	10610.598715389791	3
0	78237	10611.00096163875	2
0	78240	10611.640018198775	1
0	78244	10611.937735529182	2
0	78245	10612.092400543062	1
0	78249	10612.232467878189	2
0	78251	10612.539627206088	3
0	78252	10612.644152208274	2
0	78255	10613.438880271461	1
0	78260	10613.982781288304	0
0	78267	10614.934533000195	1
0	78269	10615.386707290526	2
0	78270	10615.435374793687	1
0	78274	10615.447867696629	2
0	78276	10615.517623420793	3
0	78279	10615.874219362575	2
0	78283	10615.924108963452	3
0	78286	10616.69941640347	2
0	78290	10616.957537100693	3
0	78291	10617.315781249197	2
0	78295	10617.389553358745	3
0	78296	10618.11542315101	2
0	78300	10618.284308074292	3
0	78301	10618.581917288292	2
0	78305	10619.215673070535	3
0	78306	10619.275138550669	2
0	78310	10619.935327534167	3
0	78311	10620.130954067081	2
0	78314	10621.046219249021	1
0	78317	10621.984166397944	0
0	78321	10622.24001173953	1
0	78322	10622.415831812283	0
0	78326	10622.478026597756	1
0	78327	10623.040963002618	0
0	78331	10623.529118139712	1
0	78332	10623.795233905918	0
0	78336	10623.826770175741	1
0	78338	10623.991767606983	2
0	78339	10624.451459530179	1
0	78343	10624.602441276152	2
0	78344	10625.400677837847	1
0	78348	10625.454360903358	2
0	78349	10625.915509366613	1
0	78353	10626.168180572012	2
0	78355	10626.413378649507	3
0	78356	10626.484979292886	2
0	78359	10627.050109648607	1
0	78363	10627.059102139488	2
0	78364	10627.736939153117	1
0	78368	10627.743113084493	2
0	78370	10627.83810928557	3
0	78371	10628.361759326928	2
0	78375	10628.420937647481	3
0	78376	10628.948707738747	2
0	78380	10629.084441428946	3
0	78381	10629.451644108906	2
0	78385	10629.594620847519	3
0	78386	10630.356308335527	2
0	78389	10631.212137939125	1
0	78394	10632.11693549193	0
0	78398	10632.137242059138	1
0	78400	10632.638078013624	2
0	78401	10632.900704298443	1
0	78405	10632.926442101729	2
0	78406	10633.791540960171	1
0	78409	10634.476872780635	0
0	78413	10635.075444179084	1
0	78414	10635.197281206534	0
0	78418	10635.203135904004	1
0	78419	10635.918095549145	0
0	78426	10636.877166500337	1
0	78428	10636.907951666071	2
0	78429	10637.218635789999	1
0	78433	10637.240789569275	2
0	78434	10637.984245677008	1
0	78437	10638.404341604602	0
0	78441	10638.431475338389	1
0	78443	10638.845848518321	2
0	78446	10639.131777340448	1
0	78450	10639.224489128998	2
0	78452	10639.621683370137	3
0	78453	10639.799698709179	2
0	78457	10640.181839410975	3
0	78458	10640.407130697783	2
0	78462	10640.58125431918	3
0	78463	10640.853200778872	2
0	78466	10641.255548558891	1
0	78470	10641.804888177496	2
0	78471	10641.98102870732	1
0	78475	10642.094587430065	2
0	78477	10642.234192235989	3
0	78478	10642.783038674057	2
0	78482	10642.974834609456	3
0	78483	10643.608918475867	2
0	78487	10643.889740444971	3
0	78490	10644.486935756257	2
0	78494	10644.496927187717	3
0	78495	10645.008571973298	2
0	78499	10645.246562999625	3
0	78500	10645.638372130966	2
0	78503	10646.327971291071	1
0	78507	10646.769859056193	2
0	78508	10647.056651216228	1
0	78512	10647.160310044802	2
0	78514	10647.373468497277	3
0	78516	10647.497466163709	4
0	78517	10647.934523846344	3
0	78521	10648.01160955296	4
0	78523	10648.402635735137	5
0	78524	10648.908956503491	4
0	78528	10649.133377221618	5
0	78529	10649.851105583874	4
0	78533	10650.22223873866	5
0	78534	10650.397200776074	4
0	78538	10650.612370257661	5
0	78539	10651.125924166847	4
0	78542	10651.793385206206	3
0	78545	10652.569732790623	2
0	78549	10652.815588887843	3
0	78551	10652.948420989753	4
0	78553	10653.01284580944	5
0	78554	10653.072222719105	4
0	78558	10653.283564320035	5
0	78559	10653.715788695538	4
0	78563	10653.737873175473	5
0	78564	10654.338049857407	4
0	78567	10655.150120521798	3
0	78571	10655.420243020514	4
0	78572	10656.126607421362	3
0	78575	10656.53317517349	2
0	78579	10656.590375312878	3
0	78580	10657.039016893455	2
0	78584	10657.725840620653	3
0	78585	10658.036101831957	2
0	78589	10658.653901650878	3
0	78590	10658.719262921806	2
0	78594	10658.938128528953	3
0	78597	10659.56411752584	2
0	78601	10659.590794637304	3
0	78602	10660.491801388046	2
0	78608	10660.955280702852	3
0	78609	10661.035383229839	2
0	78612	10661.473341929071	1
0	78615	10661.984775720254	0
0	78619	10662.060925193031	1
0	78621	10662.131550733813	2
0	78622	10662.659825990811	1
0	78626	10663.063391968534	2
0	78629	10663.427318661144	1
0	78632	10664.067821658539	0
0	78636	10664.092469110636	1
0	78637	10664.527704512278	0
0	78644	10665.68760977538	1
0	78645	10666.348659185875	0
0	78660	10668.323224023845	1
0	78661	10668.537045102655	0
0	78683	10670.315667272923	1
0	78685	10670.336432622026	2
0	78686	10670.355756519218	1
0	78689	10671.001085702325	0
0	78693	10671.635974484519	1
0	78694	10671.882010669117	0
0	78698	10672.097659889953	1
0	78700	10672.428712475836	2
0	78703	10672.809473257042	1
0	78707	10673.308147872349	2
0	78708	10673.371086135223	1
0	78712	10673.546644177667	2
0	78713	10673.813358512191	1
0	78716	10674.549511594135	0
0	78723	10675.434933150102	1
0	78724	10676.187824660349	0
0	78733	10676.620514084738	1
0	78734	10677.170954779996	0
0	78750	10678.681277998489	1
0	78751	10678.861160963768	0
0	78762	10680.18049788907	1
0	78763	10680.461577091546	0
0	78770	10681.459255641846	1
0	78771	10681.676135561097	0
0	78780	10682.863605429888	1
0	78781	10683.344551516738	0
0	78790	10683.959857725297	1
0	78791	10684.85109124374	0
0	78802	10685.99893495023	1
0	78803	10686.619490453921	0
0	79006	10716.14284120136	1
0	79007	10716.412271397089	0
0	79016	10717.054919970805	1
0	79021	10717.462757403351	0
0	79028	10718.348038704973	1
0	79029	10719.019903754762	0
0	79033	10719.024952271122	1
0	79036	10719.513982746278	0
0	79047	10720.801547084814	1
0	79048	10721.251356379588	0
0	79055	10722.757681989226	1
0	79060	10723.113929200957	0
0	79072	10724.645911846388	1
0	79073	10725.257445517036	0
0	79082	10725.947162318809	1
0	79085	10726.521238203712	0
0	79096	10727.703947121172	1
0	79097	10727.956309951695	0
0	79106	10728.85844587138	1
0	79107	10729.18062211158	0
0	79116	10730.196198307788	1
0	79117	10730.947149154118	0
0	79298	10756.112091867249	1
0	79301	10756.380308930569	0
0	79313	10758.193120245739	1
0	79314	10758.826446929102	0
0	79323	10760.085079967153	1
0	79324	10760.170237918564	0
0	79328	10760.320371448797	1
0	79329	10760.96889761234	0
0	79333	10761.409855384233	1
0	79336	10761.801075167854	0
0	79340	10761.81609829719	1
0	79343	10762.592565213975	0
0	79347	10762.742815045924	1
0	79348	10763.165684901683	0
0	79355	10763.910742464176	1
0	79357	10764.001155745696	2
0	79358	10764.752770111889	1
0	79363	10765.336931410006	0
0	79367	10765.715736968572	1
0	79368	10765.765142958744	0
0	79374	10766.171001835122	1
0	79376	10766.317126942228	2
0	79378	10766.340850710327	3
0	79379	10766.38480760664	2
0	79384	10767.374846345319	1
0	79388	10768.096867222635	2
0	79389	10768.346868633239	1
0	79393	10768.782126780587	2
0	79394	10769.255848846252	1
0	79397	10769.841391645179	0
0	79401	10769.991553302468	1
0	79403	10770.061077275495	2
0	79404	10770.443853454937	1
0	79408	10770.477813643774	2
0	79410	10771.106214046336	3
0	79411	10771.204826882428	2
0	79414	10771.809141676447	1
0	79418	10772.059458998548	2
0	79419	10772.546717025286	1
0	79425	10772.904224668646	2
0	79426	10773.491066727547	1
0	79430	10773.857229047003	2
0	79431	10774.066302816888	1
0	79434	10774.598301437629	0
0	79438	10774.741615759675	1
0	79440	10774.789284739787	2
0	79441	10775.565506316946	1
0	79445	10775.759204475561	2
0	79447	10776.370970166774	3
0	79448	10776.473247574448	2
0	79452	10776.759810560733	3
0	79453	10777.461786355629	2
0	79457	10777.597903243061	3
0	79460	10778.145773766741	2
0	79463	10778.62337495614	1
0	79467	10778.705249645866	2
0	79469	10779.040903754342	3
0	79470	10779.293199942812	2
0	79474	10779.49167123943	3
0	79475	10779.940409903453	2
0	79479	10780.059670540765	3
0	79480	10780.602397181458	2
0	79484	10780.822629748863	3
0	79487	10781.132387368699	2
0	79491	10781.404183085297	3
0	79492	10782.02277422649	2
0	79496	10782.052702613753	3
0	79497	10782.670954184133	2
0	79501	10782.891922081741	3
0	79502	10783.544878584138	2
0	79506	10783.719420494401	3
0	79507	10784.199725932387	2
0	79511	10784.29629031991	3
0	79512	10785.156435124847	2
0	79516	10785.265119353702	3
0	79517	10785.703620442786	2
0	79521	10785.840827960971	3
0	79522	10786.601562972312	2
0	79525	10787.03049266603	1
0	79528	10788.014920881429	0
0	79532	10788.308625651967	1
0	79533	10788.853543770538	0
0	79537	10788.996275926604	1
0	79538	10789.669326315486	0
0	79542	10790.063339799951	1
0	79543	10790.487965848335	0
0	79547	10790.869924493833	1
0	79548	10791.31742206378	0
0	79552	10791.430308669088	1
0	79553	10792.05479879099	0
0	79557	10792.420405782931	1
0	79558	10793.040863680132	0
0	79562	10793.083761703357	1
0	79563	10793.870911040614	0
0	79570	10794.840602912888	1
0	79572	10795.166034935368	2
0	79573	10795.413041741252	1
0	79576	10796.053907999434	0
0	79580	10796.296226668344	1
0	79583	10796.691924194424	0
0	79587	10796.932898590485	1
0	79588	10797.5655979501	0
0	79592	10797.835037400549	1
0	79593	10798.450933230148	0
0	79600	10799.043600083972	1
0	79601	10799.681555191047	0
0	79610	10800.457966904243	1
0	79613	10800.764730538513	0
0	79645	10805.532078954806	1
0	79649	10806.107478964157	2
0	79650	10806.201043617391	1
0	79653	10806.842533433848	0
0	79659	10806.880017830743	1
0	79662	10807.561042947127	0
0	79666	10807.747279324555	1
0	79667	10808.205682057087	0
0	79671	10808.613131083481	1
0	79672	10808.882566625709	0
0	79676	10809.167748359362	1
0	79677	10809.867549970504	0
0	79681	10809.914428888529	1
0	79682	10810.650128460992	0
0	79686	10810.655826609448	1
0	79689	10811.477173750931	0
0	79693	10811.790928477704	1
0	79694	10812.13528013708	0
0	79698	10812.576451684671	1
0	79699	10812.888511252021	0
0	79703	10812.967538247212	1
0	79704	10813.579335258239	0
0	79708	10813.724516517979	1
0	79709	10814.325862776245	0
0	79713	10814.405774102595	1
0	79714	10814.901492540388	0
0	79718	10815.060839047118	1
0	79720	10815.108217967404	2
0	79721	10815.542542713171	1
0	79725	10815.696222087783	2
0	79726	10816.196696432529	1
0	79730	10816.71084839815	2
0	79731	10816.799966335285	1
0	79735	10817.006152370132	2
0	79736	10817.709643964272	1
0	79740	10817.744168139194	2
0	79741	10818.225668244006	1
0	79745	10818.58003602478	2
0	79746	10818.91679458184	1
0	79750	10818.95506557841	2
0	79752	10819.339703191812	3
0	79753	10819.684164455475	2
0	79756	10820.123704621603	1
0	79759	10821.0509308759	0
0	79763	10821.067435494581	1
0	79765	10821.313249880197	2
0	79766	10821.46967963915	1
0	79770	10821.592956935425	2
0	79771	10822.274347732157	1
0	79775	10822.397687524185	2
0	79776	10822.991978904546	1
0	79780	10823.087411444059	2
0	79781	10823.478033589746	1
0	79785	10823.536033255041	2
0	79786	10824.048016564489	1
0	79791	10824.997388705925	0
0	79795	10825.218289398221	1
0	79797	10825.281602728425	2
0	79798	10825.570620379771	1
0	79802	10826.299564610156	2
0	79803	10826.537170699785	1
0	79807	10826.64794672788	2
0	79808	10827.091874243306	1
0	79812	10827.523011462731	2
0	79813	10827.859760114724	1
0	79816	10828.410510123369	0
0	79820	10828.554518534701	1
0	79821	10829.268281347199	0
0	79825	10829.526045958899	1
0	79826	10829.773804548836	0
0	79830	10829.784869301268	1
0	79831	10830.682970818166	0
0	79835	10831.391152795574	1
0	79836	10831.584436860761	0
0	79843	10832.594108317846	1
0	79844	10833.229091257216	0
0	79853	10833.974013946711	1
0	79854	10834.808455333566	0
0	80042	10861.508734311529	1
0	80047	10861.779252045729	0
0	80056	10862.857490897246	1
0	80057	10863.064346472208	0
0	80066	10863.837358767042	1
0	80067	10864.095223612652	0
0	80076	10865.545686037578	1
0	80077	10865.748082567693	0
0	80087	10867.277196866366	1
0	80088	10867.67922860555	0
0	80102	10869.463606491206	1
0	80103	10869.689005126186	0
0	80112	10870.27199029503	1
0	80114	10870.333148013699	2
0	80117	10870.797158485452	1
0	80120	10871.258145367714	0
0	80124	10871.803655671481	1
0	80125	10872.100596102268	0
0	80129	10872.240343110594	1
0	80130	10872.835571776458	0
0	80136	10872.979518570488	1
0	80137	10873.468904280604	0
0	80141	10873.802294343033	1
0	80142	10874.217434370506	0
0	80146	10874.597918532474	1
0	80148	10874.666761755307	2
0	80149	10874.85062837362	1
0	80153	10875.032187385494	2
0	80154	10875.360912092111	1
0	80158	10875.541999268027	2
0	80159	10876.158107969199	1
0	80163	10876.169850066147	2
0	80164	10877.120626880868	1
0	80168	10877.135394541786	2
0	80169	10877.699197221721	1
0	80172	10878.305561137373	0
0	80176	10878.475281418403	1
0	80178	10878.510448023315	2
0	80179	10879.250704312638	1
0	80183	10879.365207981146	2
0	80184	10880.171978813584	1
0	80189	10880.953838785539	0
0	80199	10882.346475931646	1
0	80202	10882.820048528757	0
0	80206	10882.821740703095	1
0	80208	10882.825448227998	2
0	80210	10883.359499357505	3
0	80211	10883.417498266218	2
0	80217	10883.649611169036	3
0	80218	10884.132465734878	2
0	80222	10884.402951155277	3
0	80223	10884.890987378718	2
0	80227	10885.191803639829	3
0	80228	10885.876096881494	2
0	80234	10886.596133398303	3
0	80235	10886.680590553243	2
0	80239	10886.685844796252	3
0	80241	10886.994201543212	4
0	80242	10887.26743111693	3
0	80248	10887.616133935214	4
0	80249	10888.070903802465	3
0	80253	10888.194553096798	4
0	80255	10888.310760709267	5
0	80256	10888.747255976626	4
0	80260	10889.034410419974	5
0	80261	10889.25219417297	4
0	80265	10889.359438550241	5
0	80266	10890.197272585879	4
0	80270	10890.419840536229	5
0	80271	10891.125728017638	4
0	80275	10891.523363378947	5
0	80276	10892.031126562959	4
0	80280	10892.056942467424	5
0	80281	10892.449504407995	4
0	80284	10892.955668217816	3
0	80288	10893.027285797453	4
0	80290	10893.229188950891	5
0	80291	10893.715508831373	4
0	80295	10893.945247232422	5
0	80298	10894.597420694899	4
0	80301	10895.508637737656	3
0	80305	10895.689907845091	4
0	80307	10895.872166561474	5
0	80308	10896.039348730432	4
0	80312	10896.472214662532	5
0	80313	10896.603549220447	4
0	80317	10897.108243327248	5
0	80318	10897.589288773701	4
0	80322	10898.144056763065	5
0	80323	10898.181235530075	4
0	80327	10898.393952615812	5
0	80328	10898.59404339817	4
0	80331	10899.074913029127	3
0	80335	10899.564243506513	4
0	80336	10899.819255208397	3
0	80340	10899.831443121687	4
0	80342	10900.065847683271	5
0	80343	10900.244879006441	4
0	80347	10900.400562729419	5
0	80348	10900.866586343278	4
0	80352	10901.104836380144	5
0	80355	10901.32067325193	4
0	80358	10902.075150785069	3
0	80362	10902.586772457717	4
0	80363	10902.789840518669	3
0	80367	10902.831165088151	4
0	80369	10902.872493331453	5
0	80371	10903.229624598125	6
0	80372	10903.452610216462	5
0	80375	10904.135050865947	4
0	80378	10904.93529174848	3
0	80382	10905.060392321538	4
0	80383	10905.509701610715	3
0	80387	10906.011026265848	4
0	80388	10906.068016389371	3
0	80392	10906.29520449787	4
0	80393	10906.57502597136	3
0	80397	10906.804566975239	4
0	80398	10907.184077299792	3
0	80401	10907.967816616675	2
0	80405	10908.333708817782	3
0	80407	10908.616189267909	4
0	80408	10908.758027050166	3
0	80412	10909.014985906244	4
0	80413	10909.543976952076	3
0	80417	10909.635555929122	4
0	80418	10910.467258115426	3
0	80421	10910.961352734721	2
0	80425	10910.968817288047	3
0	80427	10911.385900061148	4
0	80428	10911.514201312081	3
0	80432	10911.584572187921	4
0	80433	10912.199864130129	3
0	80437	10912.236323349054	4
0	80439	10912.552521504234	5
0	80440	10912.675138890452	4
0	80444	10912.753996163816	5
0	80445	10913.148496538948	4
0	80449	10913.828241685113	5
0	80450	10914.015647302137	4
0	80454	10914.412197093556	5
0	80455	10914.642311560863	4
0	80459	10914.66562182191	5
0	80460	10915.142972709366	4
0	80464	10915.649007219296	5
0	80465	10915.945184502273	4
0	80469	10915.95989853008	5
0	80470	10916.766607026325	4
0	80474	10916.970153610024	5
0	80475	10917.387763229839	4
0	80479	10917.403654224617	5
0	80480	10918.308960747055	4
0	80484	10918.505004710789	5
0	80487	10919.267977481789	4
0	80491	10919.549778196076	5
0	80492	10920.129020845412	4
0	80496	10920.156062993854	5
0	80498	10920.18835110623	6
0	80499	10920.611406912689	5
0	80502	10921.048795736522	4
0	80506	10921.532008382989	5
0	80507	10921.586059739475	4
0	80511	10921.672500410994	5
0	80515	10922.019422163289	6
0	80516	10922.041292684513	5
0	80520	10922.372660360786	6
0	80522	10922.628918328581	7
0	80523	10922.767179570102	6
0	80527	10923.059832194824	7
0	80528	10923.633881685638	6
0	80532	10924.200334038727	7
0	80533	10924.372764004662	6
0	80537	10924.537608019495	7
0	80538	10925.34877564836	6
0	80541	10925.919335261161	5
0	80544	10926.725580461776	4
0	80548	10927.266286273997	5
0	80551	10927.695557598151	4
0	80555	10928.087513031087	5
0	80556	10928.442483498236	4
0	80560	10928.645012824845	5
0	80561	10928.866961105667	4
0	80565	10929.308798589322	5
0	80567	10929.322669335495	6
0	80569	10929.347024157956	7
0	80570	10929.367277335782	6
0	80573	10929.864644663582	5
0	80577	10929.959690017524	6
0	80578	10930.598242663999	5
0	80583	10931.491254374699	4
0	80587	10931.656119590875	5
0	80588	10932.374118558352	4
0	80592	10932.631347498518	5
0	80593	10933.035634391743	4
0	80599	10933.585925624216	5
0	80600	10934.019792037073	4
0	80604	10934.254298539384	5
0	80605	10934.848910696374	4
0	80611	10935.29153847866	5
0	80612	10935.843315211905	4
0	80616	10936.098173309902	5
0	80617	10936.596670588421	4
0	80621	10936.739160083702	5
0	80622	10937.388962931315	4
0	80626	10937.59711088555	5
0	80627	10938.181008486951	4
0	80631	10938.366974812176	5
0	80632	10938.966286928289	4
0	80635	10939.436366515037	3
0	80639	10939.587773975205	4
0	80640	10940.380648389122	3
0	80644	10940.489322357861	4
0	80646	10940.80087541591	5
0	80647	10940.971656932392	4
0	80650	10941.947901239701	3
0	80654	10942.364577995447	4
0	80655	10942.926867204195	3
0	80658	10943.385466824321	2
0	80662	10943.784665801126	3
0	80663	10944.025647841662	2
0	80667	10944.129691547279	3
0	80668	10944.87066178819	2
0	80672	10944.884132831517	3
0	80673	10945.85961069254	2
0	80677	10945.906517610185	3
0	80678	10946.790459475329	2
0	80682	10946.87903762711	3
0	80683	10947.387858618924	2
0	80687	10947.441754803354	3
0	80688	10948.223910286173	2
0	80691	10948.695161549829	1
0	80694	10949.233474567102	0
0	80698	10949.505782680415	1
0	80700	10949.615323222261	2
0	80701	10949.781782542903	1
0	80705	10949.878328188972	2
0	80706	10950.588460302249	1
0	80710	10950.83780011575	2
0	80711	10951.462755567383	1
0	80717	10951.737438224323	2
0	80719	10952.11507715216	3
0	80720	10952.250126501674	2
0	80724	10952.295310116167	3
0	80725	10952.924699954398	2
0	80729	10952.973785606493	3
0	80730	10953.694138115587	2
0	80733	10954.138271425654	1
0	80737	10954.594756155687	2
0	80738	10954.656674219471	1
0	80742	10954.660412268258	2
0	80744	10954.665844392184	3
0	80745	10955.460878876633	2
0	80748	10955.863661556029	1
0	80751	10956.321269070626	0
0	80755	10956.75873062427	1
0	80756	10957.038585544879	0
0	80760	10957.12127012514	1
0	80762	10957.13665901261	2
0	80764	10957.262658928534	3
0	80766	10957.436128407926	4
0	80767	10957.501686285146	3
0	80771	10957.767139343105	4
0	80772	10958.307953553776	3
0	80776	10958.503135283952	4
0	80777	10959.113464231732	3
0	80781	10959.216365611404	4
0	80782	10959.676609053452	3
0	80786	10960.103388809945	4
0	80787	10960.15932845421	3
0	80791	10960.509712897625	4
0	80792	10961.019877362241	3
0	80795	10961.967214518961	2
0	80798	10962.532082108863	1
0	80802	10963.195558724075	2
0	80804	10963.202274261003	3
0	80805	10963.255080222514	2
0	80811	10963.512526192161	3
0	80813	10963.654978288061	4
0	80814	10964.064895255713	3
0	80818	10964.531223208959	4
0	80819	10964.904174528726	3
0	80823	10964.966236517047	4
0	80824	10965.807600813488	3
0	80828	10965.92465691291	4
0	80829	10966.587138498284	3
0	80832	10967.060647335358	2
0	80836	10967.298793680692	3
0	80838	10967.658031734447	4
0	80839	10967.664293555811	3
0	80843	10967.704593564144	4
0	80845	10967.76117722837	5
0	80846	10968.476798095729	4
0	80850	10968.899638675632	5
0	80851	10969.379803173233	4
0	80855	10969.534359940166	5
0	80856	10970.324229511375	4
0	80860	10970.803600460893	5
0	80861	10971.020799377317	4
0	80864	10971.443995248003	3
0	80868	10971.815258635211	4
0	80869	10971.988811713539	3
0	80873	10972.130059984767	4
0	80875	10972.735303558976	5
0	80878	10972.864981202397	4
0	80882	10973.104514211036	5
0	80883	10973.347413076076	4
0	80887	10973.713726127076	5
0	80889	10974.110178251138	6
0	80891	10974.123540164134	7
0	80892	10974.341481643531	6
0	80896	10974.609605343511	7
0	80897	10974.93846570215	6
0	80900	10975.862277565001	5
0	80903	10976.742913146167	4
0	80906	10977.317665236759	3
0	80910	10977.947303471711	4
0	80911	10978.11279196659	3
0	80915	10978.341654516562	4
0	80916	10978.514650998115	3
0	80919	10979.318589913463	2
0	80922	10979.773287294144	1
0	80926	10979.914670649795	2
0	80927	10980.235513449172	1
0	80930	10980.708606550973	0
0	80934	10981.521936324892	1
0	80935	10981.6680780013	0
0	80939	10981.757638786602	1
0	80940	10982.106790509392	0
0	80944	10982.423157115521	1
0	80945	10982.81376246511	0
0	80949	10982.819046051951	1
0	80951	10983.351302930337	2
0	80953	10983.35353810166	3
0	80954	10983.466886263424	2
0	80958	10983.666947446513	3
0	80960	10983.977447819781	4
0	80962	10984.250428896462	5
0	80963	10984.327342866724	4
0	80967	10984.605067407977	5
0	80968	10985.324774769637	4
0	80972	10985.439394094514	5
0	80976	10985.838340265268	6
0	80978	10985.847366257214	7
0	80980	10986.208449083926	8
0	80981	10986.214763257363	7
0	80985	10986.494779044014	8
0	80986	10986.82588837034	7
0	80990	10987.42707211162	8
0	80991	10987.713275996958	7
0	80995	10987.769365766302	8
0	80996	10988.338355257073	7
0	81000	10988.911877396295	8
0	81001	10988.924773966977	7
0	81004	10989.544355221502	6
0	81008	10989.571933510554	7
0	81009	10990.439590290552	6
0	81012	10991.04385190866	5
0	81016	10991.458888008716	6
0	81018	10991.459993029643	7
0	81019	10991.587657886874	6
0	81023	10991.949060822203	7
0	81025	10992.355273567767	8
0	81026	10992.367359290076	7
0	81030	10992.517842066943	8
0	81031	10993.199348673541	7
0	81035	10993.27017904132	8
0	81036	10993.736521421457	7
0	81040	10993.838638993667	8
0	81043	10994.630653191489	7
0	81046	10995.056519816062	6
0	81050	10995.09667893822	7
0	81051	10995.654412907027	6
0	81055	10995.8611577217	7
0	81056	10996.517010633964	6
0	81060	10996.77218570347	7
0	81062	10997.018317033485	8
0	81063	10997.025725039178	7
0	81067	10997.890455169401	8
0	81068	10997.984267595959	7
0	81071	10998.74725486258	6
0	81077	10998.875732097896	7
0	81078	10999.655009710639	6
0	81082	10999.875289974685	7
0	81085	11000.650637281909	6
0	81089	11000.784464568402	7
0	81091	11000.816521343172	8
0	81092	11001.504605063367	7
0	81096	11001.762076847089	8
0	81099	11002.071014139465	7
0	81103	11002.1841048715	8
0	81104	11002.479350163312	7
0	81108	11002.52612502537	8
0	81109	11003.060381351588	7
0	81114	11004.011309878891	6
0	81118	11004.73771756608	7
0	81119	11004.799402709761	6
0	81123	11004.945514010983	7
0	81124	11005.523037956599	6
0	81128	11005.546845566085	7
0	81130	11005.938793043019	8
0	81131	11006.262476115245	7
0	81134	11006.959087454145	6
0	81138	11006.972783287948	7
0	81140	11007.390716612356	8
0	81141	11007.741618787627	7
0	81145	11007.998095290394	8
0	81146	11008.576720311948	7
0	81150	11008.774583316964	8
0	81151	11009.417217938173	7
0	81155	11009.555020765954	8
0	81156	11010.200431992197	7
0	81159	11010.693289785264	6
0	81163	11011.043634507703	7
0	81165	11011.460124379418	8
0	81166	11011.667607900491	7
0	81170	11011.87646302591	8
0	81171	11012.488251534374	7
0	81175	11012.724759400487	8
0	81176	11013.146065776273	7
0	81180	11013.194854482802	8
0	81181	11013.55264830891	7
0	81185	11013.780732094847	8
0	81187	11014.05292115394	9
0	81188	11014.489550862591	8
0	81191	11015.048930780393	7
0	81195	11015.139821725206	8
0	81196	11015.706137045975	7
0	81200	11016.548866952346	8
0	81202	11016.557995631449	9
0	81203	11016.642248803553	8
0	81207	11017.067685699086	9
0	81208	11017.487760019897	8
0	81212	11017.645965144612	9
0	81213	11018.285264360801	8
0	81217	11018.413420351912	9
0	81218	11019.108766199917	8
0	81222	11019.500130887877	9
0	81223	11019.8669532115	8
0	81227	11020.410925231119	9
0	81229	11020.469921773761	10
0	81230	11020.509283838597	9
0	81234	11020.96002150861	10
0	81235	11020.966057545914	9
0	81239	11021.271086991666	10
0	81240	11021.483481114673	9
0	81244	11022.431448168479	10
0	81245	11022.480516566	9
0	81249	11022.510686068156	10
0	81250	11023.445911479778	9
0	81253	11024.045314785037	8
0	81256	11024.466473904662	7
0	81259	11024.92202585306	6
0	81264	11025.334039881443	5
0	81268	11025.339150307761	6
0	81270	11025.408289914605	7
0	81272	11025.46015356775	8
0	81274	11025.67533431035	9
0	81275	11026.057629942837	8
0	81278	11027.039413829417	7
0	81281	11027.629791816779	6
0	81285	11027.635410943729	7
0	81287	11027.760619721462	8
0	81288	11028.064317950782	7
0	81292	11028.345780940187	8
0	81293	11028.851355087374	7
0	81297	11029.497978981806	8
0	81298	11029.55656860181	7
0	81302	11030.209020930366	8
0	81303	11030.434032466066	7
0	81307	11030.529375045186	8
0	81308	11030.989188023134	7
0	81312	11031.170380912034	8
0	81313	11031.40093339783	7
0	81317	11031.699384549317	8
0	81318	11031.921698628262	7
0	81322	11032.203197538288	8
0	81323	11032.625809576538	7
0	81328	11033.211338196777	6
0	81332	11033.234251460903	7
0	81334	11033.800405143258	8
0	81335	11034.101278156217	7
0	81339	11034.166286124825	8
0	81340	11035.067625392915	7
0	81344	11035.48260056074	8
0	81345	11035.71795736578	7
0	81349	11035.872176265947	8
0	81350	11036.61225049541	7
0	81353	11037.103467174001	6
0	81357	11037.1866303007	7
0	81359	11037.807172003797	8
0	81360	11037.853580290951	7
0	81365	11038.499499171121	6
0	81369	11038.748596200973	7
0	81370	11039.494719234096	6
0	81373	11040.045731361197	5
0	81377	11040.15597641321	6
0	81379	11040.353093003963	7
0	81380	11040.704746566932	6
0	81384	11040.91390531824	7
0	81385	11041.623498872468	6
0	81388	11042.384623877458	5
0	81391	11042.894663823802	4
0	81395	11042.969877334526	5
0	81397	11043.579535161904	6
0	81398	11043.647888699952	5
0	81402	11043.884755074565	6
0	81403	11044.405560820443	5
0	81407	11044.498604708587	6
0	81408	11045.166269644522	5
0	81412	11045.863722266928	6
0	81413	11045.885078534516	5
0	81419	11046.336802899624	6
0	81421	11046.603575575324	7
0	81422	11046.66147215947	6
0	81426	11047.074140979338	7
0	81428	11047.361890794547	8
0	81429	11047.462838918375	7
0	81433	11047.758776266997	8
0	81434	11048.270948064406	7
0	81438	11048.680417955354	8
0	81439	11048.802337763072	7
0	81443	11048.994810867366	8
0	81445	11049.138795727827	9
0	81446	11049.263122550943	8
0	81449	11050.053924238156	7
0	81453	11050.536994259359	8
0	81454	11050.711796348156	7
0	81458	11050.951914404154	8
0	81459	11051.605781793208	7
0	81463	11051.632869083184	8
0	81464	11052.427574723759	7
0	81468	11052.868672600412	8
0	81469	11053.265863595843	7
0	81472	11053.941487296983	6
0	81476	11054.291920671745	7
0	81477	11054.682680004775	6
0	81481	11054.991124369011	7
0	81482	11055.491842982485	6
0	81486	11055.607535993171	7
0	81487	11056.20769702991	6
0	81491	11056.323742555586	7
0	81493	11056.335090733265	8
0	81495	11056.778015559531	9
0	81496	11057.021477573072	8
0	81500	11057.108727391361	9
0	81501	11057.73131351139	8
0	81505	11058.243966410028	9
0	81507	11058.504777724104	10
0	81508	11058.619804049223	9
0	81511	11059.261698548296	8
0	81515	11059.309040717389	9
0	81517	11059.322322535074	10
0	81518	11060.082868314102	9
0	81522	11060.470194042901	10
0	81523	11060.593458389897	9
0	81527	11060.608795159869	10
0	81528	11061.27056854962	9
0	81532	11061.734828590533	10
0	81533	11061.749110815382	9
0	81537	11061.757173813962	10
0	81538	11062.21745545644	9
0	81542	11062.25225479867	10
0	81543	11062.769307656993	9
0	81547	11063.035826205566	10
0	81548	11063.730111780052	9
0	81552	11064.152895029782	10
0	81553	11064.402969680994	9
0	81559	11065.202386599531	10
0	81560	11065.218730333529	9
0	81564	11065.440943131061	10
0	81565	11066.141953376902	9
0	81569	11066.219411343242	10
0	81571	11066.326430762897	11
0	81573	11066.452395681351	12
0	81574	11066.846218071494	11
0	81578	11067.327294840464	12
0	81579	11067.83135242787	11
0	81583	11068.354845203748	12
0	81584	11068.421549894044	11
0	81590	11069.056607425962	12
0	81591	11069.364175539406	11
0	81595	11069.379026312153	12
0	81596	11070.282904817898	11
0	81602	11070.509707591742	12
0	81603	11071.085226099974	11
0	81609	11071.575185479948	12
0	81610	11071.78436185954	11
0	81614	11071.837332722759	12
0	81615	11072.603919096653	11
0	81619	11072.708086340002	12
0	81620	11073.490700061935	11
0	81624	11073.589171704691	12
0	81626	11073.758635364844	13
0	81627	11074.197753038387	12
0	81631	11074.219386697668	13
0	81633	11074.510383850926	14
0	81634	11074.621753550125	13
0	81638	11074.630557100976	14
0	81639	11075.113748466354	13
0	81642	11075.609279795541	12
0	81646	11076.26637451268	13
0	81647	11076.382450543102	12
0	81651	11077.014211972408	13
0	81652	11077.251571421782	12
0	81656	11077.412900804407	13
0	81657	11077.772788340822	12
0	81661	11077.815643629225	13
0	81664	11078.425772249922	12
0	81668	11079.178115096253	13
0	81669	11079.337764618164	12
0	81673	11079.353721290998	13
0	81674	11079.8287916636	12
0	81677	11080.299424181729	11
0	81681	11080.653354812839	12
0	81683	11080.679075781533	13
0	81684	11080.703416310939	12
0	81688	11080.999418270671	13
0	81691	11081.639280786867	12
0	81694	11082.364379028826	11
0	81698	11082.504499231056	12
0	81701	11083.255696173235	11
0	81704	11083.788898535575	10
0	81708	11084.151512332385	11
0	81709	11084.614325885185	10
0	81713	11084.798099812845	11
0	81714	11085.189460182738	10
0	81717	11085.639351080766	9
0	81722	11086.067572310323	8
0	81726	11086.136096458526	9
0	81728	11086.29509819557	10
0	81729	11086.968336453743	9
0	81733	11087.090746563252	10
0	81734	11087.768465445272	9
0	81737	11088.765452968317	8
0	81741	11088.794357076592	9
0	81743	11089.187633347284	10
0	81744	11089.643421825475	9
0	81748	11089.843561363707	10
0	81749	11090.493135839828	9
0	81752	11091.212554805248	8
0	81756	11091.237694134279	9
0	81757	11091.645505100523	8
0	81761	11092.11284526566	9
0	81762	11092.413461368752	8
0	81765	11092.975706537615	7
0	81768	11093.530885198421	6
0	81772	11094.085474461575	7
0	81773	11094.12435777256	6
0	81776	11094.642504356044	5
0	81779	11095.217720690357	4
0	81783	11095.541922174448	5
0	81784	11095.770409732439	4
0	81787	11096.433533311809	3
0	81793	11096.997690044897	4
0	81795	11097.036065141377	5
0	81797	11097.082806630452	6
0	81798	11097.290863424713	5
0	81802	11097.31155932194	6
0	81804	11097.895845793102	7
0	81805	11098.098870943381	6
0	81809	11098.83806733513	7
0	81810	11098.908326298777	6
0	81814	11099.303020515656	7
0	81815	11099.590122227916	6
0	81819	11099.618238073627	7
0	81821	11099.861908411664	8
0	81822	11100.100582726053	7
0	81826	11100.583453938425	8
0	81827	11100.80287927141	7
0	81831	11101.276895967912	8
0	81832	11101.539176508817	7
0	81835	11102.289539651093	6
0	81839	11102.62490881237	7
0	81840	11103.257336377432	6
0	81844	11103.447535635343	7
0	81845	11103.878147410821	6
0	81849	11104.057217694016	7
0	81850	11104.359564551325	6
0	81854	11104.500640061511	7
0	81855	11105.289638556247	6
0	81859	11105.850610011072	7
0	81860	11105.91815496258	6
0	81864	11106.239969823468	7
0	81865	11106.722580224169	6
0	81868	11107.13328063943	5
0	81872	11107.169241282995	6
0	81875	11107.728464556379	5
0	81879	11108.001541937391	6
0	81881	11108.059354672782	7
0	81882	11108.163121634569	6
0	81886	11108.308685230648	7
0	81887	11109.155969246231	6
0	81893	11109.555085728126	7
0	81894	11109.757822283531	6
0	81900	11109.941258358003	7
0	81901	11110.336058464168	6
0	81905	11110.374396620079	7
0	81906	11111.238156683591	6
0	81910	11111.249276196108	7
0	81911	11112.135533057048	6
0	81914	11112.817010847979	5
0	81918	11112.912625631008	6
0	81919	11113.568961318896	5
0	81923	11113.571142714167	6
0	81924	11114.043693747033	5
0	81928	11114.545887905599	6
0	81929	11114.752402952906	5
0	81933	11115.174210217532	6
0	81934	11115.640400510222	5
0	81938	11115.853764777135	6
0	81939	11116.294947825033	5
0	81942	11116.802568311138	4
0	81946	11117.081239430901	5
0	81948	11117.09770381618	6
0	81949	11117.382458838481	5
0	81953	11117.592944611419	6
0	81954	11118.329384530369	5
0	81958	11118.65450146299	6
0	81959	11118.98579482989	5
0	81965	11119.433441071364	6
0	81966	11119.749003583552	5
0	81969	11120.428011068083	4
0	81973	11120.454573944792	5
0	81976	11120.966536311233	4
0	81980	11121.082999710066	5
0	81981	11121.815951840287	4
0	81985	11122.250168182127	5
0	81986	11122.318076147918	4
0	81990	11122.406514256321	5
0	81991	11123.297671059134	4
0	81995	11123.474394087567	5
0	81996	11124.058749765983	4
0	82000	11124.215565421184	5
0	82001	11124.459840687305	4
0	82004	11125.007930452131	3
0	82009	11125.502555365242	2
0	82013	11125.548321582767	3
0	82015	11125.555590088636	4
0	82017	11125.66518351071	5
0	82018	11125.983788238965	4
0	82023	11126.401128728628	3
0	82026	11127.345892044423	2
0	82030	11127.517414790773	3
0	82031	11127.811260884661	2
0	82035	11128.056156066284	3
0	82037	11128.256296773588	4
0	82038	11128.555883960925	3
0	82042	11128.985266265186	4
0	82044	11129.311596867373	5
0	82046	11129.381214327537	6
0	82047	11129.446002141839	5
0	82051	11129.521508497927	6
0	82052	11130.338572255043	5
0	82056	11130.716192663656	6
0	82057	11130.978350962825	5
0	82061	11131.258650870096	6
0	82062	11131.851834208459	5
0	82066	11131.92275303872	6
0	82067	11132.64981614811	5
0	82071	11132.770594058174	6
0	82072	11133.532115587905	5
0	82076	11133.810976189685	6
0	82077	11134.108112427998	5
0	82081	11134.251562689674	6
0	82082	11135.009281799277	5
0	82086	11135.179378329668	6
0	82089	11135.654059589082	5
0	82093	11135.7160977774	6
0	82094	11136.359561883412	5
0	82098	11136.573996071813	6
0	82099	11137.345847704015	5
0	82103	11137.514153977608	6
0	82106	11137.94331922269	5
0	82110	11138.137340165513	6
0	82111	11138.351327671004	5
0	82115	11138.480428956812	6
0	82118	11139.16268506114	5
0	82122	11139.278624793187	6
0	82123	11139.984216263691	5
0	82127	11140.135583251829	6
0	82128	11140.790923949784	5
0	82132	11140.795042778962	6
0	82135	11141.390791793527	5
0	82139	11141.631054420183	6
0	82140	11141.835406604117	5
0	82144	11142.092000090711	6
0	82145	11142.390519311359	5
0	82149	11142.72159284189	6
0	82150	11142.975046300595	5
0	82156	11143.502631299133	6
0	82157	11143.547278642734	5
0	82161	11143.652156358234	6
0	82162	11144.094546177364	5
0	82166	11144.264843685674	6
0	82167	11144.634132323307	5
0	82171	11144.878708730712	6
0	82172	11145.465217937981	5
0	82176	11145.629422751252	6
0	82177	11146.310841064747	5
0	82180	11146.903258829038	4
0	82186	11147.093923734075	5
0	82188	11147.37231466298	6
0	82189	11147.476654708418	5
0	82193	11147.483799498253	6
0	82194	11148.237602868103	5
0	82198	11148.460036745442	6
0	82199	11148.985817909087	5
0	82203	11149.283406057012	6
0	82204	11149.569341334035	5
0	82208	11149.5926825506	6
0	82211	11150.330945883771	5
0	82215	11150.35573523686	6
0	82216	11150.935126435743	5
0	82219	11151.383436663575	4
0	82225	11151.666006563457	5
0	82227	11151.72367815181	6
0	82228	11151.790805041404	5
0	82232	11151.918093452844	6
0	82233	11152.468598890198	5
0	82237	11153.284317181698	6
0	82238	11153.363182622647	5
0	82243	11153.882434453523	4
0	82246	11154.674996171087	3
0	82250	11155.082151548126	4
0	82251	11155.195847585924	3
0	82255	11155.265246816071	4
0	82256	11155.658223917555	3
0	82259	11156.325492774822	2
0	82263	11156.450981590841	3
0	82266	11157.208853313826	2
0	82271	11157.770099284394	1
0	82275	11157.912787143114	2
0	82276	11158.24848082367	1
0	82280	11158.464049464411	2
0	82282	11158.760263446262	3
0	82283	11158.937611130845	2
0	82287	11159.002255171806	3
0	82290	11159.380128902277	2
0	82294	11159.988521124538	3
0	82295	11160.01537175112	2
0	82299	11160.207377769873	3
0	82300	11160.7977754637	2
0	82303	11161.35124255776	1
0	82307	11161.492249753687	2
0	82308	11162.305003613593	1
0	82311	11163.011980848094	0
0	82315	11163.172050152342	1
0	82316	11163.712915663035	0
0	82320	11163.99897927084	1
0	82321	11164.580747180791	0
0	82325	11164.861943651627	1
0	82326	11165.245983247026	0
0	82330	11165.372029284482	1
0	82331	11165.677145735161	0
0	82335	11165.848889845428	1
0	82337	11166.0905453093	2
0	82338	11166.589599314691	1
0	82341	11167.286198263043	0
0	82345	11167.384038430596	1
0	82348	11167.718652490606	0
0	82352	11168.400985710695	1
0	82353	11168.405877040918	0
0	82357	11168.508126162019	1
0	82358	11169.175357679077	0
0	82362	11169.265721044135	1
0	82363	11170.022896304712	0
0	82367	11170.353230416682	1
0	82368	11170.711683884668	0
0	82372	11170.92291448576	1
0	82373	11171.325587477148	0
0	82377	11171.374104273641	1
0	82378	11171.787273617726	0
0	82382	11171.806269357622	1
0	82383	11172.569021457978	0
0	82390	11173.081702567993	1
0	82392	11173.553399654012	2
0	82393	11173.593504507592	1
0	82398	11174.256343230357	0
0	82402	11174.314202100886	1
0	82405	11175.182823600186	0
0	82409	11175.214162725923	1
0	82410	11175.876284813121	0
0	82414	11176.569907709758	1
0	82415	11176.823496813079	0
0	82419	11177.431809944209	1
0	82420	11177.559836174858	0
0	82427	11178.23181223838	1
0	82428	11178.700865455375	0
0	82435	11179.566842890799	1
0	82438	11180.20393934197	0
0	82445	11181.268611338847	1
0	82446	11181.65763716128	0
0	82458	11183.457375859945	1
0	82459	11183.982113570751	0
0	82523	11193.4774874558	1
0	82526	11193.74172056069	0
0	82530	11194.16749240605	1
0	82533	11194.593809636201	0
0	82537	11194.703252403376	1
0	82542	11195.571389359639	0
0	82546	11195.620469703276	1
0	82547	11196.018003385033	0
0	82553	11196.578169813637	1
0	82554	11196.793053675195	0
0	82564	11198.203962906476	1
0	82566	11198.342209962155	2
0	82569	11198.705433164661	1
0	82573	11199.37510388042	2
0	82574	11199.506115680591	1
0	82577	11200.096535509576	0
0	82581	11200.323090690466	1
0	82582	11200.717554140774	0
0	82592	11201.868976534226	1
0	82593	11202.403931266658	0
0	82597	11202.70961525465	1
0	82598	11202.929616110289	0
0	82604	11203.075482587696	1
0	82607	11203.391603752953	0
0	82611	11203.391795935244	1
0	82612	11204.16739787276	0
0	82616	11204.345218668015	1
0	82617	11204.909986456745	0
0	82621	11205.122879767879	1
0	82622	11205.691601391724	0
0	82631	11206.887031723035	1
0	82634	11207.394424243067	0
0	82638	11207.497861359226	1
0	82641	11207.955737399059	0
0	82647	11208.420066779444	1
0	82648	11208.732571366178	0
0	82661	11210.932648536114	1
0	82663	11211.060356483348	2
0	82665	11211.17073864451	3
0	82668	11211.317037649574	2
0	82671	11212.233787285565	1
0	82677	11212.894850580243	2
0	82678	11212.950544507783	1
0	82682	11213.159007804217	2
0	82683	11213.514800744159	1
0	82687	11213.574990386659	2
0	82688	11214.152629233552	1
0	82692	11214.274199909651	2
0	82694	11214.799773603899	3
0	82695	11214.970543226907	2
0	82700	11215.895670649158	1
0	82705	11216.315392218605	0
0	82709	11216.384171674384	1
0	82711	11216.536040842624	2
0	82712	11217.123853502777	1
0	82716	11217.179362534256	2
0	82717	11217.592197208973	1
0	82721	11217.700008988436	2
0	82722	11218.27971476282	1
0	82726	11218.309775083466	2
0	82727	11219.183467080146	1
0	82730	11219.595151618011	0
0	82734	11219.653929795124	1
0	82736	11219.73137856622	2
0	82738	11219.878565106365	3
0	82740	11219.888169773754	4
0	82741	11220.539231656147	3
0	82745	11220.921789177606	4
0	82746	11221.083920986792	3
0	82750	11221.167278741232	4
0	82751	11222.043608628334	3
0	82755	11222.052637109291	4
0	82756	11222.457525502406	3
0	82762	11222.930188945577	4
0	82763	11223.24608970874	3
0	82766	11223.704022388375	2
0	82770	11224.047005127029	3
0	82771	11224.154932712187	2
0	82775	11224.241727877851	3
0	82777	11224.366898681003	4
0	82778	11224.982823831151	3
0	82782	11225.303371040036	4
0	82783	11225.809878549055	3
0	82786	11226.313804111472	2
0	82790	11226.754496137978	3
0	82791	11226.796969484101	2
0	82795	11227.022415241242	3
0	82797	11227.0661121131	4
0	82798	11227.284162641159	3
0	82802	11227.512354694817	4
0	82803	11227.956513946299	3
0	82807	11228.726537490562	4
0	82808	11228.909465243789	3
0	82812	11229.141926555552	4
0	82813	11229.411160224332	3
0	82816	11229.826393290638	2
0	82820	11230.438111575105	3
0	82821	11230.488385353872	2
0	82825	11230.527961537734	3
0	82827	11230.841797780977	4
0	82830	11231.006254782604	3
0	82834	11231.482312130046	4
0	82835	11231.650398749655	3
0	82838	11232.61138728562	2
0	82842	11233.262651757722	3
0	82843	11233.39299226653	2
0	82847	11233.663397426795	3
0	82848	11233.866852312891	2
0	82852	11234.224467948565	3
0	82853	11234.839453062212	2
0	82857	11235.245960950403	3
0	82858	11235.753661970824	2
0	82862	11235.845718440148	3
0	82863	11236.360977765296	2
0	82867	11236.438441233916	3
0	82868	11236.87040573017	2
0	82872	11237.1034252374	3
0	82873	11237.577539022856	2
0	82877	11238.015979534228	3
0	82879	11238.057704958601	4
0	82880	11238.448537655717	3
0	82884	11238.681601013493	4
0	82885	11239.047308359884	3
0	82889	11239.360639310618	4
0	82890	11239.524415444054	3
0	82894	11239.52891252265	4
0	82895	11240.288794998156	3
0	82898	11240.92327261165	2
0	82902	11241.133302097461	3
0	82903	11241.840176342923	2
0	82907	11242.282649898243	3
0	82909	11242.396680075819	4
0	82910	11242.71127661111	3
0	82914	11242.853471874981	4
0	82915	11243.511302628584	3
0	82919	11243.683078047692	4
0	82920	11244.269617545076	3
0	82924	11244.402722254135	4
0	82925	11245.032170177747	3
0	82929	11245.590365511823	4
0	82930	11245.815728900658	3
0	82934	11245.839778496527	4
0	82935	11246.678842339555	3
0	82939	11246.976298581682	4
0	82942	11247.15530829279	3
0	82946	11247.203990289196	4
0	82947	11248.042480522238	3
0	82951	11248.351911764902	4
0	82952	11248.596752830951	3
0	82956	11248.834260126514	4
0	82957	11249.114331494255	3
0	82960	11249.62023136493	2
0	82963	11250.239134209726	1
0	82966	11250.93038873438	0
0	82970	11251.139351795779	1
0	82972	11251.242527426476	2
0	82974	11251.452919474172	3
0	82975	11251.908246649832	2
0	82978	11252.552045134951	1
0	82982	11252.570411391307	2
0	82984	11252.72054457765	3
0	82985	11253.459267999821	2
0	82989	11253.760980754062	3
0	82990	11254.057469265566	2
0	82994	11254.28757833242	3
0	82995	11254.953722761555	2
0	82999	11255.206807648798	3
0	83000	11255.554332175741	2
0	83003	11256.288290511241	1
0	83007	11256.607973311578	2
0	83008	11256.779651091603	1
0	83011	11257.37613112976	0
0	83018	11258.539727169057	1
0	83020	11258.941109649451	2
0	83021	11259.030890245066	1
0	83025	11259.032410855895	2
0	83026	11259.457182001025	1
0	83031	11259.994590001023	0
0	83038	11261.107236861686	1
0	83040	11261.256268467048	2
0	83041	11261.360572614176	1
0	83044	11261.83621911875	0
0	83048	11262.081977414593	1
0	83049	11262.402919124421	0
0	83053	11262.515160730741	1
0	83054	11263.007635183195	0
0	83058	11263.440954177262	1
0	83059	11263.62125330803	0
0	83063	11263.660847218473	1
0	83064	11264.204422851121	0
0	83068	11264.606045610399	1
0	83069	11264.946327447779	0
0	83073	11265.201892380674	1
0	83074	11265.611524879867	0
0	83078	11265.676400842006	1
0	83079	11266.0821115332	0
0	83086	11267.057657913585	1
0	83088	11267.145331319915	2
0	83089	11267.310455154375	1
0	83094	11267.877245388021	0
0	83098	11268.360028895303	1
0	83099	11268.429844583365	0
0	83103	11268.547988988074	1
0	83104	11269.195067728664	0
0	83108	11269.33576405896	1
[...]
9	144698	19656.111641235512	2.409325141303
9	144760	19665.851068588162	0.560411294084
9	144765	19666.547679355975	0.696610767813
9	144770	19667.004826602109	0.457147246134
9	144796	19671.1358264233	0.720352198835
9	145105	19712.93641867093	0.508467869973
9	145128	19716.696303008359	0.860049969377
9	145141	19718.999085468661	0.631690231012
9	145420	19756.43126584799	0.816586028738
9	145527	19770.648850228592	12.235594776756
9	145585	19778.757398179919	6.865264239838
9	145630	19784.405199362433	2.615504240204
9	145699	19793.768034827293	0.668819465209
9	145870	19818.564618683189	2.992200267322
9	145880	19820.087188635722	2.665129589121
9	145883	19820.817766520895	3.915332527377
9	145924	19825.031589863079	0.533016691869
9	145940	19827.967932463952	2.82006926154
9	145983	19834.632410183412	0.712126325071
9	146067	19844.815730002571	1.940274439855
9	146117	19852.99394785343	0.719098841958
9	147109	19986.925578204689	5.083690045334
9	147385	20026.528780703722	1.221376459738
9	147530	20045.954669225131	2.582211111315
9	147548	20048.875911713585	1.444398405617
9	147602	20056.651038223652	2.7067829545
9	147637	20061.852435136686	1.316048842374
9	147706	20073.275565422333	4.243713437033
9	147714	20074.38746175762	3.218109241201
9	147728	20076.002464549948	4.358735985506
9	148717	20208.915971600832	2.860095299335
9	149298	20290.317610818109	0.526637025876
9	149351	20297.654327429327	0.6748572574
9	149367	20298.762796832583	0.678227114119
9	149495	20316.005408216926	0.59126032209
9	149510	20318.083482308785	0.418195417663
9	149519	20319.761165301694	0.719963262323
9	149524	20320.579754711181	0.818589409487
9	149529	20321.370599491574	0.790844780393
9	149546	20323.58448993797	0.839614074025
9	149580	20327.73080335963	0.618307954445
9	149624	20334.720336412923	0.889374320954
9	149658	20339.009599348954	0.584053834155
9	151960	20662.065363683406	3.929091544026
9	151970	20663.930505217653	12.653483396062
9	152243	20700.462409185103	9.44718912085
9	153030	20804.685940980957	1.561722189733
9	153164	20824.374019359006	12.832891066124
9	153326	20847.224278498258	2.291615544835
9	153340	20849.946793271931	2.48269999911
9	153427	20863.924520535632	2.365921237364
9	153454	20868.237040077247	3.681841238801
9	153483	20871.885784123236	0.856570097245
9	153525	20877.485460757795	3.457067302509
9	153545	20880.243546266718	0.847410643892
9	153553	20881.49540070021	11.995207878232
9	153622	20892.253254380314	1.340850140242
9	153720	20904.333951765815	1.905883370459
9	153751	20908.35914809532	0.571502473112
9	153877	20925.157442333321	1.606039110027
9	153949	20934.366806905676	1.312651377545
9	153959	20935.806121470366	1.372656458602
9	154010	20943.228695892781	3.243922675901
9	154243	20973.710866950457	0.968097118102
9	154261	20976.46559317783	6.087143842193
9	154268	20976.951610799092	0.486017621262
9	154949	21071.054982778531	3.395084097978
9	155026	21082.38275227557	5.593911076365
9	155084	21091.152214148184	2.712577171614
9	155116	21095.376529225063	3.343207029635
9	155204	21107.044620434574	2.89591974139
9	155212	21108.321401258937	0.820570546901
9	156177	21237.943056591751	2.0539216508
9	156203	21241.905675982649	0.685021382011
9	156227	21246.521152544685	0.963218739675
9	156238	21248.656866136764	7.34425070487
9	156294	21257.157915825874	1.770233657464
9	156329	21261.864233018934	0.584686770383
9	156384	21270.830890978698	2.042046629665
9	156405	21273.105093256675	1.831353386028
9	157057	21359.863823447523	4.33843122181
9	157321	21397.901476429175	2.418547334523
9	157437	21416.406628754554	0.48648415464
9	157768	21463.273182024252	0.643027201109
9	157838	21474.466278257552	3.682982890026
9	157954	21490.344399387627	2.624699803618
9	157966	21491.39629721372	20.422884444404
9	159041	21636.156083485399	15.782582801966
9	159066	21639.606019681839	4.70181132013
9	159114	21646.296215316336	2.960075161553
9	159156	21653.365845755451	5.493529830316
9	159185	21657.056234195465	0.784589428501
9	159345	21678.631107778572	2.366776560745
9	159372	21681.520313328137	1.230034194775
9	159390	21684.321308649243	2.984674417429
9	159435	21690.663554948573	0.823280556453
9	159550	21706.552702625472	1.72200689792
9	159771	21737.138274552769	10.773858300898
9	159992	21765.150369032152	1.380749788105
9	160451	21828.881418599283	2.736301063234
9	160533	21840.913847409006	5.822158620781
9	160554	21843.17522900212	3.877727959124
9	160592	21849.149923900705	2.227129296587
9	160724	21867.515833006199	8.38312979888
9	160812	21878.434884790058	7.889178667412
9	160915	21892.86079510572	2.391151362939
9	161029	21908.271388150711	6.578447622138
9	161032	21908.843503132375	0.572114981664
9	161057	21912.085410904518	3.98172006911
9	161094	21918.322418828221	9.939892104137
9	161143	21925.136359156347	5.321456842455
9	161255	21939.677099698462	3.080733336819
9	161334	21949.990815582784	0.658491570363
9	161369	21954.996387837135	0.979808229115
9	161443	21964.07670313209	12.674495187197
9	161470	21967.940698433954	1.767671016609
9	161494	21971.884144955461	0.554036810063
9	161514	21974.428932243266	0.540849438868
9	161596	21984.969326100739	3.728290559175
9	162889	22156.909952052647	2.893847026358
9	162982	22170.920292585493	4.672569617597
9	163124	22189.375601578002	4.381607790407
9	163265	22208.306818850021	1.387659499321
9	163373	22221.415442136079	0.766688450752
9	163408	22226.75383789531	3.755092091707
9	163552	22245.604386200719	7.348614230341
9	163568	22248.23866596451	0.689219500264
9	164145	22331.033622406713	7.114153131957
9	164254	22344.517953785006	0.715553045599
9	164382	22362.50938489112	6.56970900854
9	164407	22366.305976465354	6.933898571026
9	164941	22441.73097524206	3.767606920127
9	165320	22495.14977588659	11.430120666867
9	165343	22499.184709272077	0.823490940966
9	165437	22513.172966685853	0.947874150891
9	165453	22516.047972627086	0.691759508476
9	165478	22519.454113356824	0.549902052013
9	165539	22528.167037861104	0.491698675044
9	165570	22531.723967278199	5.818734665212
9	165679	22546.94083237272	3.167748205397
9	165758	22557.478887034547	8.939613688847
9	166255	22621.05735865805	7.221505932687
9	166273	22624.275744853324	2.72422636422
9	166281	22625.209936522755	14.866518214882
9	167175	22753.218478269516	1.908959111206
9	167223	22760.61519621803	3.956079966949
9	167247	22763.007836750956	12.197056385789
9	167303	22769.8176940045	3.647881151312
9	167323	22772.572890164811	5.579149887419
9	167333	22773.939911370786	6.604279067785
9	167339	22775.285626497786	6.426932989517
9	167837	22842.330398209594	9.641730229829
9	167860	22845.48094305514	16.68346687059
9	167863	22845.978195617642	1.221000256445
9	167866	22846.860857607579	2.732380298687
9	167879	22848.779799164009	1.435338476464
9	167897	22851.317489566343	0.735383941326
9	168000	22863.853403066859	4.379642759782
9	168005	22864.270522717821	2.950706142472
9	168214	22893.68194407473	2.938499967085
9	168263	22900.381155525025	1.625786638844
9	168291	22904.78425820099	2.25049521505
9	168572	22942.556187187709	2.675511945878
9	168676	22956.458615719775	0.856411113916
9	168902	22988.91160645314	0.828872694448
9	168922	22991.788096445813	2.771899468688
9	168925	22992.236170479995	6.158731609215
9	169041	23006.821488215834	0.724394130101
9	169048	23007.321947188921	5.06479057107
9	169143	23018.132915944712	1.337412541164
9	169199	23025.389289983142	20.070459262009
9	169221	23028.455215421378	0.817195641901
9	169229	23030.315536705417	16.902128883254
9	169612	23079.625500639027	30.26312231408
9	169801	23107.330923699923	2.892216089176
9	171649	23362.900136619966	11.624092906645
9	171732	23374.23898439577	17.967016407199
9	171959	23406.900024496132	5.984305408545
9	172017	23413.680882594149	7.00470829401
9	172196	23437.271509305825	1.973153526306
9	172245	23444.461427040276	7.455884299876
9	172253	23445.536782477348	7.920180972832
9	172371	23462.134511516261	2.955495604265
9	172387	23464.512504188222	1.658321570521
9	172478	23475.571041258116	4.580962445988
9	172502	23479.784947479347	11.804049890664
9	172588	23492.930298328696	8.866273161672
9	172607	23495.065320900751	21.140025181578
9	172622	23496.736364537028	4.723535665541
9	172630	23497.885614617744	3.691592121846
9	173412	23600.605701651723	4.986689100809
9	173635	23629.984550384778	11.659818849116
9	173708	23641.132164447356	1.727618333008
9	173807	23654.009982842786	0.51111175064
9	173862	23661.844482681131	0.773053035466
9	173887	23665.787684755935	4.532685417484
9	173951	23673.911843421053	0.768308616197
9	173969	23676.704688992839	0.916863366403
9	173979	23678.314228188128	5.587706653234
9	174017	23684.414494662381	19.190914075251
9	174135	23700.234077206275	16.247439008067
9	174217	23712.007377331539	0.69896326866
9	174289	23722.400561247787	0.956068571983
9	174346	23732.352617851014	2.674309985686
9	174525	23758.84666089441	2.929763118429
9	174630	23771.542456052613	8.54766062103
9	174648	23774.257257916333	0.546747866552
9	174656	23775.449653650561	7.604251361562
9	174863	23805.384469950125	4.044366946665
9	175421	23880.517315930663	8.772582937086
9	177367	24142.958037299542	9.30059886175
9	177557	24168.141563187885	6.525082964962
9	177587	24171.992603865053	0.862965191528
9	177803	24200.848813118805	2.741937580011
9	178660	24315.289921208537	0.989270655299
9	178852	24339.895192543483	0.553295399155
9	178904	24347.711088443241	14.906998602432
9	179381	24410.158976677687	1.906622013368
9	179399	24412.814514890708	2.423432185596
9	179491	24425.291451509366	2.130135968861
9	179684	24448.924399826138	11.402066446024
9	179870	24475.613420518272	7.87701601493
9	182126	24785.142743942112	4.425425462298
9	182156	24788.706412504305	4.180072331126
9	182223	24796.884801708087	1.58697531181
9	182301	24807.838036266733	6.681133295843
9	182344	24813.801880662395	3.154608116019
9	182370	24817.511166063669	2.387847167416
9	182390	24820.055360524051	0.404569474841
9	182428	24826.410248460082	2.403811825698
9	182436	24827.770147558322	3.828547333203
9	182489	24834.021771602308	3.757525066996
9	182551	24842.432320779538	2.072562179863
9	182611	24851.20821998145	0.856947815698
9	182646	24855.641744096275	16.430148248733
9	182706	24865.528989995203	1.980869245662
9	182797	24878.486268485361	6.375364441699
9	182854	24886.309008698098	1.718380623086
9	183126	24926.667976807176	3.110221113777
9	183516	24978.715269461949	0.916153538506
9	183631	24995.634381136137	4.405832406698
9	183727	25006.157054967644	2.759872788617
9	184620	25126.361598794556	4.571531040235
9	184917	25165.866854861912	0.69894091608
9	185002	25177.893228359355	7.282092740381
9	185100	25189.402421675084	2.081497934442
9	185148	25196.491492922856	6.595786934052
9	185177	25199.932488030726	3.530966928304
9	185220	25206.446358529776	3.842175472156
9	185826	25285.153403222069	3.868817585106
9	185873	25291.821303875018	2.045236779467
9	185989	25305.331225827403	1.658385868951
9	186004	25307.499435164008	11.716619238322
9	186106	25322.290808571569	10.529428209395
9	186164	25328.764179475765	6.081262354002
9	186203	25333.198353354746	2.298781205556
9	186206	25334.041530849479	2.998396879336
9	186815	25413.112218465953	0.969761436898
9	186818	25413.603373996046	0.491155530093
9	186834	25416.063346069369	4.248304483734
9	186897	25425.187624228017	0.411237267358
9	187047	25445.881884484385	1.571498303381
9	187068	25448.974752723864	1.77283408856
9	187256	25475.358247900774	11.393773721571
9	187494	25506.636222475136	2.537704413222
9	187936	25564.657145301313	1.542208297246
9	188121	25589.193092284274	1.682418029861
9	188245	25607.344775360141	1.768311689149
9	188270	25610.847191345663	1.104240325745
9	188299	25616.506037940988	1.50004678348
9	188343	25622.708871278372	1.464043541145
9	188366	25626.436907454878	0.592529508052
9	188372	25627.473241979973	2.870346110061
9	188602	25659.037558595111	5.316618064185
9	188714	25675.338260485207	6.782203356002
9	188791	25686.42339878932	0.914846035931
9	189072	25724.064398164742	0.581996566849
9	189092	25727.366958645706	0.744222854776
9	189100	25728.989228929321	0.950163416425
9	191006	25989.841776589463	0.885081567382
9	191162	26011.649903467548	0.693155210046
9	191167	26012.29297669243	0.643073224882
9	191173	26013.822914201505	0.916679425538
9	191198	26017.258879531566	0.531546354201
9	191246	26023.944511106954	3.293514187313
9	191267	26026.301948386449	0.955872743204
9	191332	26036.027283123154	3.168859989326
9	191979	26116.833535554743	2.501331416219
9	192036	26125.778926558949	4.531201567993
9	192041	26126.286178441921	7.011743389704
9	192044	26126.841307590965	0.555129149044
9	192047	26127.503378525952	2.964915187118
9	192073	26131.387469000946	0.695871286141
9	192106	26135.732491395826	4.171642684875
9	192187	26147.177069008555	0.935133599956
9	192314	26162.381433433827	0.909715893352
9	193069	26264.354868901773	8.158451434714
9	193155	26275.032972761028	1.708009866399
9	193243	26286.690496117221	6.931804988026
9	193277	26290.167666747717	8.103196474274
9	193284	26290.597894839028	4.551590863813
9	193367	26302.145163193314	3.383206067816
9	193409	26308.091895787015	2.092104888387
9	193432	26311.324740957299	7.01771130532
9	193792	26359.886193607113	0.694198610308
9	193984	26387.782679079257	4.918137102186
9	193992	26388.914394711394	0.406879878137
9	194082	26400.80071003569	5.501939807408
9	194112	26405.333246016844	5.440826526054
9	194282	26428.429678850732	4.764889451508
9	194387	26442.627503504387	6.325769148342
9	194429	26448.631622403363	1.740312005845
9	194708	26489.023448253814	0.768962083198
9	194771	26497.082450604736	0.401152067445
9	194803	26501.050784463034	0.509010656597
9	194845	26508.902169224359	7.631328017565
9	195314	26568.120742723316	1.805592418598
9	195343	26571.135120410443	5.621580776121
9	195351	26572.566818526079	1.596857701237
9	195449	26587.000973047472	2.010287976739
9	195516	26596.339920721129	0.708264794992
9	195571	26604.799080488665	0.67648047274
9	195595	26608.123523194829	2.224762701521
9	195648	26615.20974591912	1.878019770398
9	195898	26649.054548363736	1.297672563543
9	195981	26659.932255329726	3.409839207184
9	196165	26682.680298373545	2.234333804228
9	196308	26702.053007342547	15.83395939363
9	196376	26710.355028166828	1.468453485855
9	196425	26715.535050436968	2.962427223099
9	196443	26719.019028732575	11.294672759384
9	196451	26720.588226038286	3.153058240249
9	196498	26728.544242845869	1.39707359968
9	196637	26745.953697199671	0.951805471908
9	196647	26747.331774219189	9.689644723744
9	196663	26750.398104655201	15.305975606711
9	196885	26780.708763749355	0.757592176972
9	197246	26828.738491185864	2.985744993572
9	197322	26839.067265519283	0.536693568062
9	197420	26852.205288152319	7.1110587517
9	197679	26888.427087039099	10.373440992206
9	199055	27069.538472911449	4.31550046894
9	200754	27300.995411504019	0.483232031669
9	200932	27325.281493569311	3.732620439563
9	201414	27390.696010286836	4.08030435984
9	201451	27396.994368157451	2.580760852419
9	201729	27431.584858947019	1.77172732613
9	202077	27476.251044736807	9.470098241833
9	202198	27493.439614837761	3.058430077361
9	202316	27510.495281826198	7.605911727751
9	202413	27525.422832333301	0.590520878555
9	202460	27532.189168899232	3.47505484503
9	202571	27547.976805054866	6.838223090018
9	202679	27563.842157227456	0.459049796918
9	202713	27568.229694754913	5.28468880369
9	202865	27589.78247701163	10.383518799774
9	202961	27603.538887445123	3.476615597195
9	202966	27604.471522409522	2.32198351115
9	202978	27606.961111604381	4.515514545538
9	203087	27621.716795541909	2.244937944683
9	203095	27623.222854507812	11.501678097511
9	203100	27624.089764647097	1.70564093581
9	203163	27632.829609574988	11.058433746601
9	203271	27647.572977319643	15.827685583875
9	203296	27651.350218158407	13.229804601213
9	203518	27679.908428703859	0.642333014961
9	203543	27683.658973160625	3.673850670773
9	203590	27690.269793720968	15.320210277688
9	203668	27699.824172300618	1.850630709499
9	203733	27708.81391527346	4.194320093106
9	203947	27737.934298964177	5.419322003181
9	204036	27750.467727877162	4.011184919337
9	204097	27759.557701606218	0.67075493522
9	204163	27768.928414363514	0.732249479042
9	204175	27770.478278692493	4.44083147207
9	204214	27776.779422518992	7.61460577189
9	204231	27779.148625566772	1.667209396913
9	204372	27796.590753877918	3.304055097394
9	204747	27848.941742664445	3.420638934307
9	204792	27855.326919468502	9.749314823238
9	204853	27862.51522513182	2.310480338947
9	205075	27894.635988616167	4.756607367323
9	205080	27895.3623200779	1.690292788554
9	205085	27896.213909890099	1.961657721858
9	205799	27993.700425457266	4.198518947839
9	206238	28053.87897899865	0.74874300519
9	206253	28055.757366995903	0.50953932181
9	206282	28060.178770127864	12.441175215789
9	206290	28061.950596053544	8.020091280942
9	206329	28066.350952396514	0.465286217863
9	206559	28100.909953895883	1.983630857346
9	206589	28105.154862424146	2.267549150233
9	206625	28108.979990586239	0.553417436453
9	206878	28140.397685710175	8.299654205485
9	206908	28146.353134867802	2.039701481667
9	206926	28148.973085123972	0.966029462544
9	206936	28150.241038483447	13.956232328883
9	207080	28169.067027580757	11.473233084322
9	207154	28179.121013146702	0.478198656626
9	207481	28222.282603552491	5.29563229802
9	207642	28244.955244634922	5.570584396956
9	207720	28255.50153026871	0.970830937568
9	207736	28257.802845781637	0.437511480972
9	208275	28328.945113475449	2.051895863993
9	208378	28344.002307434769	1.835786807754
9	208510	28360.885416951418	1.954567824523
9	208719	28392.838755364686	3.020948225441
9	208839	28408.113239478567	1.604120075774
9	208903	28415.713567639202	4.332152738021
9	209034	28431.753437297526	1.626275809983
9	209070	28436.73599956186	4.771492927996
9	209688	28522.314936540658	0.504501355998
9	209782	28535.869199737123	2.868820991278
9	209785	28536.513086775093	0.64388703797
9	209842	28542.972333977472	6.204888843429
9	210111	28578.491110119185	4.241099395513
9	210205	28591.460453638257	37.012593853696
9	210406	28618.460691236431	1.295015546266
9	210493	28629.134861589553	7.454325458719
9	210870	28678.77295552013	7.865421489911
9	210988	28694.665268152771	1.965559063262
9	211109	28712.807280141725	0.537249936163
9	211283	28738.3622003899	0.899681879906
9	211298	28740.584714502054	0.966480325954
9	211315	28742.897974696993	3.835998494577
9	211397	28753.77770796172	0.761997896526
9	211558	28776.862610035721	13.132029126172
9	212051	28844.527540624844	26.54501062783
9	212093	28849.885504432214	9.414243393037
9	212507	28907.700406077047	3.28914098699
9	212528	28911.76514844723	12.619302179633
9	212605	28924.481507974641	6.809165916245
9	212616	28926.542300590185	7.285687866055
9	212849	28955.340372002233	5.905602602552
9	212878	28958.635169257191	3.786330852729
9	213007	28974.637569110902	20.254689456825
9	213337	29019.318483091905	1.561216290109
9	213345	29020.958196345544	2.783225693207
9	213365	29023.585712572713	8.935466781419
9	213484	29039.392963004455	0.800186433969
9	213576	29052.107382324358	8.606197468856
9	213663	29063.366486172631	3.793647795221
9	213839	29087.201239857844	4.867574374808
9	213849	29088.636698725143	5.398600009725
9	213870	29091.475542774864	9.489690522805
9	214699	29202.144830293375	4.450276657431
9	216212	29405.070826141797	0.942283746134
9	216215	29405.509809619635	0.438983477838
9	216305	29418.462822003224	0.449409029121
9	216361	29425.807340344254	6.7642873919
9	216427	29436.196724334248	5.08735441872
9	216462	29441.857604156463	1.146108082027
9	216911	29504.934699002866	12.444019815186
9	216916	29505.671582274305	5.586544114425
9	216983	29516.079379905553	5.496949515004
9	217035	29523.876903488421	9.747047934419
9	217247	29553.433948866911	8.296288505152
9	218630	29735.476263482577	4.884311592068
9	218776	29754.59246258953	9.875972540788
9	218804	29758.031330604325	1.382489445017
9	219014	29787.075486156285	9.844217955137
9	219027	29788.522851227536	6.407941744884
9	219059	29792.141008718763	1.93371567955
9	219174	29808.005611994103	4.228126947262
9	219181	29808.417665222692	2.744974689875
9	219596	29866.314880525216	1.719107492676

