version 2
run First_exit_9-1-20191114-11:42:25-8844
attr configname First_exit_9
attr datetime 20191114-11:42:25
attr experiment First_exit_9
attr inifile omnetpp.ini
attr iterationvars ""
attr iterationvarsf ""
attr measurement ""
attr network ResponseTimeNetwork
attr processid 8844
attr repetition 1
attr replication #1
attr resultdir results
attr runnumber 1
attr seedset 1
param **.Source.interArrivalTime exponential(4s)
param **.jobPriority bernoulli(0.4)
param **.PS.serviceTimeU1 "uniform(0.4s, 1.0s)"
param **.PS.serviceTimeU2 "uniform(1s, 1.2s)"
param **.SS1.serviceTime exponential(0.4s)
param **.SS2.serviceTime exponential(0.8s)
param **.PS.exitProbability bernoulli(0.9)

vector 0 ResponseTimeNetwork.QueueU1 queueLength:vector ETV
attr interpolationmode sample-hold
attr title "queue length, vector"
vector 1 ResponseTimeNetwork.SS2 queueLength:vector ETV
attr interpolationmode sample-hold
attr title "queue length, vector"
vector 2 ResponseTimeNetwork.QueueU2 queueLength:vector ETV
attr interpolationmode sample-hold
attr title "queue length, vector"
vector 3 ResponseTimeNetwork.sink lifeTimeU2:vector ETV
attr interpolationmode none
attr title "lifetime of arrived jobs U2, vector"
attr unit s
vector 4 ResponseTimeNetwork.sink totalServiceTimeU2:vector ETV
attr interpolationmode none
attr title "the total time spent  by arrived jobs U2, vector"
attr unit s
vector 5 ResponseTimeNetwork.sink lifeTime:vector ETV
attr interpolationmode none
attr title "lifetime of arrived jobs, vector"
attr unit s
vector 6 ResponseTimeNetwork.sink totalServiceTime:vector ETV
attr interpolationmode none
attr title "the total time spent  by arrived jobs, vector"
attr unit s
vector 7 ResponseTimeNetwork.sink lifeTimeU1:vector ETV
attr interpolationmode none
attr title "lifetime of arrived jobs U1, vector"
attr unit s
vector 8 ResponseTimeNetwork.sink totalServiceTimeU1:vector ETV
attr interpolationmode none
attr title "the total time spent  by arrived jobs U1, vector"
attr unit s
vector 9 ResponseTimeNetwork.SS1 queueLength:vector ETV
attr interpolationmode sample-hold
attr title "queue length, vector"
0	73306	10000.287247848344	0
0	73322	10002.099479727394	1
0	73325	10002.41522801227	0
0	73335	10004.28609604003	1
0	73336	10004.286200337643	0
0	73343	10005.505056719755	1
0	73346	10006.107883084305	0
0	73358	10007.79827874971	1
0	73359	10008.09251028143	0
0	73371	10009.626542411202	1
0	73372	10010.036240807009	0
0	73381	10011.12262261689	1
0	73384	10011.888963931306	0
0	73395	10013.006135258876	1
0	73396	10013.560759567256	0
0	73403	10014.600750274376	1
0	73406	10015.324491357683	0
0	73419	10016.575192085181	1
0	73422	10016.974915726782	0
0	73429	10017.638507856223	1
0	73430	10018.49997875292	0
0	73441	10019.81851054948	1
0	73442	10020.183698965582	0
0	73449	10021.27835371068	1
0	73452	10021.71149673096	0
0	73463	10023.501860638328	1
0	73464	10023.505596795558	0
0	73470	10023.845142527211	1
0	73471	10024.239663061053	0
0	73475	10024.422955456623	1
0	73477	10024.825815554999	2
0	73478	10025.056509314916	1
0	73482	10025.277976643165	2
0	73483	10025.637079087804	1
0	73487	10026.014232142427	2
0	73488	10026.457907977813	1
0	73491	10026.998493139326	0
0	73495	10027.274952295246	1
0	73496	10027.566324476871	0
0	73500	10028.026750236369	1
0	73501	10028.216668484473	0
0	73505	10028.457988146279	1
0	73506	10029.201934210976	0
0	73510	10029.755256705137	1
0	73511	10029.884166191305	0
0	73515	10029.984175507905	1
0	73517	10030.536942985624	2
0	73518	10030.706539368183	1
0	73522	10030.94696994655	2
0	73523	10031.658110120819	1
0	73527	10031.945009524864	2
0	73528	10032.071684280244	1
0	73531	10032.501220685869	0
0	73535	10032.503661673034	1
0	73536	10033.114053346609	0
0	73543	10033.703078373553	1
0	73545	10034.026444157622	2
0	73546	10034.325087780339	1
0	73552	10034.340267093547	2
0	73553	10035.313109052201	1
0	73556	10035.72035667251	0
0	73560	10036.183278171998	1
0	73563	10036.656188774455	0
0	73567	10036.784962656886	1
0	73568	10037.237575906116	0
0	73577	10038.379166151669	1
0	73579	10038.518235552067	2
0	73580	10038.905184259518	1
0	73584	10039.25650063895	2
0	73585	10039.758533597059	1
0	73589	10040.233916930253	2
0	73590	10040.615039531394	1
0	73594	10040.630343704792	2
0	73595	10041.518818389039	1
0	73598	10042.201452623328	0
0	73602	10042.910413937133	1
0	73603	10042.976801131267	0
0	73607	10043.408518681967	1
0	73608	10043.822855416706	0
0	73612	10043.982241462525	1
0	73614	10044.215243922843	2
0	73615	10044.443936800558	1
0	73618	10045.283742634227	0
0	73622	10045.988466548136	1
0	73623	10046.10848746963	0
0	73627	10046.34338947824	1
0	73628	10046.93033098818	0
0	73632	10046.954977610822	1
0	73633	10047.385855698187	0
0	73637	10047.552760843333	1
0	73638	10048.37530910426	0
0	73642	10048.605058596427	1
0	73643	10049.175757924208	0
0	73647	10049.340455796994	1
0	73648	10049.988636720713	0
0	73652	10050.617213664945	1
0	73653	10050.6418825492	0
0	73657	10050.721594821221	1
0	73658	10051.302026320642	0
0	73662	10051.43194571542	1
0	73663	10052.091217834197	0
0	73667	10052.135573287333	1
0	73668	10052.884358550861	0
0	73698	10056.899010447295	1
0	73701	10057.444480577968	0
0	73712	10058.412745546707	1
0	73713	10058.887709187595	0
0	73722	10060.060298677847	1
0	73723	10060.520874120034	0
0	73732	10061.302776203138	1
0	73733	10061.863797593554	0
0	73742	10062.88458309779	1
0	73743	10063.253300322657	0
0	73847	10077.276604134013	1
0	73848	10077.415751708551	0
0	73940	10089.228231052931	1
0	73941	10089.664517121082	0
0	73948	10090.337952990515	1
0	73953	10091.118726714253	0
0	73962	10091.835839658519	1
0	73966	10092.053059289304	2
0	73967	10092.390068013984	1
0	73972	10093.3799252195	0
0	73976	10093.636846319691	1
0	73977	10093.812784793665	0
0	73981	10094.227152329024	1
0	73982	10094.312908038562	0
0	73986	10094.357388317608	1
0	73987	10094.921058317572	0
0	73994	10095.480266425403	1
0	73999	10096.34095053209	0
0	74006	10096.925922381842	1
0	74009	10097.670652792203	0
0	74026	10100.126881029524	1
0	74027	10100.446646061792	0
0	74033	10100.707788632697	1
0	74034	10101.209637528305	0
0	74040	10101.345789385592	1
0	74041	10101.835820349791	0
0	74048	10102.749481969103	1
0	74050	10103.139259093164	2
0	74051	10103.454693438132	1
0	74056	10104.039996201285	0
0	74060	10104.141610423365	1
0	74063	10104.87654837139	0
0	74067	10105.091323889132	1
0	74069	10105.160806762294	2
0	74070	10105.569844583208	1
0	74074	10105.651167674217	2
0	74075	10106.298957793527	1
0	74079	10107.044692169769	2
0	74080	10107.124523173525	1
0	74084	10107.289691339359	2
0	74085	10107.696794892448	1
0	74089	10108.201819634028	2
0	74090	10108.311125951513	1
0	74093	10109.307124338179	0
0	74097	10109.383975572502	1
0	74098	10109.98747674238	0
0	74102	10110.133013446632	1
0	74103	10110.792302879105	0
0	74107	10111.099419313089	1
0	74108	10111.382046707599	0
0	74112	10111.503945726427	1
0	74113	10111.929467335735	0
0	74117	10112.075006924948	1
0	74118	10112.448636800023	0
0	74122	10112.515360079835	1
0	74125	10113.124532844704	0
0	74129	10113.220033133599	1
0	74130	10113.775144540677	0
0	74140	10114.928517046028	1
0	74144	10115.331256954017	2
0	74145	10115.749825868867	1
0	74150	10116.739039424965	0
0	74154	10116.794221276655	1
0	74155	10117.297121378798	0
0	74159	10117.521301008335	1
0	74162	10117.908905198444	0
0	74169	10118.690628076753	1
0	74170	10119.042184587215	0
0	74345	10145.405733218413	1
0	74346	10145.836268560749	0
0	74354	10146.044761866447	1
0	74357	10146.661431237378	0
0	74613	10186.910962847607	1
0	74614	10187.274079060625	0
0	74625	10188.201938766892	1
0	74627	10188.264125165793	2
0	74628	10188.674180632388	1
0	74633	10189.152785678744	0
0	74644	10190.312718067935	1
0	74645	10190.328300894216	0
0	74649	10190.430809796888	1
0	74650	10190.79006531255	0
0	74654	10191.171493087817	1
0	74655	10191.404415659492	0
0	74667	10192.525691013196	1
0	74669	10192.530109639427	2
0	74672	10193.339516080894	1
0	74677	10194.011419172144	0
0	74685	10194.689917245299	1
0	74688	10194.971764297855	0
0	74692	10195.217175704199	1
0	74693	10195.438093417815	0
0	74749	10204.002960052813	1
0	74750	10204.329193891238	0
0	74757	10205.335149520053	1
0	74762	10205.843081342082	0
0	74775	10206.903014779399	1
0	74780	10207.399729433635	0
0	74786	10208.156551910498	1
0	74787	10208.341676581397	0
0	74791	10208.813370496205	1
0	74794	10209.310244234118	0
0	74798	10209.325144462756	1
0	74807	10210.024370388805	0
0	74811	10210.243995124498	1
0	74814	10210.541614742695	0
0	74818	10210.717382486202	1
0	74819	10211.05612957019	0
0	74823	10211.35289368748	1
0	74826	10212.021415017011	0
0	74833	10212.562569011859	1
0	74834	10213.408986680932	0
0	74843	10214.340595026119	1
0	74845	10214.659390821858	2
0	74848	10215.183342854098	1
0	74853	10215.652582238732	0
0	74857	10215.725595366031	1
0	74861	10216.160982877225	2
0	74862	10216.252713628929	1
0	74866	10216.668532976211	2
0	74868	10216.730926166424	3
0	74869	10217.19966124103	2
0	74874	10218.148097742466	1
0	74877	10218.651175233979	0
0	74881	10218.885479402761	1
0	74885	10219.125548195723	2
0	74887	10219.142825781311	3
0	74888	10219.451176008653	2
0	74891	10220.116953443434	1
0	74895	10220.15718341062	2
0	74896	10220.919033092564	1
0	74900	10221.500161153414	2
0	74901	10221.733247522987	1
0	74905	10221.782675838296	2
0	74907	10222.070310394055	3
0	74908	10222.678282923601	2
0	74912	10222.774081559822	3
0	74913	10223.413069701405	2
0	74917	10223.601035389233	3
0	74919	10223.70874554792	4
0	74920	10223.920597053949	3
0	74924	10224.811202389322	4
0	74925	10224.892706796272	3
0	74929	10225.771339808062	4
0	74930	10225.84899977164	3
0	74934	10225.898122487082	4
0	74935	10226.416560003512	3
0	74939	10226.557990551454	4
0	74940	10227.189782421176	3
0	74943	10227.862960146066	2
0	74946	10228.334321069882	1
0	74950	10228.800844084585	2
0	74952	10229.060365972217	3
0	74954	10229.193900946005	4
0	74955	10229.216724593497	3
0	74958	10229.743525669842	2
0	74962	10230.152827395886	3
0	74963	10230.376470857278	2
0	74967	10230.507627692565	3
0	74970	10231.236867780449	2
0	74973	10232.007843647735	1
0	74976	10232.414446256287	0
0	74980	10232.544979678832	1
0	74982	10232.749192391838	2
0	74984	10233.05347740003	3
0	74985	10233.262596635684	2
0	74989	10233.347698493352	3
0	74990	10233.985245393427	2
0	74993	10234.404282233748	1
0	74997	10234.752783627481	2
0	74998	10235.194315133221	1
0	75002	10235.335427404857	2
0	75003	10235.854704358639	1
0	75007	10235.891515660485	2
0	75008	10236.825868359931	1
0	75012	10237.170187256869	2
0	75014	10237.229136624937	3
0	75015	10237.306329829363	2
0	75019	10237.343102891481	3
0	75020	10237.918168347912	2
0	75024	10238.032632405164	3
0	75025	10238.368168195175	2
0	75029	10238.640659893485	3
0	75030	10239.182245089045	2
0	75034	10239.390690890403	3
0	75035	10239.984638210178	2
0	75038	10240.418337936724	1
0	75042	10240.454513489571	2
0	75044	10240.893917498786	3
0	75045	10241.051168155322	2
0	75048	10241.777052597866	1
0	75052	10242.064615656554	2
0	75054	10242.069028081576	3
0	75055	10242.641938581016	2
0	75059	10243.186748279155	3
0	75060	10243.260560219247	2
0	75063	10243.788072832838	1
0	75066	10244.544586423716	0
0	75070	10244.733505904502	1
0	75072	10244.988986385005	2
0	75073	10245.372604097404	1
0	75076	10246.055439657882	0
0	75085	10246.637863098681	1
0	75086	10247.429848777108	0
0	75206	10264.347910568922	1
0	75207	10264.667461060665	0
0	75218	10265.825601554544	1
0	75219	10265.999660731738	0
0	75228	10267.080636440553	1
0	75229	10267.603824426446	0
0	75293	10275.534606114721	1
0	75296	10276.315921801356	0
0	75300	10276.602433030599	1
0	75301	10276.915235203299	0
0	75312	10278.499918427737	1
0	75313	10278.774236355889	0
0	75322	10279.906020765665	1
0	75325	10280.159511037478	0
0	75334	10280.840695779785	1
0	75335	10281.16704398415	0
0	75344	10282.172170517441	1
0	75347	10282.717484558075	0
0	75354	10283.608113893123	1
0	75355	10283.850616020643	0
0	75364	10284.84758150111	1
0	75365	10285.299437663591	0
0	75374	10286.148532178154	1
0	75375	10286.380585981187	0
0	75382	10287.643523037741	1
0	75383	10287.761431643766	0
0	75400	10289.853693490343	1
0	75403	10290.157095898948	0
0	75412	10291.311073190393	1
0	75413	10291.97622539022	0
0	75424	10292.938994928813	1
0	75425	10293.21051474724	0
0	75439	10294.599440712687	1
0	75440	10295.238325884314	0
0	75447	10295.912327104023	1
0	75449	10296.16025857907	2
0	75450	10296.663703193916	1
0	75457	10297.399154494731	0
0	75461	10297.46551911743	1
0	75462	10298.100949233985	0
0	75466	10298.130991028764	1
0	75467	10298.616128389473	0
0	75471	10298.735538082589	1
0	75472	10299.564956701576	0
0	75476	10299.636687521671	1
0	75477	10300.371778915339	0
0	75484	10301.378843024338	1
0	75485	10301.930661524768	0
0	75494	10303.056645261563	1
0	75495	10303.486826578277	0
0	75505	10304.663088672298	1
0	75511	10304.962709869596	2
0	75512	10305.290791970473	1
0	75517	10306.125074667512	0
0	75529	10307.785889586678	1
0	75530	10308.097079706128	0
0	75534	10308.29256603893	1
0	75535	10309.07168571612	0
0	75539	10309.318591220921	1
0	75542	10309.702328058082	0
0	75546	10309.719893021432	1
0	75547	10310.550849220745	0
0	75551	10310.585245516163	1
0	75552	10311.035529427912	0
0	75556	10311.284509400386	1
0	75557	10311.487596914947	0
0	75561	10311.864737566185	1
0	75564	10312.375576058898	0
0	75571	10312.787653480059	1
0	75574	10313.616876747862	0
0	75585	10314.918539213563	1
0	75586	10315.326699000627	0
0	75603	10317.304654856801	1
0	75604	10318.075920629764	0
0	75615	10319.155732417347	1
0	75616	10319.690639777652	0
0	75625	10320.872407448071	1
0	75628	10321.561008940062	0
0	75637	10322.306974439304	1
0	75638	10323.066682097858	0
0	75647	10323.705408275538	1
0	75648	10323.986412381178	0
0	75657	10324.655310023164	1
0	75658	10325.131659944432	0
0	75669	10326.003703331513	1
0	75670	10326.518538357626	0
0	75676	10327.208563104797	1
0	75677	10327.479489241523	0
0	75681	10327.665124256527	1
0	75684	10328.35953815261	0
0	75688	10328.487965587499	1
0	75689	10329.166453532065	0
0	75693	10329.583063736481	1
0	75694	10329.64042186088	0
0	75698	10330.082614376826	1
0	75699	10330.232365137786	0
0	75703	10330.376334963111	1
0	75704	10330.722667624131	0
0	75708	10331.329860490839	1
0	75709	10331.658263127022	0
0	75713	10331.799201696594	1
0	75716	10332.584016193525	0
0	75723	10333.704197262906	1
0	75725	10333.812327915881	2
0	75726	10334.118731170596	1
0	75729	10334.961556693708	0
0	75736	10336.19072698326	1
0	75737	10336.196440025355	0
0	75741	10336.260847590053	1
0	75742	10336.635213564459	0
0	75746	10336.813192078872	1
0	75749	10337.256059763703	0
0	75753	10337.859292715001	1
0	75754	10337.939625830372	0
0	75760	10338.11074564487	1
0	75761	10338.795854421082	0
0	75765	10338.972247464257	1
0	75766	10339.249466890964	0
0	75770	10339.640656955881	1
0	75771	10339.838641240663	0
0	75775	10340.382209503061	1
0	75776	10340.458367422206	0
0	75783	10341.931116526488	1
0	75784	10342.085941420152	0
0	75791	10342.795952578823	1
0	75794	10343.570809579483	0
0	75803	10345.021078755882	1
0	75804	10345.057871018984	0
0	75821	10347.298912779144	1
0	75822	10347.632674188708	0
0	75836	10349.414819858948	1
0	75839	10349.613911640393	0
0	75849	10351.277363964568	1
0	75850	10351.339080811506	0
0	75963	10368.03916171966	1
0	75964	10368.476148928219	0
0	75971	10368.991771879088	1
0	75972	10369.598620619235	0
0	76058	10380.685406647793	1
0	76061	10381.190468928526	0
0	76077	10382.709626142211	1
0	76080	10382.885837012512	0
0	76087	10383.765758282718	1
0	76088	10384.145845415193	0
0	76097	10384.657927257949	1
0	76100	10385.07881518447	0
0	76108	10385.869761138962	1
0	76109	10385.897349422874	0
0	76113	10385.917389248653	1
0	76114	10386.465129689902	0
0	76118	10386.528952182725	1
0	76121	10387.328147410119	0
0	76125	10387.412098642494	1
0	76126	10387.906434049673	0
0	76130	10388.352682365527	1
0	76133	10388.859388916038	0
0	76137	10389.805804728653	1
0	76138	10389.81671842647	0
0	76149	10390.465621185424	1
0	76150	10391.32842653611	0
0	76162	10392.642556291089	1
0	76165	10393.295431680216	0
0	76174	10394.362000429506	1
0	76175	10395.019520198584	0
0	76191	10396.358000977418	1
0	76194	10397.242893673742	0
0	76206	10399.024641655117	1
0	76209	10399.586726599682	0
0	76218	10400.546968431339	1
0	76219	10401.296657521726	0
0	76277	10409.472875950162	1
0	76279	10409.55376700615	2
0	76280	10409.826014026004	1
0	76284	10410.070282599494	2
0	76285	10410.797785257205	1
0	76289	10410.865927021695	2
0	76292	10411.2702033846	1
0	76295	10411.89505601314	0
0	76304	10412.694290585323	1
0	76308	10412.960733821208	2
0	76309	10413.422237889264	1
0	76314	10414.419886445375	0
0	76318	10414.448994938924	1
0	76320	10414.791764555768	2
0	76321	10414.920170723535	1
0	76326	10415.374894438758	0
0	76335	10416.133826413161	1
0	76337	10416.152735715636	2
0	76339	10416.163313732789	3
0	76341	10416.302164699935	4
0	76342	10416.573948038397	3
0	76349	10417.402464294647	2
0	76353	10417.562192656911	3
0	76354	10418.362953749885	2
0	76358	10418.544299130761	3
0	76359	10418.87455729654	2
0	76363	10419.169728355382	3
0	76364	10419.411052778996	2
0	76368	10419.616646337207	3
0	76369	10420.298006386617	2
0	76373	10420.577773497325	3
0	76374	10420.930867662402	2
0	76378	10421.145984271642	3
0	76379	10421.640809352957	2
0	76382	10422.380842134711	1
0	76386	10422.729024004877	2
0	76387	10423.023898008634	1
0	76391	10423.072870242938	2
0	76393	10423.146682353143	3
0	76394	10423.590785194357	2
0	76398	10424.337568085521	3
0	76399	10424.419170173659	2
0	76403	10424.435379855698	3
0	76404	10425.258935871423	2
0	76408	10425.496220638127	3
0	76409	10425.865927948273	2
0	76413	10426.133828375556	3
0	76414	10426.327212774084	2
0	76418	10426.392194775497	3
0	76419	10426.911410779069	2
0	76422	10427.895133026858	1
0	76425	10428.341628023918	0
0	76429	10428.473786573568	1
0	76431	10428.479495348543	2
0	76432	10429.315306251106	1
0	76436	10429.785764574937	2
0	76437	10429.824720365164	1
0	76440	10430.612781003379	0
0	76444	10430.856082694628	1
0	76445	10431.456552945339	0
0	76449	10431.602801144052	1
0	76450	10432.310797746182	0
0	76454	10432.681359234212	1
0	76455	10432.840892040013	0
0	76459	10433.055624658154	1
0	76460	10433.780381516256	0
0	76464	10433.815745136476	1
0	76469	10434.318723051977	0
0	76473	10434.947448268923	1
0	76474	10435.20097100244	0
0	76478	10435.279925089149	1
0	76479	10435.964730381901	0
0	76483	10436.083810497478	1
0	76485	10436.513147731934	2
0	76486	10436.804036938148	1
0	76489	10437.295862170849	0
0	76493	10437.759851129417	1
0	76494	10437.887366937036	0
0	76500	10438.183792752566	1
0	76502	10438.25886337776	2
0	76503	10438.435884005418	1
0	76507	10438.689659587103	2
0	76508	10439.327968251407	1
0	76512	10439.374188498345	2
0	76515	10439.873447562596	1
0	76518	10440.664858358661	0
0	76524	10440.803652780229	1
0	76525	10441.178257370023	0
0	76635	10456.985574567524	1
0	76636	10457.320410227059	0
0	76643	10458.206402861212	1
0	76644	10459.005001586285	0
0	76653	10459.971262699266	1
0	76654	10460.861463521076	0
0	76663	10461.564219551262	1
0	76665	10461.96052740472	2
0	76666	10462.120458938348	1
0	76669	10462.789303775298	0
0	76673	10462.909134164507	1
0	76676	10463.497442632335	0
0	76680	10464.01936074561	1
0	76681	10464.120745715339	0
0	76685	10464.869509023086	1
0	76686	10464.980466867125	0
0	76690	10465.097870546409	1
0	76691	10465.583340117688	0
0	76695	10465.996793780127	1
0	76696	10466.042520609571	0
0	76700	10466.323624199363	1
0	76701	10466.855680207096	0
0	76705	10467.044139992513	1
0	76706	10467.574388007287	0
0	76710	10467.648166598689	1
0	76713	10468.468130963322	0
0	76717	10468.490080048603	1
0	76719	10468.74484591665	2
0	76721	10468.982688658386	3
0	76722	10469.444335027717	2
0	76725	10470.035340232614	1
0	76728	10470.702455084424	0
0	76732	10471.148557165667	1
0	76734	10471.300270206329	2
0	76735	10471.340503570416	1
0	76738	10472.28574776354	0
0	76742	10473.006447297799	1
0	76743	10473.105069085841	0
0	76747	10473.845625376424	1
0	76749	10473.847053745115	2
0	76750	10473.890655397556	1
0	76754	10474.449994894306	2
0	76755	10474.744784392349	1
0	76759	10475.063256324963	2
0	76761	10475.06750689	3
0	76762	10475.633534128245	2
0	76765	10476.1253191517	1
0	76768	10477.111765847847	0
0	76775	10477.763810113337	1
0	76777	10478.03469289352	2
0	76779	10478.091870927433	3
0	76780	10478.151784399038	2
0	76785	10478.690284242507	1
0	76788	10479.201990856536	0
0	76795	10480.194892111045	1
0	76796	10480.769233918589	0
0	76803	10481.630074852019	1
0	76804	10481.923700820681	0
0	76815	10482.740580822321	1
0	76816	10483.380479760261	0
0	76825	10484.152613952308	1
0	76826	10484.94291145832	0
0	76835	10485.751532089298	1
0	76838	10486.635350606569	0
0	76847	10487.989209322804	1
0	76848	10488.484919670296	0
0	76852	10488.57668683256	1
0	76855	10489.449822409337	0
0	76859	10489.551786268019	1
0	76862	10490.396525160761	0
0	76869	10491.018123380893	1
0	76871	10491.602706755006	2
0	76872	10491.619604742226	1
0	76875	10492.176685924061	0
0	76884	10493.202295492282	1
0	76885	10493.631992291916	0
0	76889	10493.836572899643	1
0	76892	10494.388170028455	0
0	76896	10494.474972878761	1
0	76897	10495.237926338171	0
0	76901	10495.634001280481	1
0	76902	10495.719456465333	0
0	76906	10495.908661644242	1
0	76907	10496.467267757724	0
0	76911	10496.624593321367	1
0	76913	10496.665797324697	2
0	76914	10497.277513426985	1
0	76918	10497.594246656842	2
0	76919	10498.1139156922	1
0	76923	10498.486105506804	2
0	76924	10498.547847723332	1
0	76927	10499.465287977992	0
0	76931	10499.936030451803	1
0	76932	10500.08692992886	0
0	76936	10500.566745549222	1
0	76937	10501.044684598897	0
0	76941	10501.410529784032	1
0	76942	10501.86920854391	0
0	76946	10502.160131681911	1
0	76947	10502.280505415261	0
0	76951	10502.415799278821	1
0	76952	10502.744696912984	0
0	76959	10503.619797450231	1
0	76962	10504.021629379806	0
0	76966	10504.312301143761	1
0	76967	10504.9808434529	0
0	76973	10505.339231222888	1
0	76976	10505.943724320992	0
0	76980	10506.077879498781	1
0	76981	10506.75034902303	0
0	76987	10507.089727948125	1
0	76988	10507.598413345148	0
0	76992	10507.629851149026	1
0	76993	10508.425690532313	0
0	77000	10509.132637421123	1
0	77001	10509.712133806082	0
0	77015	10511.013970700945	1
0	77016	10511.794827255723	0
0	77025	10512.736227436698	1
0	77027	10512.778173233146	2
0	77028	10513.204004821252	1
0	77031	10513.705550771836	0
0	77038	10514.570916766666	1
0	77039	10514.769574520389	0
0	77050	10516.094081002787	1
0	77051	10516.164713975021	0
0	77068	10518.128928022928	1
0	77069	10518.6526120079	0
0	77078	10519.824339530293	1
0	77083	10520.338084129968	0
0	77092	10521.280422762708	1
0	77093	10521.898228886796	0
0	77110	10524.355346479497	1
0	77111	10524.744441278211	0
0	77131	10526.917036608941	1
0	77132	10527.318127508255	0
0	77141	10528.156783131223	1
0	77142	10528.654108353917	0
0	77149	10529.353586879525	1
0	77150	10530.232012560059	0
0	77164	10531.366716178952	1
0	77167	10532.239023031973	0
0	77176	10533.446834972472	1
0	77177	10534.019669445304	0
0	77184	10534.54243792251	1
0	77186	10535.170235219742	2
0	77187	10535.388204491584	1
0	77190	10535.836036774217	0
0	77196	10536.035272944373	1
0	77197	10536.329882477111	0
0	77201	10536.33318884194	1
0	77202	10536.783366063776	0
0	77206	10537.215063151735	1
0	77207	10537.521189589033	0
0	77302	10552.157412358717	1
0	77303	10552.676846068241	0
0	77312	10553.726072449609	1
0	77319	10554.453891078551	0
0	77323	10554.747219067974	1
0	77324	10555.082886401825	0
0	77328	10555.340474480421	1
0	77329	10555.503550609602	0
0	77333	10555.607081671525	1
0	77334	10556.21352328917	0
0	77345	10557.308265101551	1
0	77346	10557.397983201481	0
0	77358	10558.770811898282	1
0	77361	10559.13421197406	0
0	77372	10560.153118995695	1
0	77373	10560.626037266552	0
0	77390	10562.585600627256	1
0	77391	10562.912400955222	0
0	77400	10563.570409663775	1
0	77403	10564.018082470009	0
0	77412	10564.583742408687	1
0	77413	10565.115494353864	0
0	77420	10565.868336303111	1
0	77421	10566.236721488302	0
0	77432	10567.291813320091	1
0	77433	10567.67402534185	0
0	77442	10568.812240827037	1
0	77443	10568.995366360321	0
0	77450	10570.054426548684	1
0	77451	10570.644535977095	0
0	77460	10571.566515742748	1
0	77461	10572.449232400236	0
0	77468	10573.011535413741	1
0	77471	10573.800380799946	0
0	77480	10574.635644021646	1
0	77481	10575.192007885527	0
0	77488	10576.194663831467	1
0	77491	10576.797166595681	0
0	77500	10577.730363599388	1
0	77501	10578.631205472097	0
0	77510	10579.316218305264	1
0	77512	10579.632050633141	2
0	77513	10579.651584480683	1
0	77516	10580.387581999394	0
0	77526	10582.142499936168	1
0	77527	10582.999401782293	0
0	77536	10584.65077343841	1
0	77538	10584.753255138445	2
0	77539	10584.806004252311	1
0	77542	10585.410979785051	0
0	77546	10585.41468787837	1
0	77547	10586.124905304637	0
0	77560	10587.244591012133	1
0	77561	10587.520295590235	0
0	77565	10587.641368973004	1
0	77568	10587.953227185484	0
0	77572	10588.104914529301	1
0	77573	10588.637145002492	0
0	77577	10588.713515206318	1
0	77578	10589.169604569653	0
0	77585	10589.724417592712	1
0	77587	10589.950431572569	2
0	77588	10590.327682054209	1
0	77593	10591.096381520087	0
0	77597	10591.427832233828	1
0	77598	10592.031086841811	0
0	77602	10592.050051395718	1
0	77603	10592.670638796621	0
0	77607	10593.094795333556	1
0	77608	10593.296331658847	0
0	77612	10593.800264924745	1
0	77613	10594.193304225318	0
0	77620	10595.47307904467	1
0	77622	10595.527852474645	2
0	77623	10595.94070578821	1
0	77628	10596.798413383616	0
0	77632	10597.194996915683	1
0	77633	10597.509679581532	0
0	77637	10597.751846331787	1
0	77638	10597.919309166614	0
0	77642	10597.958241617581	1
0	77643	10598.347072107513	0
0	77647	10598.56003029198	1
0	77648	10599.12158607238	0
0	77652	10599.179356049883	1
0	77653	10600.119927098723	0
0	77660	10600.868754407923	1
0	77662	10600.971593621641	2
0	77663	10601.650551908631	1
0	77668	10602.530842516367	0
0	77672	10602.678996184398	1
0	77673	10602.986491692188	0
0	77677	10602.988262330058	1
0	77678	10603.876715367176	0
0	77682	10604.373645673663	1
0	77683	10604.561380490084	0
0	77690	10605.785448829436	1
0	77691	10606.188472354953	0
0	77700	10606.964586042638	1
0	77701	10607.416210959601	0
0	77708	10608.118086966745	1
0	77709	10608.743782884703	0
0	77713	10609.517381224368	1
0	77714	10609.609325999283	0
0	77718	10609.790134138728	1
0	77719	10610.384094452421	0
0	77723	10610.393856785115	1
0	77725	10610.799049239075	2
0	77726	10611.053793843259	1
0	77732	10611.454944045781	2
0	77733	10611.478573556273	1
0	77737	10611.729995478002	2
0	77738	10612.121415379719	1
0	77742	10612.185321994193	2
0	77743	10613.064651580929	1
0	77747	10613.20071141635	2
0	77748	10613.488204250653	1
0	77752	10614.292012997495	2
0	77753	10614.462741798098	1
0	77757	10614.97333514539	2
0	77758	10615.073835111252	1
0	77762	10615.216515352693	2
0	77763	10615.675349290418	1
0	77766	10616.450978611531	0
0	77770	10616.575940288195	1
0	77773	10617.134521936281	0
0	77777	10617.240469800397	1
0	77778	10617.623862047149	0
0	77785	10618.45645354936	1
0	77787	10618.574160746819	2
0	77788	10619.170794776017	1
0	77793	10619.682151340675	0
0	77797	10620.063388826681	1
0	77798	10620.658434060011	0
0	77802	10621.023622255673	1
0	77803	10621.548388335882	0
0	77807	10621.918208505026	1
0	77808	10622.241109606419	0
0	77812	10622.544641947515	1
0	77813	10622.764911010284	0
0	77817	10622.837714474933	1
0	77821	10623.486500150869	2
0	77822	10623.666978138573	1
0	77826	10624.18506198124	2
0	77828	10624.220395463088	3
0	77829	10624.391673673251	2
0	77833	10624.570566379744	3
0	77834	10625.339749601138	2
0	77838	10625.529072205694	3
0	77839	10625.99166142878	2
0	77842	10626.426789352837	1
0	77845	10627.264517806544	0
0	77851	10627.773349188199	1
0	77854	10627.958580529857	0
0	77858	10627.984175976402	1
0	77861	10628.910430762246	0
0	77865	10629.139378787491	1
0	77866	10629.766846224693	0
0	77870	10629.852238371026	1
0	77871	10630.175347535898	0
0	77878	10631.263063919345	1
0	77879	10631.551374455475	0
0	77888	10632.110361513504	1
0	77889	10632.768839867673	0
0	77893	10632.977867661838	1
0	77894	10633.732000569514	0
0	77901	10634.47239125349	1
0	77903	10634.691692058968	2
0	77904	10634.883362032081	1
0	77911	10635.750517961876	0
0	77915	10635.939501283358	1
0	77916	10636.691321032661	0
0	77920	10636.694514276792	1
0	77921	10637.234875688449	0
0	77925	10637.66486629647	1
0	77926	10637.694027166514	0
0	77930	10637.802505309938	1
0	77931	10638.188252828203	0
0	77938	10638.920689270587	1
0	77939	10639.587048364224	0
0	77943	10639.803695105471	1
0	77944	10640.443983806416	0
0	77948	10640.994026052361	1
0	77949	10641.270737795464	0
0	77953	10641.741638176095	1
0	77954	10641.859009512958	0
0	77958	10642.15308446108	1
0	77959	10642.599289625117	0
0	77963	10642.608852077228	1
0	77966	10643.34275113696	0
0	77973	10643.837898578307	1
0	77975	10643.985881558346	2
0	77976	10644.242778886414	1
0	77979	10645.192622837356	0
0	77983	10645.596065640718	1
0	77984	10645.675769159875	0
0	77990	10646.237952887398	1
0	77991	10646.552728245945	0
0	77995	10646.752144526549	1
0	77996	10647.164667592363	0
0	78003	10647.58842678576	1
0	78005	10647.599323796377	2
0	78006	10648.289211225302	1
0	78009	10649.177171740473	0
0	78013	10649.199251046467	1
0	78016	10650.073316546089	0
0	78020	10650.135866575518	1
0	78021	10650.817770151307	0
0	78025	10651.328168990292	1
0	78026	10651.71724095226	0
0	78030	10651.891814296605	1
0	78031	10652.339198696499	0
0	78035	10652.581419021706	1
0	78036	10653.303966507574	0
0	78040	10653.696812722985	1
0	78041	10654.04819578205	0
0	78051	10655.470543933858	1
0	78055	10655.77457907152	2
0	78056	10656.25133069421	1
0	78059	10656.935978737453	0
0	78063	10657.166477614967	1
0	78064	10657.394421527281	0
0	78068	10657.567610059788	1
0	78069	10658.072856224121	0
0	78073	10658.17311177288	1
0	78074	10658.972875663384	0
0	78078	10659.163675886643	1
0	78079	10659.625531371941	0
0	78083	10659.744949601189	1
0	78088	10660.615039418663	0
0	78092	10660.732333677738	1
0	78093	10661.188681138006	0
0	78097	10661.251118466211	1
0	78098	10661.970394640534	0
0	78102	10662.209396656415	1
0	78103	10662.696209175211	0
0	78110	10663.181120663987	1
0	78112	10663.258765137256	2
0	78113	10663.57527392537	1
0	78118	10664.500776578185	0
0	78122	10664.504840652203	1
0	78123	10665.435888159021	0
0	78135	10667.014565830245	1
0	78137	10667.123968327115	2
0	78138	10667.33006418741	1
0	78141	10667.737111773879	0
0	78145	10667.791630995442	1
0	78146	10668.154396048492	0
0	78150	10668.238239479603	1
0	78151	10668.950012528455	0
0	78155	10669.022704798632	1
0	78160	10669.709885151802	0
0	78164	10669.799309707486	1
0	78165	10670.515962172464	0
0	78169	10670.82543623216	1
0	78170	10671.185789758783	0
0	78174	10671.254363267199	1
0	78175	10671.758064184781	0
0	78179	10671.8610986774	1
0	78180	10672.389540740266	0
0	78187	10673.233947244858	1
0	78188	10673.353430242674	0
0	78192	10673.763365518568	1
0	78193	10674.318222463248	0
0	78200	10675.903770967282	1
0	78201	10675.951322046179	0
0	78205	10675.986551910645	1
0	78208	10676.368488709839	0
0	78215	10677.849135964208	1
0	78216	10678.043940054603	0
0	78220	10678.097498277114	1
0	78221	10678.89910871999	0
0	78225	10678.99451153481	1
0	78228	10679.786752180873	0
0	78232	10679.906729208943	1
0	78233	10680.515824257002	0
0	78237	10680.672785232064	1
0	78238	10680.972230322172	0
0	78242	10681.270629036589	1
0	78243	10681.633217450396	0
0	78249	10682.35166055069	1
0	78250	10682.59070111674	0
0	78254	10682.625378773934	1
0	78257	10683.076619335336	0
0	78264	10684.637398312273	1
0	78265	10684.823093670865	0
0	78274	10685.559986423198	1
0	78276	10685.984250679302	2
0	78277	10686.04259521526	1
0	78280	10686.840272921861	0
0	78289	10688.347667246631	1
0	78290	10688.362079304808	0
0	78297	10688.848960413454	1
0	78299	10689.500496591248	2
0	78300	10689.733163366631	1
0	78303	10690.181441356685	0
0	78307	10690.340179454456	1
0	78313	10690.908541073743	2
0	78314	10691.17154743306	1
0	78318	10691.562841576351	2
0	78321	10692.157678303706	1
0	78325	10692.292188145281	2
0	78326	10692.829183174229	1
0	78330	10692.880945849337	2
0	78333	10693.819042421297	1
0	78337	10694.091758805185	2
0	78338	10694.711996116794	1
0	78341	10695.571145750468	0
0	78348	10696.51254870574	1
0	78350	10696.91639269914	2
0	78351	10697.346772949423	1
0	78354	10697.767042432285	0
0	78358	10697.894338255664	1
0	78359	10698.416258956983	0
0	78363	10698.890114243265	1
0	78366	10699.372047933403	0
0	78370	10699.484951782083	1
0	78371	10700.264186222551	0
0	78375	10700.267619596579	1
0	78376	10700.957900030285	0
0	78380	10701.623485486731	1
0	78381	10701.865805444287	0
0	78385	10701.930281981454	1
0	78386	10702.484461555051	0
0	78390	10702.534949357327	1
0	78391	10702.92943332142	0
0	78395	10702.980344662853	1
0	78396	10703.562656228829	0
0	78400	10704.293174738543	1
0	78401	10704.442982267707	0
0	78405	10704.860843926636	1
0	78406	10705.22119410767	0
0	78410	10705.454204084215	1
0	78411	10706.124647119388	0
0	78415	10706.315088864517	1
0	78416	10706.920705739575	0
0	78420	10706.968110085782	1
0	78421	10707.503302017067	0
0	78425	10707.897531650253	1
0	78426	10708.174594694263	0
0	78430	10708.197611510084	1
0	78431	10708.922239844062	0
0	78435	10709.366524032597	1
0	78436	10709.394619815078	0
0	78443	10710.045325984556	1
0	78444	10710.487652003093	0
0	78448	10710.840558457306	1
0	78449	10710.996043881195	0
0	78456	10711.733863777519	1
0	78458	10711.822270214739	2
0	78459	10712.45654122874	1
0	78465	10712.811901027633	2
0	78466	10713.253787690055	1
0	78470	10713.657885438171	2
0	78471	10713.944983451561	1
0	78475	10714.118738805682	2
0	78476	10714.644014795943	1
0	78480	10714.942028352545	2
0	78481	10715.409224970805	1
0	78485	10715.512269133251	2
0	78486	10716.022723125879	1
0	78490	10716.360269298063	2
0	78497	10716.589941170186	1
0	78501	10716.590980010609	2
0	78502	10717.350504490992	1
0	78506	10717.695657068795	2
0	78507	10718.270203438334	1
0	78511	10718.458579209586	2
0	78512	10718.690400061782	1
0	78516	10718.803142676659	2
0	78517	10719.657170141747	1
0	78521	10719.891128732969	2
0	78522	10720.110819463644	1
0	78526	10720.111835982128	2
0	78527	10721.017716515695	1
0	78531	10721.086874895459	2
0	78532	10721.483923656472	1
0	78536	10721.7132899408	2
0	78537	10722.032360333043	1
0	78540	10722.938330502507	0
0	78544	10723.291585980534	1
0	78545	10723.786001673552	0
0	78549	10724.088952617462	1
0	78550	10724.352067834536	0
0	78557	10724.789582720017	1
0	78559	10725.13817016713	2
0	78560	10725.267424989517	1
0	78563	10726.179676672469	0
0	78567	10726.311224320179	1
0	78568	10726.627561676015	0
0	78572	10727.123561464904	1
0	78575	10727.550007090277	0
0	78579	10728.126365759196	1
0	78580	10728.338908698668	0
0	78584	10728.456678586597	1
0	78587	10728.985154078135	0
0	78591	10729.099127288464	1
0	78592	10729.494137848241	0
0	78599	10730.288362228019	1
0	78601	10730.538526988522	2
0	78602	10730.77330570801	1
0	78607	10731.460597976696	0
0	78611	10731.63854700502	1
0	78612	10731.872207045442	0
0	78616	10731.877631762476	1
0	78618	10732.513929873586	2
0	78619	10732.536673695714	1
0	78622	10732.983342953519	0
0	78626	10733.466555809679	1
0	78627	10733.721155093498	0
0	78634	10734.768778479081	1
0	78636	10734.946285075108	2
0	78638	10735.010429740229	3
0	78639	10735.030453994712	2
0	78642	10735.99386826044	1
0	78646	10736.087222070193	2
0	78650	10736.582366794154	3
0	78651	10736.699597629747	2
0	78655	10736.940208670897	3
0	78656	10737.11434742569	2
0	78659	10737.671117263269	1
0	78663	10737.908178048768	2
0	78664	10738.161044913559	1
0	78668	10738.454230457364	2
0	78669	10738.667912192345	1
0	78673	10738.858658402612	2
0	78674	10739.088354304973	1
0	78678	10739.308011137989	2
0	78679	10739.93625132123	1
0	78683	10740.145729151384	2
0	78685	10740.481046525219	3
0	78686	10740.64848513457	2
0	78690	10740.852719360196	3
0	78691	10741.421075121574	2
0	78695	10741.464504761568	3
0	78696	10741.944468904687	2
0	78699	10742.668852862092	1
0	78703	10742.717842295226	2
0	78705	10742.874867382622	3
0	78707	10743.333683172251	4
0	78708	10743.401961013889	3
0	78711	10743.886655980609	2
0	78715	10743.89071677452	3
0	78717	10744.072491468262	4
0	78718	10744.429965068008	3
0	78722	10744.438552164583	4
0	78723	10744.849816752811	3
0	78729	10745.172542510331	4
0	78730	10745.517783782379	3
0	78734	10746.086561848328	4
0	78735	10746.342657909896	3
0	78738	10747.234483972313	2
0	78742	10747.334749441117	3
0	78743	10748.177415539259	2
0	78750	10749.059547655731	1
0	78754	10749.496997596617	2
0	78755	10749.891765224076	1
0	78759	10750.057931108518	2
0	78760	10750.558919114181	1
0	78764	10750.788971768914	2
0	78765	10751.292253005299	1
0	78769	10751.320746196631	2
0	78770	10751.998927691792	1
0	78773	10752.876500454991	0
0	78779	10753.205437818602	1
0	78780	10753.864209431949	0
0	78787	10754.852296674606	1
0	78789	10755.312962250494	2
0	78790	10755.66929602933	1
0	78795	10756.510777791709	0
0	78799	10756.682346603755	1
0	78800	10757.286986354858	0
0	78804	10757.456068726756	1
0	78805	10758.186497035928	0
0	78809	10758.803954263389	1
0	78810	10758.992338659501	0
0	78814	10759.044154977813	1
0	78815	10759.881505772125	0
0	78819	10759.956690945071	1
0	78820	10760.684450537039	0
0	78824	10760.813510491073	1
0	78825	10761.442366105856	0
0	78829	10761.572768835442	1
0	78830	10762.144340454487	0
0	78834	10762.17133581186	1
0	78835	10763.060832590869	0
0	78839	10763.251234829966	1
0	78840	10763.600129952029	0
0	78844	10763.890184700711	1
0	78845	10764.105516350669	0
0	78849	10764.196563104345	1
0	78850	10764.581522644525	0
0	78854	10764.796400749211	1
0	78855	10765.578413349883	0
0	78859	10765.763942945515	1
0	78860	10766.480065810475	0
0	78864	10766.584666639014	1
0	78865	10767.101859977124	0
0	78869	10767.110392835954	1
0	78870	10767.916799305826	0
0	78877	10768.858161080561	1
0	78878	10769.391373921446	0
0	78885	10770.41155047497	1
0	78886	10770.562193437321	0
0	78893	10772.033361964632	1
0	78894	10772.091172840241	0
0	78898	10772.300239415666	1
0	78899	10773.028920788346	0
0	78905	10773.382659454988	1
0	78906	10773.750669753254	0
0	78915	10774.903988053516	1
0	78916	10775.124673738219	0
0	78922	10775.917308485531	1
0	78925	10776.081888267659	0
0	78929	10776.504069903892	1
0	78930	10776.513471178087	0
0	78934	10776.677765360275	1
0	78935	10777.217068644129	0
0	78939	10777.22628597002	1
0	78940	10777.621693377504	0
0	78947	10778.422018553854	1
0	78949	10778.889475025944	2
0	78950	10778.899996961634	1
0	78955	10779.864568830495	0
0	78959	10779.917585221953	1
0	78960	10780.459976995764	0
0	78964	10780.641539081179	1
0	78965	10781.171542922016	0
0	78969	10781.194927638748	1
0	78970	10782.148949022572	0
0	78980	10783.547115210692	1
0	78982	10783.568831421372	2
0	78983	10784.197785075222	1
0	78989	10784.791166225339	2
0	78991	10784.798026074869	3
0	78992	10784.868200312582	2
0	78996	10784.888941923452	3
0	78999	10785.716564306877	2
0	79003	10786.113958475282	3
0	79004	10786.235829422371	2
0	79008	10786.623336416533	3
0	79009	10786.790067688822	2
0	79013	10786.799686853645	3
0	79014	10787.406629343731	2
0	79020	10788.247287243937	3
0	79021	10788.334524897746	2
0	79024	10788.841552632702	1
0	79028	10789.26201030622	2
0	79029	10789.295839167833	1
0	79033	10789.804594634237	2
0	79034	10789.923223731555	1
0	79038	10789.997110509643	2
0	79040	10790.114598838005	3
0	79041	10790.759867576072	2
0	79045	10790.767530994314	3
0	79048	10791.380694597103	2
0	79052	10791.594182868032	3
0	79053	10792.353969119983	2
0	79057	10792.784891217841	3
0	79058	10793.277311760122	2
0	79063	10793.947507494576	1
0	79067	10793.981931398386	2
0	79069	10794.065725271694	3
0	79070	10794.899433437064	2
0	79074	10794.989543839237	3
0	79077	10795.33228434504	2
0	79080	10796.257568852818	1
0	79084	10796.383264177172	2
0	79086	10796.403725683502	3
0	79087	10797.101162341405	2
0	79091	10797.517125116453	3
0	79092	10797.657124524638	2
0	79098	10798.02899185574	3
0	79099	10798.433680859655	2
0	79103	10798.748882457774	3
0	79104	10799.15894998068	2
0	79108	10799.260387417337	3
0	79109	10799.653292049961	2
0	79113	10800.293684834487	3
0	79114	10800.603326158067	2
0	79118	10800.676122637473	3
0	79121	10801.109500629529	2
0	79125	10801.119889701414	3
0	79127	10801.169657316815	4
0	79128	10802.005962651623	3
0	79132	10802.121315016255	4
0	79134	10802.679234449508	5
0	79135	10802.956306800739	4
0	79138	10803.434158486388	3
0	79142	10804.054456608814	4
0	79143	10804.140906601426	3
0	79147	10804.146290431656	4
0	79149	10804.507414599633	5
0	79150	10804.935450874622	4
0	79153	10805.405040831099	3
0	79157	10805.880635315318	4
0	79158	10805.918418263112	3
0	79162	10805.972002871942	4
0	79164	10806.120110256202	5
0	79165	10806.486313365147	4
0	79169	10807.211280303059	5
0	79170	10807.423375203627	4
0	79174	10807.430012538422	5
0	79175	10808.024439156827	4
0	79179	10808.096794514564	5
0	79180	10808.983891037086	4
0	79184	10809.23174628229	5
0	79185	10809.932819520755	4
0	79189	10810.185122179385	5
0	79190	10810.47640854067	4
0	79193	10810.932897229053	3
0	79197	10810.954054452306	4
0	79199	10811.541099457549	5
0	79200	10811.76867809084	4
0	79204	10811.870959894306	5
0	79205	10812.605358223689	4
0	79209	10812.681570877467	5
0	79211	10813.105238853037	6
0	79212	10813.218844211732	5
0	79216	10813.219281717288	6
0	79217	10813.893427932288	5
0	79221	10814.575380631743	6
0	79223	10814.709879198998	7
0	79224	10814.83826381874	6
0	79228	10815.595337829181	7
0	79229	10815.723777461915	6
0	79233	10816.040667498027	7
0	79234	10816.279379810045	6
0	79240	10816.812948309173	7
0	79241	10817.170920383862	6
0	79244	10817.773098697818	5
0	79248	10818.053870973426	6
0	79249	10818.459824119906	5
0	79252	10818.969262311959	4
0	79256	10819.23160244705	5
0	79258	10819.469684161045	6
0	79259	10819.579752155605	5
0	79263	10819.862576779169	6
0	79264	10820.044306827921	5
0	79267	10820.518987960767	4
0	79270	10821.468272579487	3
0	79274	10821.669065495966	4
0	79275	10822.387935716824	3
0	79279	10823.148544108363	4
0	79280	10823.335407554803	3
0	79284	10823.743672224789	4
0	79286	10823.765016065714	5
0	79288	10824.023420318245	6
0	79289	10824.089575273942	5
0	79293	10824.390463674181	6
0	79295	10824.635550029724	7
0	79296	10824.760871204434	6
0	79300	10824.796873822689	7
0	79301	10825.750118140344	6
0	79304	10826.296562204676	5
0	79307	10826.79751593273	4
0	79311	10827.031207373576	5
0	79312	10827.632255039624	4
0	79316	10827.859535266825	5
0	79318	10828.295158885072	6
0	79319	10828.319154875706	5
0	79322	10828.99556192493	4
0	79326	10829.104623761178	5
0	79328	10829.134695703885	6
0	79330	10829.24201947472	7
0	79331	10829.428749882923	6
0	79335	10829.493915158345	7
0	79336	10830.198613099642	6
0	79340	10830.311884425855	7
0	79342	10830.942250072831	8
0	79343	10831.00676091684	7
0	79347	10831.064872863526	8
0	79348	10831.833237533485	7
0	79352	10831.929018347593	8
0	79354	10832.223339447742	9
0	79355	10832.672978346496	8
0	79359	10832.799425274538	9
0	79360	10833.337866416228	8
0	79364	10833.39750364947	9
0	79365	10834.136423319372	8
0	79368	10834.90796753669	7
0	79372	10834.926344637268	8
0	79373	10835.553996382401	7
0	79377	10835.66912908463	8
0	79378	10836.514285008077	7
0	79381	10837.029796311286	6
0	79385	10837.592029052618	7
0	79386	10837.879798335097	6
0	79390	10838.070130874567	7
0	79392	10838.256041992552	8
0	79393	10838.691850660862	7
0	79397	10838.760145175071	8
0	79398	10839.352624737313	7
0	79402	10839.501483191696	8
0	79403	10840.291970387083	7
0	79407	10840.895456866578	8
0	79408	10841.245814184035	7
0	79412	10841.398823626143	8
0	79413	10841.850919311057	7
0	79417	10841.980900169708	8
0	79418	10842.514725780842	7
0	79422	10843.342300898959	8
0	79423	10843.34971434407	7
0	79426	10843.941715409728	6
0	79430	10843.951019111098	7
0	79431	10844.45886749004	6
0	79434	10844.940306319417	5
0	79437	10845.456557614337	4
0	79441	10845.520184139539	5
0	79443	10845.80904173356	6
0	79445	10845.900939094979	7
0	79446	10846.18831149212	6
0	79450	10846.507992726319	7
0	79451	10847.16875496081	6
0	79455	10847.64445109016	7
0	79456	10847.824480466386	6
0	79460	10847.825891462382	7
0	79463	10848.371339731086	6
0	79467	10848.526576589441	7
0	79468	10849.105760073317	6
0	79472	10849.447684560018	7
0	79473	10850.094470452592	6
0	79477	10850.108474005608	7
0	79479	10850.334211384301	8
0	79480	10851.028405929758	7
0	79484	10851.343511395891	8
0	79486	10851.420783110154	9
0	79487	10851.537466868694	8
0	79490	10852.396453561663	7
0	79493	10852.890282160306	6
0	79497	10853.047242254881	7
0	79499	10853.139739528364	8
0	79501	10853.151819732254	9
0	79502	10853.749097360234	8
0	79506	10854.004482388063	9
0	79507	10854.162190023746	8
0	79511	10854.355001076614	9
0	79512	10855.142730080878	8
0	79516	10855.323223035645	9
0	79517	10856.01960212242	8
0	79520	10856.553823203669	7
0	79524	10856.759041116939	8
0	79526	10857.325154880936	9
0	79527	10857.54196854083	8
0	79531	10857.610422981689	9
0	79532	10858.141328155279	8
0	79535	10858.730669960176	7
0	79539	10859.04189099233	8
0	79540	10859.355242498341	7
0	79544	10859.52200068938	8
0	79545	10860.263188495423	7
0	79548	10860.672776605591	6
0	79552	10860.700089728494	7
0	79554	10860.706938932626	8
0	79556	10860.850682479395	9
0	79557	10861.593269146636	8
0	79560	10862.212472629484	7
0	79564	10862.241507441264	8
0	79568	10862.713257487592	9
0	79569	10863.12174290552	8
0	79572	10863.725382348226	7
0	79576	10863.808777613625	8
0	79577	10864.210357972916	7
0	79581	10864.484555498825	8
0	79582	10864.660589924298	7
0	79586	10864.90212023589	8
0	79587	10865.072922320973	7
0	79591	10865.170665224806	8
0	79593	10865.527637399409	9
0	79594	10865.821758895444	8
0	79598	10865.925503763629	9
0	79599	10866.397950984707	8
0	79603	10866.883010169563	9
0	79604	10866.898719049973	8
0	79608	10867.618725241964	9
0	79609	10867.789277676289	8
0	79612	10868.533905011538	7
0	79616	10868.600559875333	8
0	79617	10869.39412662916	7
0	79621	10870.040236442913	8
0	79622	10870.103393273364	7
0	79626	10870.20633668142	8
0	79627	10870.731093895744	7
0	79630	10871.265323175473	6
0	79634	10871.60853346022	7
0	79635	10871.70739229059	6
0	79639	10871.734777317931	7
0	79640	10872.630391986418	6
0	79643	10873.080615900114	5
0	79647	10873.222265664469	6
0	79648	10873.666695382383	5
0	79652	10873.718640563089	6
0	79653	10874.161843581761	5
0	79657	10874.591726104759	6
0	79658	10874.743693076803	5
0	79662	10874.9603762221	6
0	79664	10875.138862522689	7
0	79665	10875.661408694445	6
0	79669	10875.746210575212	7
0	79670	10876.088841236646	6
0	79674	10876.35945784819	7
0	79675	10876.989462808364	6
0	79679	10877.300771644971	7
0	79680	10877.905598747668	6
0	79686	10878.434286748861	7
0	79687	10878.5071302004	6
0	79691	10878.94548390118	7
0	79692	10879.026167565196	6
0	79695	10879.492991108059	5
0	79699	10879.697537214319	6
0	79701	10879.724728731863	7
0	79702	10880.261857378979	6
0	79706	10880.397500438977	7
0	79707	10881.111959720061	6
0	79711	10881.336918903722	7
0	79712	10881.764509122337	6
0	79716	10881.844470401632	7
0	79717	10882.173805763417	6
0	79720	10883.171225760396	5
0	79724	10883.173812922226	6
0	79726	10883.365079858507	7
0	79727	10884.141973206246	6
0	79730	10884.552557696014	5
0	79734	10884.671497806053	6
0	79735	10885.087081425715	5
0	79739	10885.224358460313	6
0	79740	10886.080983620913	5
0	79744	10886.14153706301	6
0	79745	10886.838643732931	5
0	79748	10887.427497083958	4
0	79751	10888.404427275978	3
0	79755	10888.788261697563	4
0	79756	10889.194280020552	3
0	79760	10889.336608426266	4
0	79761	10889.633296310468	3
0	79765	10889.705850301381	4
0	79767	10889.711665134198	5
0	79768	10890.168688446688	4
0	79772	10890.498411734651	5
0	79773	10890.621559486943	4
0	79776	10891.307221203888	3
0	79780	10891.318191002709	4
0	79781	10891.821206056079	3
0	79785	10891.953092437178	4
0	79786	10892.576879010242	3
0	79789	10893.299938463079	2
0	79793	10893.468531938712	3
0	79794	10893.76432178317	2
0	79798	10893.880460950923	3
0	79799	10894.528136968784	2
0	79803	10894.586789416844	3
0	79804	10895.2380550559	2
0	79808	10895.845091244687	3
0	79811	10896.056516167367	2
0	79815	10896.25273821971	3
0	79816	10896.902524270335	2
0	79820	10897.035250273818	3
0	79821	10897.720319232702	2
0	79824	10898.514804006679	1
0	79828	10898.882570972096	2
0	79830	10899.081729241589	3
0	79831	10899.124918256406	2
0	79835	10899.409427232821	3
0	79836	10900.078992767338	2
0	79840	10900.215998308294	3
0	79841	10900.523417811081	2
0	79845	10901.366460996876	3
0	79846	10901.451341395717	2
0	79852	10902.117579073964	3
0	79853	10902.420540739255	2
0	79857	10902.764481936789	3
0	79858	10903.25105566353	2
0	79862	10903.476011126599	3
0	79863	10903.853777419575	2
0	79867	10904.27562416173	3
0	79868	10904.554899033051	2
0	79872	10904.690778407951	3
0	79873	10905.146382359587	2
0	79877	10905.613596197234	3
0	79878	10905.790702085648	2
0	79882	10906.177572516749	3
0	79883	10906.287336311521	2
0	79887	10906.297908731894	3
0	79888	10907.091162254879	2
0	79892	10907.203023594188	3
0	79893	10907.585528503716	2
0	79897	10907.935226809891	3
0	79898	10908.343877810737	2
0	79901	10909.322765802158	1
0	79905	10909.474057181245	2
0	79907	10909.503279295367	3
0	79908	10909.782406669933	2
0	79912	10909.974704185825	3
0	79915	10910.646551111838	2
0	79919	10910.786651149741	3
0	79920	10911.083882549949	2
0	79924	10911.477545655274	3
0	79925	10911.752177783832	2
0	79929	10912.165975449358	3
0	79930	10912.673914652769	2
0	79934	10912.995271392152	3
0	79935	10913.159565029186	2
0	79939	10913.311642254738	3
0	79941	10913.547600167096	4
0	79942	10913.936072371001	3
0	79946	10913.978370004661	4
0	79947	10914.475308399261	3
0	79951	10914.713892357603	4
0	79952	10915.310250510122	3
0	79956	10915.424447069249	4
0	79957	10915.735380573836	3
0	79961	10916.232431661929	4
0	79962	10916.615303048664	3
0	79966	10916.716358117813	4
0	79967	10917.045585533497	3
0	79971	10917.383908748042	4
0	79972	10917.744240022344	3
0	79975	10918.533789795065	2
0	79979	10918.593117594582	3
0	79982	10919.442443751996	2
0	79988	10919.838529432908	3
0	79989	10920.352189439382	2
0	79993	10920.469444835654	3
0	79995	10920.565126350425	4
0	79996	10920.825963542597	3
0	80000	10920.928979638127	4
0	80001	10921.369962109007	3
0	80005	10921.417212592371	4
0	80006	10922.122319591591	3
0	80010	10922.379475107547	4
0	80013	10923.015133930543	3
0	80017	10923.149564272129	4
0	80020	10923.74724109856	3
0	80023	10924.513477199791	2
0	80027	10924.691162610521	3
0	80029	10924.784773543538	4
0	80030	10925.355878157714	3
0	80034	10925.386629837441	4
0	80036	10925.462129917049	5
0	80037	10926.194159098422	4
0	80041	10926.646122413767	5
0	80042	10927.040764271594	4
0	80046	10927.302801748327	5
0	80047	10927.536946009924	4
0	80051	10928.058412859617	5
0	80053	10928.074862163315	6
0	80055	10928.159849199098	7
0	80056	10928.236032509045	6
0	80060	10928.266212124161	7
0	80062	10928.269041608589	8
0	80063	10929.136444885084	7
0	80066	10929.68912345328	6
0	80070	10929.773582832427	7
0	80071	10930.451387539214	6
0	80075	10930.833666113661	7
0	80076	10930.962039877601	6
0	80080	10931.088650394766	7
0	80081	10931.824134858964	6
0	80084	10932.463373917049	5
0	80088	10932.500410592771	6
0	80090	10932.816886138936	7
0	80091	10932.869794980144	6
0	80095	10933.006522107575	7
0	80096	10933.671785111805	6
0	80100	10934.133872867731	7
0	80101	10934.431156395362	6
0	80105	10934.476218394962	7
0	80106	10935.422159893471	6
0	80110	10935.655123591925	7
0	80111	10935.844869678454	6
0	80114	10936.622211833518	5
0	80118	10936.662194926012	6
0	80119	10937.148273697529	5
0	80122	10937.814084331352	4
0	80126	10938.324039605327	5
0	80127	10938.595966500962	4
0	80131	10938.768092157518	5
0	80132	10939.147801765321	4
0	80136	10939.42972553836	5
0	80137	10939.902239172194	4
0	80141	10940.362293799972	5
0	80142	10940.748552924055	4
0	80146	10940.91204382331	5
0	80147	10941.216168028289	4
0	80150	10941.636267293557	3
0	80154	10941.796407416195	4
0	80155	10942.254754565689	3
0	80159	10942.28477072239	4
0	80160	10942.736392271505	3
0	80166	10943.10532570381	4
0	80167	10943.685631852304	3
0	80171	10944.121847161195	4
0	80172	10944.529147885261	3
0	80176	10944.594514000448	4
0	80179	10945.202174284389	3
0	80183	10945.284151516719	4
0	80184	10945.719746447947	3
0	80187	10946.702645310234	2
0	80191	10946.796742657279	3
0	80192	10947.662303033272	2
0	80195	10948.354963134635	1
0	80198	10949.036535942122	0
0	80202	10949.110406662965	1
0	80204	10949.330177292078	2
0	80205	10949.613919821089	1
0	80210	10950.44283895617	0
0	80214	10950.621598082105	1
0	80217	10951.17346789328	0
0	80224	10952.042969570946	1
0	80226	10952.076091304006	2
0	80227	10952.286930597281	1
0	80234	10953.222782439725	0
0	80238	10953.358386618425	1
0	80241	10953.733371188106	0
0	80245	10953.945915814856	1
0	80246	10954.652610535162	0
0	80250	10954.99333382173	1
0	80251	10955.510064650501	0
0	80261	10957.457963221173	1
0	80262	10957.735178792838	0
0	80273	10958.446827169725	1
0	80274	10958.869048663357	0
0	80281	10960.153394697516	1
0	80282	10960.621102379623	0
0	80296	10962.024617045643	1
0	80299	10962.806181138323	0
0	80305	10963.573824358706	1
0	80306	10963.701352889498	0
0	80310	10963.940461395669	1
0	80311	10964.407981326745	0
0	80318	10965.155300587442	1
0	80320	10965.268880597955	2
0	80321	10965.418534533248	1
0	80326	10965.939618780032	0
0	80330	10966.562981486961	1
0	80331	10966.78389887571	0
0	80335	10967.15225259904	1
0	80336	10967.707556747353	0
0	80340	10967.877930380217	1
0	80341	10968.364215607044	0
0	80348	10969.153140638396	1
0	80349	10969.449978454306	0
0	80358	10970.434476326261	1
0	80359	10970.7334584494	0
0	80368	10972.254238483395	1
0	80369	10972.418025968398	0
0	80378	10973.226377447296	1
0	80379	10973.640390036383	0
0	80388	10974.829746509124	1
0	80391	10975.184318409243	0
0	80400	10976.371529493315	1
0	80403	10977.088343268481	0
0	80412	10977.971029418091	1
0	80413	10978.076273924379	0
0	80417	10978.261051669101	1
0	80420	10978.578997575386	0
0	80427	10979.45618942341	1
0	80428	10979.822527741907	0
0	80435	10980.7371319502	1
0	80436	10981.327898016698	0
0	80445	10982.627856424741	1
0	80446	10983.083113854691	0
0	80455	10984.07988663533	1
0	80456	10984.839097956415	0
0	80463	10985.793087659123	1
0	80464	10986.411934725554	0
0	80471	10987.215589896802	1
0	80472	10987.977016921514	0
0	80479	10988.802263065467	1
0	80481	10988.895971344071	2
0	80482	10989.354217156382	1
0	80485	10990.073197063045	0
0	80489	10990.313653352679	1
0	80492	10990.750015482526	0
0	80496	10990.776237445927	1
0	80503	10991.725263294285	0
0	80507	10991.941746935189	1
0	80508	10992.274383629752	0
0	80512	10992.540984861119	1
0	80513	10992.705349606262	0
0	80517	10992.890103088068	1
0	80518	10993.668869144922	0
0	80522	10993.833666633839	1
0	80523	10994.108453682611	0
0	80527	10994.243121748686	1
0	80528	10994.67307349689	0
0	80532	10994.798478403253	1
0	80533	10995.196913351618	0
0	80537	10995.406370276924	1
0	80538	10995.774831457749	0
0	80542	10995.823896045948	1
0	80544	10996.64845621166	2
0	80545	10996.755351806512	1
0	80549	10996.855356219	2
0	80551	10997.195768754255	3
0	80552	10997.64995024501	2
0	80556	10997.963979478304	3
0	80557	10998.093559734324	2
0	80561	10998.720383574428	3
0	80562	10999.006096799705	2
0	80566	10999.296415995708	3
0	80567	10999.998948100382	2
0	80570	11000.402570524938	1
0	80574	11000.677796748044	2
0	80575	11001.190537616085	1
0	80579	11001.399140885616	2
0	80582	11002.175498499056	1
0	80586	11002.251731720399	2
0	80587	11003.113080876773	1
0	80590	11003.830179672582	0
0	80594	11004.102737834901	1
0	80596	11004.326124184207	2
0	80597	11004.748813927393	1
0	80601	11004.877839778215	2
0	80603	11004.934327635266	3
0	80604	11005.593180291015	2
0	80608	11006.220217722826	3
0	80609	11006.524812810668	2
0	80612	11006.924846971254	1
0	80615	11007.403161664992	0
0	80619	11007.610888942912	1
0	80621	11007.796534399774	2
0	80622	11008.27385192568	1
0	80626	11009.071363967904	2
0	80628	11009.209612345337	3
0	80629	11009.222131575444	2
0	80633	11009.456344483772	3
0	80636	11009.795996912648	2
0	80640	11010.065512534631	3
0	80641	11010.624760558954	2
0	80644	11011.340515012885	1
0	80648	11011.604176101104	2
0	80650	11011.649709567239	3
0	80652	11011.743305386619	4
0	80653	11012.33882315786	3
0	80657	11012.74994874062	4
0	80658	11012.804335057907	3
0	80662	11012.846481233032	4
0	80665	11013.713149781417	3
0	80668	11014.505163519768	2
0	80672	11014.750961316089	3
0	80673	11015.235732033834	2
0	80676	11016.134103350233	1
0	80680	11016.57186863307	2
0	80682	11016.751856781618	3
0	80683	11016.947624282384	2
0	80687	11017.13182677521	3
0	80691	11017.163322024672	4
0	80693	11017.269271733217	5
0	80694	11017.415246508581	4
0	80697	11018.198916162349	3
0	80701	11018.257450588394	4
0	80703	11018.307290263781	5
0	80704	11018.948373139308	4
0	80708	11019.146591158371	5
0	80711	11019.931339901437	4
0	80715	11020.0580499819	5
0	80716	11020.896778358783	4
0	80720	11021.241806787831	5
0	80721	11021.455550912985	4
0	80725	11021.879448025436	5
0	80726	11022.235854583451	4
0	80729	11022.76006793802	3
0	80732	11023.394235968994	2
0	80736	11023.49919781155	3
0	80738	11023.623110804095	4
0	80740	11023.670566799743	5
0	80741	11023.857477402439	4
0	80744	11024.676745291924	3
0	80747	11025.079509343937	2
0	80750	11025.5581169715	1
0	80754	11025.595331304614	2
0	80756	11026.04901962409	3
0	80758	11026.28506020065	4
0	80759	11026.361938433055	3
0	80763	11026.579078008268	4
0	80764	11027.304076746185	3
0	80768	11027.509498183448	4
0	80769	11028.138590213642	3
0	80773	11028.500843162454	4
0	80776	11028.790608321721	3
0	80780	11028.914296776813	4
0	80781	11029.199971081767	3
0	80785	11029.219981042605	4
0	80786	11030.154399850484	3
0	80790	11030.453286793615	4
0	80791	11030.82678941538	3
0	80794	11031.663064527543	2
0	80798	11031.780661030185	3
0	80800	11031.815936354537	4
0	80802	11031.926310321664	5
0	80803	11032.622083007948	4
0	80807	11032.662514105789	5
0	80808	11033.33677629771	4
0	80812	11033.611449746309	5
0	80814	11033.660093608068	6
0	80816	11033.660992262116	7
0	80817	11034.16921406857	6
0	80821	11034.798660642519	7
0	80822	11034.90220302244	6
0	80826	11035.544931487799	7
0	80827	11035.715582783365	6
0	80831	11035.838145986699	7
0	80832	11036.171191397201	6
0	80836	11036.865694527982	7
0	80837	11037.133898647161	6
0	80840	11037.85566951021	5
0	80844	11038.325075406256	6
0	80845	11038.851559215723	5
0	80850	11039.518784209093	4
0	80854	11039.99148193361	5
0	80856	11040.016042151808	6
0	80857	11040.105209571294	5
0	80861	11040.609632522527	6
0	80862	11040.689499546712	5
0	80866	11040.758042462576	6
0	80868	11041.17815455177	7
0	80870	11041.399860804025	8
0	80871	11041.502275600502	7
0	80874	11042.450115293529	6
0	80878	11042.71646241133	7
0	80880	11042.716586985062	8
0	80881	11043.280641060634	7
0	80885	11043.351067852558	8
0	80886	11044.278926735823	7
0	80890	11044.573031810072	8
0	80891	11044.702581180711	7
0	80895	11044.912537709529	8
0	80896	11045.228184633967	7
0	80899	11046.130144717111	6
0	80903	11046.851565448766	7
0	80904	11047.105049705119	6
0	80909	11047.508445759197	5
0	80913	11047.820080048544	6
0	80914	11048.049073052067	5
0	80918	11048.088884764229	6
0	80919	11048.992776369197	5
0	80923	11049.061531289136	6
0	80925	11049.310411476775	7
0	80926	11049.515786059839	6
0	80930	11050.139310072939	7
0	80931	11050.210667358558	6
0	80935	11050.228097379852	7
0	80938	11050.836377923922	6
0	80942	11051.267093442244	7
0	80943	11051.483704647827	6
0	80946	11052.214055530387	5
0	80949	11052.847332349638	4
0	80953	11053.118673773057	5
0	80957	11053.618184562834	6
0	80959	11053.765995290803	7
0	80960	11053.791297181309	6
0	80964	11053.905791795456	7
0	80965	11054.726096351151	6
0	80969	11054.811397490568	7
0	80970	11055.640363757345	6
0	80973	11056.516737945131	5
0	80977	11056.680191877665	6
0	80979	11056.689904036929	7
0	80980	11056.9460261823	6
0	80986	11057.670391731168	7
0	80987	11057.699215530497	6
0	80991	11057.99425221011	7
0	80992	11058.281703272541	6
0	80996	11058.464994284387	7
0	80997	11058.696525212363	6
0	81001	11059.254336335691	7
0	81002	11059.461851336606	6
0	81006	11059.786149055028	7
0	81007	11060.044642041702	6
0	81011	11060.193091490357	7
0	81012	11060.73017335216	6
0	81015	11061.653612270331	5
0	81019	11061.879845444425	6
0	81020	11062.180856512425	5
0	81023	11063.073662232406	4
0	81027	11063.183993719461	5
0	81029	11063.424543945105	6
0	81030	11063.964522015335	5
0	81035	11064.685354442041	4
0	81039	11064.778152666144	5
0	81040	11065.137783692715	4
0	81044	11065.343116082514	5
0	81045	11065.857400215402	4
0	81048	11066.339880202882	3
0	81052	11066.452832907924	4
0	81054	11066.588991936785	5
0	81055	11067.066289788283	4
0	81058	11067.475297165135	3
0	81064	11067.85582876531	4
0	81065	11067.934399819732	3
0	81070	11068.923799420413	2
0	81074	11069.023044143932	3
0	81076	11069.244411614388	4
0	81078	11069.336858017584	5
0	81079	11069.643647818393	4
0	81083	11069.961441653512	5
0	81085	11069.967306735351	6
0	81086	11070.069805811052	5
0	81090	11070.254840791757	6
0	81091	11070.838606390203	5
0	81095	11071.212061486997	6
0	81096	11071.570153038422	5
0	81100	11071.594435494977	6
0	81101	11072.309113228679	5
0	81105	11072.550557990178	6
0	81106	11072.961682809269	5
0	81110	11073.267537181438	6
0	81111	11073.666708621601	5
0	81115	11074.103986188177	6
0	81116	11074.454082408673	5
0	81120	11074.522627945648	6
0	81121	11075.395392090487	5
0	81125	11075.481548377763	6
0	81126	11075.814900705809	5
0	81130	11075.855154707157	6
0	81133	11076.747176467939	5
0	81137	11076.840619854518	6
0	81138	11077.46766637865	5
0	81142	11077.638100788564	6
0	81143	11078.076124252132	5
0	81146	11078.805778501448	4
0	81150	11078.974382891803	5
0	81151	11079.455987294423	4
0	81156	11080.072613859628	3
0	81160	11080.089833025072	4
0	81161	11080.535861491491	3
0	81164	11081.408009595643	2
0	81168	11081.523757608856	3
0	81170	11081.732516685275	4
0	81171	11082.198321168251	3
0	81175	11082.298789224638	4
0	81176	11082.909698510762	3
0	81180	11083.168616497278	4
0	81181	11083.501286775233	3
0	81185	11083.502491200295	4
0	81186	11084.218239550326	3
0	81190	11084.649158020135	4
0	81191	11085.189172793074	3
0	81195	11085.312892566294	4
0	81196	11086.140435349836	3
0	81200	11086.525210502394	4
0	81201	11086.914589718345	3
0	81205	11087.052081292732	4
0	81206	11087.561267260497	3
0	81209	11088.137124278711	2
0	81213	11088.384037629981	3
0	81216	11089.112679703243	2
0	81219	11089.866559670389	1
0	81223	11090.088632084204	2
0	81225	11090.352656284686	3
0	81226	11090.789326916065	2
0	81229	11091.473811937159	1
0	81233	11091.591136584597	2
0	81234	11092.060771175603	1
0	81238	11092.109393822371	2
0	81240	11092.463971363261	3
0	81242	11092.548355479337	4
0	81243	11092.98232567109	3
0	81246	11093.701961201558	2
0	81250	11094.020445961216	3
0	81252	11094.64040472641	4
0	81253	11094.665882153751	3
0	81257	11094.815075166709	4
0	81264	11095.455541157059	3
0	81268	11095.492125208334	4
0	81269	11096.027767555311	3
0	81272	11096.774103652581	2
0	81276	11097.336349673407	3
0	81277	11097.464333611529	2
0	81281	11097.466797709779	3
0	81283	11097.661182619008	4
0	81285	11097.721785347804	5
0	81288	11098.331896904053	4
0	81292	11098.433547689634	5
0	81293	11098.851151391573	4
0	81296	11099.495262859052	3
0	81300	11100.091560302258	4
0	81301	11100.131839262124	3
0	81305	11100.179947058907	4
0	81306	11100.736811056256	3
0	81310	11100.829442554615	4
0	81313	11101.669950093504	3
0	81317	11102.224049674838	4
0	81318	11102.528598967416	3
0	81321	11103.484890185518	2
0	81325	11103.533548089639	3
0	81327	11103.65305843069	4
0	81328	11104.215021160886	3
0	81332	11104.350252193172	4
0	81333	11105.136314405443	3
0	81337	11105.199423985048	4
0	81338	11105.618045914255	3
0	81342	11106.038174789132	4
0	81343	11106.086105355749	3
0	81347	11106.41379289147	4
0	81348	11106.607419346867	3
0	81352	11106.688807999791	4
0	81353	11107.243738539506	3
0	81357	11107.257334660505	4
0	81358	11107.69376299436	3
0	81361	11108.516014931619	2
0	81364	11109.096455163032	1
0	81368	11109.732396672631	2
0	81369	11109.913083297003	1
0	81372	11110.338345561771	0
0	81379	11111.445712581005	1
0	81381	11111.517707399803	2
0	81383	11111.634916690562	3
0	81384	11111.678719206004	2
0	81390	11112.152568898389	3
0	81392	11112.160057781159	4
0	81393	11112.255181971089	3
0	81397	11112.397032547069	4
0	81398	11112.841473905406	3
0	81404	11113.489131661965	4
0	81405	11113.67740210303	3
0	81411	11113.786134381533	4
0	81413	11114.102013907768	5
0	81414	11114.353249001539	4
0	81418	11114.451401685921	5
0	81419	11115.181023977779	4
0	81422	11116.000340355596	3
0	81426	11116.354481412392	4
0	81427	11116.963409378695	3
0	81431	11117.292612799425	4
0	81432	11117.50681237107	3
0	81436	11117.997310013007	4
0	81437	11118.505985208683	3
0	81440	11119.428312190425	2
0	81443	11120.251410702419	1
0	81447	11120.416954411366	2
0	81448	11120.915338289867	1
0	81452	11120.98041367105	2
0	81453	11121.4785181119	1
0	81456	11122.058867923253	0
0	81463	11122.964181740819	1
0	81465	11123.142726441251	2
0	81466	11123.346179820075	1
0	81470	11123.362744769017	2
0	81471	11123.871549582518	1
0	81477	11124.200014433678	2
0	81478	11124.855497363712	1
0	81482	11125.236863362187	2
0	81483	11125.313922343114	1
0	81487	11125.568932217401	2
0	81488	11125.727137025902	1
0	81491	11126.496705058254	0
0	81506	11129.10572995536	1
0	81510	11129.354980262628	2
0	81511	11129.551478480212	1
0	81514	11130.078551849247	0
0	81518	11130.555769839182	1
0	81521	11131.008564800805	0
0	81525	11131.184166511371	1
0	81526	11131.652154786781	0
0	81536	11132.755677287209	1
0	81539	11133.406118323131	0
0	81553	11134.943454694307	1
0	81556	11135.471684015392	0
0	81565	11136.28093023525	1
0	81566	11137.197730306479	0
0	81573	11137.968605584826	1
0	81574	11138.301386691433	0
0	81586	11139.388033133482	1
0	81591	11140.227553226415	0
0	81603	11141.621830245131	1
0	81604	11142.457107139786	0
0	81615	11143.784502047163	1
0	81616	11144.201924181252	0
0	81625	11145.563298354294	1
0	81626	11145.768651703035	0
0	81635	11146.395637388961	1
0	81636	11146.62805270449	0
0	81645	11147.238767551994	1
0	81646	11147.805809208319	0
0	81657	11148.658728238664	1
0	81658	11148.90507028069	0
0	81667	11149.779959415984	1
0	81669	11149.806832273938	2
0	81670	11150.562530090321	1
0	81675	11151.013901744723	0
0	81682	11152.139663117652	1
0	81683	11152.195653320929	0
0	81697	11154.344899642329	1
0	81698	11154.725195606086	0
0	81705	11155.239316872276	1
0	81706	11155.719868919706	0
0	81715	11156.232249947776	1
0	81716	11156.869729112448	0
0	81723	11158.499382168662	1
0	81724	11158.694337238033	0
0	81733	11159.960027085259	1
0	81736	11160.141629295551	0
0	81743	11160.851752176868	1
0	81745	11160.893563009958	2
0	81747	11161.110268127036	3
0	81748	11161.440153210365	2
0	81753	11161.938268125976	1
0	81757	11161.943674508386	2
0	81758	11162.929501708305	1
0	81762	11163.089924301691	2
0	81763	11163.375162996153	1
0	81767	11163.407905284089	2
0	81768	11163.918061556375	1
0	81772	11164.268926023924	2
0	81773	11164.565345998049	1
0	81776	11164.983682952669	0
0	81780	11165.169921106065	1
0	81781	11165.384983141894	0
0	81785	11165.428474320748	1
0	81786	11166.20330849433	0
0	81790	11166.628966718962	1
0	81791	11166.896965029078	0
0	81795	11166.999791126565	1
0	81796	11167.59180912444	0
0	81800	11167.779941090622	1
0	81801	11168.13697405391	0
0	81805	11168.685353212074	1
0	81806	11169.121638268778	0
0	81810	11169.503088901779	1
0	81813	11170.067266750928	0
0	81817	11170.193489132567	1
0	81818	11170.698615823394	0
0	81822	11170.916717179781	1
0	81823	11171.575455634982	0
0	81827	11171.829704454137	1
0	81828	11172.132565669982	0
0	81835	11173.353640932809	1
0	81836	11173.703669693122	0
0	81845	11174.664681058714	1
0	81846	11175.155058798507	0
0	81853	11175.967833949303	1
0	81854	11176.267936630767	0
0	81863	11177.074135458367	1
0	81864	11177.146727152435	0
0	81875	11178.393796664464	1
0	81876	11178.853021977783	0
0	81886	11180.828955235668	1
0	81889	11180.93470066156	0
0	81898	11182.089541739183	1
0	81899	11182.49159170104	0
0	81997	11195.480011062443	1
0	81998	11195.805837515126	0
0	82009	11196.766350495313	1
0	82010	11197.447171142501	0
0	82020	11199.113285757017	1
0	82023	11199.73086895029	0
0	82032	11200.597406219711	1
0	82037	11201.556344203175	0
0	82050	11202.668234572309	1
0	82051	11203.407078039356	0
0	82070	11205.724539056726	1
0	82073	11206.058897523525	0
0	82079	11206.550435375969	1
0	82082	11206.748574955378	0
0	82086	11206.904390236889	1
0	82087	11207.176993215539	0
0	82091	11207.563015303696	1
0	82092	11207.70713444244	0
0	82102	11209.020886790986	1
0	82103	11209.916166228837	0
0	82110	11210.624032766497	1
0	82113	11211.191209155963	0
0	82120	11211.845061545048	1
0	82123	11212.315694630648	0
0	82127	11212.748554786246	1
0	82128	11213.269090656414	0
0	82132	11213.791059738687	1
0	82133	11213.961511809276	0
0	82137	11214.079770745103	1
0	82142	11214.926897801356	0
0	82146	11215.020464196167	1
0	82147	11215.345643906146	0
0	82151	11215.430084594837	1
0	82152	11216.102756629036	0
0	82162	11217.533966953503	1
0	82164	11217.708449364771	2
0	82165	11218.000538263553	1
0	82170	11218.807461632918	0
0	82174	11219.026639459417	1
0	82177	11219.561066947309	0
0	82181	11219.844023223483	1
0	82182	11220.108041109042	0
0	82186	11220.292178712805	1
0	82187	11220.621681830603	0
0	82191	11220.676048626756	1
0	82194	11221.551198000172	0
0	82198	11222.039488125834	1
0	82199	11222.258171643866	0
0	82203	11222.287021115919	1
0	82204	11222.679414539775	0
0	82210	11223.257714117305	1
0	82211	11223.440512052402	0
0	82215	11223.45986654906	1
0	82217	11223.751942996408	2
0	82218	11224.312150545642	1
0	82222	11224.795622234663	2
0	82223	11224.81294296369	1
0	82227	11224.926204029959	2
0	82228	11225.68782965228	1
0	82231	11226.314899060773	0
0	82235	11226.51783053637	1
0	82236	11226.913262755508	0
0	82240	11227.096287827269	1
0	82242	11227.501118576857	2
0	82244	11227.605364360234	3
0	82245	11227.866146057882	2
0	82249	11227.944017732204	3
0	82250	11228.592538764086	2
0	82254	11229.038696481199	3
0	82255	11229.161922527748	2
0	82258	11229.626634463147	1
0	82262	11230.156102975631	2
0	82264	11230.578596381444	3
0	82265	11230.609272660819	2
0	82270	11231.253148337399	1
0	82274	11231.287563357289	2
0	82276	11231.569313867666	3
0	82277	11231.775103855078	2
0	82281	11232.396540038001	3
0	82282	11232.757554496211	2
0	82286	11233.142192163314	3
0	82287	11233.204846189535	2
0	82291	11233.252461911246	3
0	82292	11233.81861444152	2
0	82296	11234.022561230306	3
0	82297	11234.44668356156	2
0	82301	11235.178314302186	3
0	82303	11235.30302221581	4
0	82304	11235.420242031608	3
0	82308	11235.745731408494	4
0	82309	11236.145947116791	3
0	82314	11236.939583255063	2
0	82317	11237.821174344971	1
0	82320	11238.226123404774	0
0	82324	11238.512600595596	1
0	82326	11238.730639766347	2
0	82328	11238.750186422796	3
0	82329	11239.039474912957	2
0	82333	11239.099830795405	3
0	82334	11239.629569686149	2
0	82338	11240.063510490996	3
0	82339	11240.540978849531	2
0	82343	11240.558280640158	3
0	82344	11241.540459566043	2
0	82348	11241.723126194689	3
0	82349	11242.00864708623	2
0	82353	11242.334153566685	3
0	82354	11242.741897377084	2
0	82358	11242.93076799617	3
0	82359	11243.335312642335	2
0	82363	11243.530245584847	3
0	82364	11244.057501345632	2
0	82367	11244.63180010616	1
0	82370	11245.404575246332	0
0	82374	11245.493128979562	1
0	82375	11246.102947471935	0
0	82379	11246.574413730105	1
0	82381	11246.793384903574	2
0	82382	11246.867935618564	1
0	82386	11247.189883463129	2
0	82388	11247.192383246702	3
0	82390	11247.232456647911	4
0	82391	11247.660751421369	3
0	82395	11248.170269898619	4
0	82396	11248.319151548521	3
0	82400	11248.459201882974	4
0	82401	11248.758696293124	3
0	82407	11249.233110439226	4
0	82408	11249.615741928565	3
0	82412	11250.010632915567	4
0	82413	11250.278129574462	3
0	82417	11250.756144798949	4
0	82418	11251.247283746666	3
0	82422	11251.799258317449	4
0	82423	11252.180758406772	3
0	82427	11252.510463616532	4
0	82428	11252.876212603544	3
0	82432	11252.918749226086	4
0	82433	11253.675223127884	3
0	82436	11254.172587732683	2
0	82440	11254.798374851932	3
0	82441	11254.830077808249	2
0	82445	11254.86527628243	3
0	82447	11254.90388648306	4
0	82448	11255.438424204934	3
0	82452	11255.687212079516	4
0	82453	11255.934780184591	3
0	82457	11256.105954160546	4
0	82458	11256.612093920626	3
0	82461	11257.093117246071	2
0	82465	11257.563894010322	3
0	82467	11257.650437490754	4
0	82468	11258.070898422824	3
0	82472	11258.338043008521	4
0	82473	11259.068423519369	3
0	82477	11259.162080721072	4
0	82478	11259.646872961886	3
0	82482	11259.684929152921	4
0	82483	11260.129199929341	3
0	82487	11260.537377041347	4
0	82489	11260.548096472551	5
0	82490	11260.841913095202	4
0	82494	11260.887022013356	5
0	82495	11261.4997475502	4
0	82499	11262.027433737617	5
0	82500	11262.186085229778	4
0	82504	11262.288701333333	5
0	82505	11262.972995411271	4
0	82509	11263.082753447483	5
0	82510	11263.725776553798	4
0	82514	11264.066610414995	5
0	82515	11264.66503037884	4
0	82519	11264.92024084585	5
0	82520	11265.277020220636	4
0	82524	11265.627702740613	5
0	82525	11265.78270611208	4
0	82529	11266.009028122472	5
0	82530	11266.481613306367	4
0	82534	11266.498030925651	5
0	82535	11267.000780304001	4
0	82538	11267.706574798321	3
0	82542	11267.837944885961	4
0	82543	11268.328320521621	3
0	82547	11268.9803743122	4
0	82549	11269.003324707804	5
0	82550	11269.300795471288	4
0	82553	11269.738157385301	3
0	82556	11270.140496913895	2
0	82560	11270.180041982287	3
0	82561	11270.807959077267	2
0	82564	11271.450895276891	1
0	82568	11271.868862361139	2
0	82570	11272.152925130798	3
0	82571	11272.296607905339	2
0	82575	11272.471797252436	3
0	82576	11273.220017794325	2
0	82580	11273.65554563065	3
0	82581	11273.96258921804	2
0	82584	11274.37001235596	1
0	82588	11274.766163415365	2
0	82590	11275.009294103118	3
0	82591	11275.338347550846	2
0	82595	11275.475033690538	3
0	82598	11276.203040465099	2
0	82602	11276.886801725245	3
0	82603	11276.913195458745	2
0	82607	11276.975900737065	3
0	82608	11277.769397912865	2
0	82612	11278.120845301587	3
0	82614	11278.245202507962	4
0	82615	11278.571994205184	3
0	82619	11278.925448031573	4
0	82620	11279.395496900372	3
0	82624	11279.522976817249	4
0	82625	11280.186993096296	3
0	82629	11280.540799414178	4
0	82632	11281.121382635825	3
0	82636	11281.316081322291	4
0	82637	11282.016628734481	3
0	82641	11282.653294529055	4
0	82642	11282.812217530135	3
0	82646	11283.169362875858	4
0	82648	11283.29118968949	5
0	82649	11283.586751099575	4
0	82654	11284.343766147589	3
0	82658	11284.398609238308	4
0	82660	11284.677324558996	5
0	82661	11284.846759947195	4
0	82665	11284.929392923186	5
0	82666	11285.26464281263	4
0	82670	11285.493291605061	5
0	82672	11285.706513588993	6
0	82675	11286.235624999266	5
0	82678	11287.093115030641	4
0	82682	11287.588155830748	5
0	82684	11287.952057282746	6
0	82685	11287.996767026924	5
0	82688	11288.766727464918	4
0	82692	11289.488062194669	5
0	82693	11289.567154368285	4
0	82697	11289.870881712669	5
0	82699	11290.10630610493	6
0	82700	11290.158586850475	5
0	82704	11290.336071603486	6
0	82705	11290.755478285292	5
0	82708	11291.614864405004	4
0	82712	11291.854318619791	5
0	82714	11292.035227084208	6
0	82716	11292.166324195064	7
0	82717	11292.17122227735	6
0	82721	11292.177500489903	7
0	82722	11293.141551380457	6
0	82726	11293.230632727084	7
0	82727	11293.640507228246	6
0	82731	11293.898442375628	7
0	82732	11294.522905490121	6
0	82736	11294.531085187183	7
0	82737	11295.222029584592	6
0	82741	11295.247983121153	7
0	82742	11296.13791611436	6
0	82746	11296.247799536691	7
0	82747	11297.128330190053	6
0	82751	11297.340848139875	7
0	82752	11298.050543690046	6
0	82756	11298.098704548906	7
0	82757	11298.762554719384	6
0	82761	11298.785325510391	7
0	82764	11299.282320182669	6
0	82768	11299.356357270884	7
0	82769	11299.970946202838	6
0	82772	11300.415938808854	5
0	82776	11300.504832414438	6
0	82777	11301.309835618913	5
0	82780	11302.295618868146	4
0	82784	11302.412692430611	5
0	82786	11302.803687001428	6
0	82787	11303.272301724033	5
0	82790	11303.794981825111	4
0	82795	11304.590083849422	3
0	82799	11304.864565933764	4
0	82800	11305.106095570271	3
0	82804	11305.144620787401	4
0	82805	11306.014102394265	3
0	82811	11306.355433428384	4
0	82812	11306.989655369745	3
0	82816	11307.641992197363	4
0	82817	11307.853914619276	3
0	82821	11307.952375549318	4
0	82822	11308.389110232835	3
0	82826	11308.638168421035	4
0	82827	11308.976135446915	3
0	82831	11309.393415262604	4
0	82832	11309.852214165071	3
0	82836	11310.160602913461	4
0	82837	11310.785934707049	3
0	82841	11310.970294274751	4
0	82842	11311.346476501219	3
0	82846	11311.387284724184	4
0	82847	11311.750771928199	3
0	82851	11312.167158383322	4
0	82852	11312.197112986718	3
0	82856	11312.197937996318	4
0	82857	11312.942253090481	3
0	82861	11313.71145660872	4
0	82863	11313.882881721978	5
0	82864	11313.939019843277	4
0	82868	11314.216079256758	5
0	82869	11314.879030814015	4
0	82872	11315.633177352643	3
0	82876	11315.683714562411	4
0	82877	11316.537524702812	3
0	82881	11316.610731131901	4
0	82882	11317.03975473949	3
0	82886	11317.62787006464	4
0	82887	11317.724067868844	3
0	82891	11317.743406833469	4
0	82892	11318.336345540725	3
0	82896	11318.492480327487	4
0	82897	11318.990978904154	3
0	82901	11319.104019488757	4
0	82902	11319.807246224714	3
0	82908	11319.933050025834	4
0	82909	11320.706373453272	3
0	82913	11320.751294887148	4
0	82914	11321.67517827348	3
0	82918	11321.83433433428	4
0	82919	11322.418042463941	3
0	82923	11322.425160460592	4
0	82924	11322.926381369393	3
0	82927	11323.483528856413	2
0	82931	11323.959689481597	3
0	82932	11324.010327722311	2
0	82935	11324.549580428183	1
0	82938	11325.008382034155	0
0	82942	11325.086088168251	1
0	82945	11325.966681383031	0
0	82949	11326.024708070108	1
0	82950	11326.821130552555	0
0	82959	11327.538508743656	1
0	82961	11327.769571926364	2
0	82962	11328.165480447041	1
0	82965	11328.593644337954	0
0	82969	11328.700762534718	1
0	82972	11329.26868589245	0
0	82976	11329.869681807313	1
0	82977	11329.910599410061	0
0	82981	11330.458016162541	1
0	82982	11330.759328031672	0
0	82991	11331.614974025678	1
0	82993	11332.200542465899	2
0	82994	11332.247301474066	1
0	82998	11332.660886128498	2
0	83001	11332.808391261559	1
0	83004	11333.516006480709	0
0	83008	11333.947548514944	1
0	83009	11334.433924988604	0
0	83013	11334.79505382231	1
0	83014	11335.09141340134	0
0	83018	11335.160894717428	1
0	83019	11335.781169414374	0
0	83026	11336.609128179124	1
0	83027	11337.059135925298	0
0	83036	11337.619086877453	1
0	83037	11338.028600523056	0
0	83046	11338.648932372962	1
0	83047	11339.156205294228	0
0	83059	11340.779511012063	1
0	83061	11340.83488590117	2
0	83064	11341.311049445665	1
0	83067	11341.737598440556	0
0	83076	11342.985309013856	1
0	83077	11343.185497097664	0
0	83084	11344.220991012496	1
0	83085	11344.837505889257	0
0	83089	11345.097408907988	1
0	83092	11345.743591908777	0
0	83096	11345.76069623944	1
0	83099	11346.495163775973	0
0	83103	11346.535887433678	1
0	83104	11347.431625045782	0
0	83110	11347.799885498215	1
0	83111	11348.313955537874	0
0	83118	11349.202887843508	1
0	83119	11349.569344036833	0
0	83128	11350.484998566822	1
0	83130	11350.536586806983	2
0	83131	11351.422523827331	1
0	83134	11351.827649156602	0
0	83138	11351.844015231475	1
0	83139	11352.755104007052	0
0	83143	11352.788059974423	1
0	83146	11353.723555449435	0
0	83150	11353.866106311321	1
0	83151	11354.52581286993	0
0	83155	11354.745517587803	1
0	83156	11355.089570634804	0
0	83160	11355.643127327754	1
0	83161	11355.710754898695	0
0	83165	11356.48035708851	1
0	83166	11356.687296522727	0
0	83173	11357.764492303348	1
0	83175	11357.894993397842	2
0	83176	11358.237667278053	1
0	83182	11359.060509707859	2
0	83183	11359.065001065556	1
0	83187	11359.534021014814	2
0	83188	11359.589701770797	1
0	83194	11360.463931425909	2
0	83195	11360.524691991174	1
0	83199	11360.578107369343	2
0	83200	11361.041362881373	1
0	83204	11361.106855418004	2
0	83205	11361.696334632571	1
0	83208	11362.165582282321	0
0	83212	11362.663874399582	1
0	83213	11362.700105185426	0
0	83217	11362.837595510269	1
0	83218	11363.431604396823	0
0	83222	11363.576150661986	1
0	83223	11364.095044324725	0
0	83227	11364.525464108821	1
0	83229	11364.597804182856	2
0	83230	11365.077909334461	1
0	83234	11365.460152486509	2
[...]
9	209883	28508.018637675015	2
9	209885	28508.595860003561	1
9	209888	28508.62244724074	2
9	209891	28509.077584463885	3
9	209893	28509.227002451129	2
9	209898	28509.787945284948	1
9	209900	28509.944655726772	0
9	210021	28526.931744832561	1
9	210023	28526.947940212461	0
9	210114	28542.343442378725	1
9	210116	28542.361935399958	0
9	210139	28546.63903267367	1
9	210141	28547.123951578732	0
9	210171	28551.281814031137	1
9	210173	28551.364937367524	0
9	210176	28552.116349660486	1
9	210178	28552.336834211015	0
9	210181	28552.65669298188	1
9	210184	28553.077572332017	2
9	210186	28553.304270938408	1
9	210189	28553.573852442458	2
9	210191	28553.785533282294	1
9	210193	28553.817959741145	0
9	210208	28555.813064291302	1
9	210210	28556.03267219898	0
9	210213	28556.356808709327	1
9	210215	28556.510409227504	0
9	210261	28561.130592764656	1
9	210264	28561.64743379813	2
9	210266	28562.098081486553	1
9	210269	28562.353913447935	2
9	210271	28562.513078810477	1
9	210275	28562.735001080453	0
9	210314	28568.465515413483	1
9	210317	28568.969178170546	2
9	210319	28569.071138646084	1
9	210324	28570.102769597486	0
9	210341	28571.759148930175	1
9	210343	28572.221978991695	0
9	210366	28574.934038314013	1
9	210368	28574.960180521891	0
9	210479	28589.42029885568	1
9	210482	28590.06722928013	2
9	210487	28590.615539723842	3
9	210490	28591.163022170749	4
9	210492	28591.166024093563	3
9	210494	28591.33525661938	2
9	210496	28591.734532884474	1
9	210498	28591.873118989648	0
9	210555	28598.511428418824	1
9	210557	28598.869518295875	0
9	210560	28598.934497492549	1
9	210562	28599.115257156686	0
9	210590	28603.0934733581	1
9	210592	28603.21885939151	0
9	210609	28605.104291528018	1
9	210614	28605.896885881081	2
9	210616	28606.093364206808	1
9	210619	28606.405775845257	2
9	210621	28606.476672304413	1
9	210623	28607.162395335998	0
9	210626	28607.168930305141	1
9	210629	28607.743287501085	2
9	210631	28607.853928554511	1
9	210633	28607.920587421967	0
9	210670	28613.382892307101	1
9	210672	28613.448138945824	0
9	210711	28619.639485672975	1
9	210713	28619.958915889519	0
9	210716	28620.057021196812	1
9	210718	28620.095591462702	0
9	211763	28764.335051273155	1
9	211765	28764.603639620824	0
9	212155	28815.814028051841	1
9	212157	28816.076029040045	0
9	212201	28821.80549763606	1
9	212203	28821.94040849014	0
9	212206	28822.259252509448	1
9	212208	28822.594436240312	0
9	212211	28822.695894242098	1
9	212213	28823.023608136481	0
9	212216	28823.410804615469	1
9	212220	28823.699816665906	0
9	212223	28823.959065553426	1
9	212225	28824.003804892864	0
9	212250	28827.662896659525	1
9	212253	28828.130988260984	2
9	212255	28828.767098041784	1
9	212258	28828.805426551748	2
9	212260	28828.956412094619	1
9	212263	28829.255028782619	2
9	212265	28829.28940469767	1
9	212267	28829.656452332637	0
9	212270	28829.761764027292	1
9	212272	28829.899818616795	0
9	212275	28830.493748187807	1
9	212277	28830.584754869039	0
9	212280	28831.297730064879	1
9	212282	28831.436709201507	0
9	212285	28831.709953665987	1
9	212287	28832.439773145563	0
9	212290	28832.679747227786	1
9	212292	28832.921444704603	0
9	212317	28836.564010238436	1
9	212319	28836.871112400368	0
9	212342	28840.125437642376	1
9	212345	28840.732395920039	2
9	212350	28841.595417341565	3
9	212352	28841.799766322923	2
9	212354	28841.958942998425	1
9	212357	28842.028483788924	2
9	212359	28842.124742932508	1
9	212361	28842.213421750981	0
9	212397	28847.426395553744	1
9	212399	28848.182417469356	0
9	212414	28849.466557248983	1
9	212416	28849.906814324832	0
9	212419	28850.164485654629	1
9	212423	28850.599472116986	0
9	212426	28850.60432133132	1
9	212428	28850.717068539454	0
9	212451	28854.520028839096	1
9	212453	28854.638673878387	0
9	212466	28856.409050177106	1
9	212468	28856.83204796617	0
9	212476	28857.361622966801	1
9	212478	28857.695305274799	0
9	212481	28857.846514382421	1
9	212483	28857.936892988758	0
9	212486	28858.30956223246	1
9	212488	28858.71256014331	0
9	212496	28859.877899460889	1
9	212498	28860.15890878442	0
9	212501	28860.398832457209	1
9	212503	28860.849821454893	0
9	212521	28863.311181075148	1
9	212523	28863.671124224112	0
9	212538	28865.440258951973	1
9	212540	28865.574989627493	0
9	212548	28866.695836474582	1
9	212551	28867.102367399143	2
9	212553	28867.405851560696	1
9	212555	28867.690088707867	0
9	212583	28871.427730421418	1
9	212585	28871.58295894347	0
9	212593	28872.905256891739	1
9	212595	28873.037089365726	0
9	212639	28878.97722023779	1
9	212641	28879.460243758964	0
9	212674	28883.835350454389	1
9	212676	28884.123169462291	0
9	212697	28887.276332634432	1
9	212699	28887.476387538056	0
9	212707	28888.652085274948	1
9	212711	28889.355944938184	0
9	213262	28966.678109491455	1
9	213264	28966.795272276074	0
9	213458	28991.567193530994	1
9	213461	28992.001417022693	2
9	213466	28992.464114484319	1
9	213468	28992.914417137587	0
9	213523	28999.797010529071	1
9	213525	28999.808840541877	0
9	213528	29000.217362903926	1
9	213530	29000.519510082023	0
9	213533	29001.124378000555	1
9	213535	29001.458845991131	0
9	213546	29003.173149931087	1
9	213551	29003.667809219921	0
9	213564	29004.992799640615	1
9	213569	29005.550517011136	2
9	213571	29005.621389869201	1
9	213576	29006.104640623379	0
9	213621	29011.571545429183	1
9	213623	29011.694281653161	0
9	213636	29013.940424957573	1
9	213639	29014.425886747036	2
9	213641	29015.073305019612	1
9	213643	29015.169867710761	0
9	213666	29017.941416213921	1
9	213668	29017.950935472622	0
9	213681	29019.683785438006	1
9	213686	29020.417328957044	0
9	213784	29034.194210075662	1
9	213791	29034.877301243072	0
9	213817	29037.854608409508	1
9	213820	29038.265696587396	2
9	213823	29038.679445963801	3
9	213825	29038.805114488417	2
9	213828	29039.265510736388	3
9	213830	29039.320548103898	2
9	213832	29039.839907978507	1
9	213835	29039.929028762533	2
9	213837	29039.9436489291	1
9	213839	29039.946182544342	0
9	213901	29047.953705203887	1
9	213903	29048.101105640268	0
9	213958	29056.636551494366	1
9	213960	29057.102721697161	0
9	213968	29058.028256453974	1
9	213970	29058.251742242095	0
9	213973	29058.936274524946	1
9	213975	29059.089991664835	0
9	214002	29062.425409596814	1
9	214004	29062.679931653954	0
9	214007	29062.910072963061	1
9	214009	29063.188666419853	0
9	214012	29063.808950961456	1
9	214014	29063.944314885049	0
9	214077	29073.202214485251	1
9	214079	29073.219526671189	0
9	214087	29074.650988190838	1
9	214089	29075.032865756166	0
9	214092	29075.078102636461	1
9	214094	29075.632717825756	0
9	214097	29075.66908819767	1
9	214099	29076.108789626247	0
9	214128	29079.033263468632	1
9	214131	29079.616013056302	2
9	214134	29080.158216214023	3
9	214136	29080.398554556929	2
9	214143	29081.193756113036	1
9	214145	29081.352548580356	0
9	214148	29081.730643600395	1
9	214150	29081.787212324742	0
9	214158	29083.192456518376	1
9	214160	29083.349162977192	0
9	214656	29155.527284655329	1
9	214661	29156.568978961329	0
9	214848	29180.012441522517	1
9	214850	29180.270347419781	0
9	214873	29182.921783742152	1
9	214875	29183.345993391495	0
9	214905	29187.62211981158	1
9	214907	29187.844615339123	0
9	214984	29198.27404392048	1
9	214986	29198.518989024696	0
9	215013	29201.868406625029	1
9	215015	29202.218262770097	0
9	215018	29202.276760444494	1
9	215020	29202.30824111894	0
9	215023	29203.042043962685	1
9	215028	29203.877830088447	2
9	215030	29204.458572252548	1
9	215032	29204.539800747267	0
9	215153	29221.440176584555	1
9	215155	29222.138525409363	0
9	215168	29223.88335302382	1
9	215172	29224.131490379558	0
9	215202	29228.116135648203	1
9	215204	29228.336432090368	0
9	215207	29228.603428919411	1
9	215211	29229.058487501514	0
9	215244	29233.58383636077	1
9	215246	29233.991725838334	0
9	215254	29234.992408207926	1
9	215256	29235.03659728606	0
9	215259	29235.507922418398	1
9	215261	29235.912058019654	0
9	215264	29235.960665389319	1
9	215269	29236.758196263836	2
9	215271	29237.204382299614	1
9	215274	29237.348790636036	2
9	215276	29237.559660486628	1
9	215278	29237.770330155939	0
9	215281	29237.926175253029	1
9	215283	29238.005089840105	0
9	215341	29246.150778616015	1
9	215343	29246.650044425994	0
9	215356	29248.656908834242	1
9	215358	29249.122109995527	0
9	215396	29254.400488470197	1
9	215398	29254.515072675877	0
9	215463	29263.366056610208	1
9	215465	29263.456024024954	0
9	215489	29266.654668903148	1
9	215491	29266.710049804751	0
9	215494	29267.206729697839	1
9	215496	29267.495687747804	0
9	215499	29267.720767762822	1
9	215501	29267.813090048732	0
9	215524	29271.499931280114	1
9	215527	29272.439003497813	2
9	215529	29272.835988176205	1
9	215532	29272.993172580455	2
9	215537	29273.796749448715	3
9	215539	29274.152074152777	2
9	215541	29274.505851346381	1
9	215544	29274.726304315714	2
9	215546	29275.099460668134	1
9	215548	29275.524313906266	0
9	215551	29275.643799471561	1
9	215554	29276.170964698153	2
9	215559	29276.800355161246	3
9	215561	29277.231742406276	2
9	215564	29277.319367403941	3
9	215567	29277.894932697559	4
9	215569	29278.245741727207	3
9	215571	29278.480170347589	2
9	215574	29278.802780478852	3
9	215576	29279.388790511646	2
9	215579	29279.449469929453	3
9	215581	29279.488691427899	2
9	215583	29279.592775374487	1
9	215585	29279.969983374934	0
9	215588	29280.066034920359	1
9	215590	29280.142535492728	0
9	215595	29280.769372305306	1
9	215597	29281.117224779589	0
9	215629	29285.249930399176	1
9	215632	29285.90119155588	2
9	215634	29285.96190258537	1
9	215636	29285.99034053151	0
9	215639	29286.38664785813	1
9	215641	29286.494501202801	0
9	215692	29293.650224203695	1
9	215695	29294.311088611357	2
9	215697	29294.421691087241	1
9	215699	29294.496672037932	0
9	215707	29295.687225640364	1
9	215709	29295.796284667165	0
9	215764	29304.550095516568	1
9	215766	29304.878589302791	0
9	215769	29304.964733836552	1
9	215772	29305.713727929754	2
9	215774	29305.855508354995	1
9	215776	29306.266838820757	0
9	215784	29307.558257147887	1
9	215786	29307.81485817673	0
9	215947	29326.010044485268	1
9	215949	29326.058092333729	0
9	215957	29327.756438076247	1
9	215959	29328.129361955536	0
9	215962	29328.723637571589	1
9	215964	29328.949933721075	0
9	215979	29330.74304071612	1
9	215981	29331.030371224472	0
9	216001	29334.193479203185	1
9	216003	29334.325993193214	0
9	216006	29334.683649311479	1
9	216009	29335.673060526265	2
9	216011	29335.706277496771	1
9	216013	29335.87642162104	0
9	216049	29341.344447773866	1
9	216051	29341.373061848842	0
9	216064	29342.935556823931	1
9	216066	29343.348182948996	0
9	216104	29348.640113234085	1
9	216107	29349.306257134194	2
9	216110	29350.249237293687	3
9	216112	29350.386960255135	2
9	216115	29351.019309813932	3
9	216117	29351.289602040562	2
9	216119	29351.4150544869	1
9	216122	29351.893803645933	2
9	216124	29352.295727967431	1
9	216127	29352.296527874406	2
9	216131	29352.667633137517	1
9	216134	29353.236409075262	2
9	216139	29353.655222078536	3
9	216141	29353.719813111423	2
9	216143	29353.91741276755	1
9	216145	29354.427452249667	0
9	216148	29354.581663654682	1
9	216150	29354.711118602498	0
9	216175	29358.196156522569	1
9	216177	29358.476589007413	0
9	216180	29358.877249831271	1
9	216183	29359.441784934963	2
9	216185	29359.456855801291	1
9	216187	29359.842693552082	0
9	216287	29374.960987594615	1
9	216289	29374.97183574596	0
9	216339	29382.708421949234	1
9	216341	29382.739572854432	0
9	216344	29383.145193945879	1
9	216346	29383.166839335602	0
9	216359	29384.755426852714	1
9	216363	29385.193960554624	0
9	216366	29385.406590561412	1
9	216368	29385.444734860783	0
9	216373	29386.010217679228	1
9	216376	29386.783181261766	2
9	216378	29386.88152585863	1
9	216381	29387.259921877953	2
9	216383	29387.407913965452	1
9	216385	29387.493345261581	0
9	216403	29390.215650719898	1
9	216405	29390.216576589526	0
9	216423	29393.055755747371	1
9	216425	29393.128673282652	0
9	216428	29393.905073172395	1
9	216432	29394.16832256455	0
9	216435	29394.39063008207	1
9	216437	29394.585465035395	0
9	216443	29396.033921941632	1
9	216445	29396.426193143532	0
9	216477	29400.14394090686	1
9	216480	29400.5629626117	2
9	216482	29401.119023832791	1
9	216485	29401.253941668599	2
9	216489	29401.669449898424	1
9	216492	29402.12274590999	2
9	216494	29402.139865750522	1
9	216497	29403.057097359496	2
9	216501	29403.500540864157	1
9	216504	29403.719510880048	2
9	216506	29403.750146867856	1
9	216508	29404.27610959652	0
9	216511	29404.581253259611	1
9	216514	29405.176180299307	2
9	216516	29405.54477723211	1
9	216519	29405.606988952244	2
9	216521	29405.666910859177	1
9	216523	29406.001969448701	0
9	216553	29410.550340301619	1
9	216555	29410.63344774905	0
9	216558	29411.315461249166	1
9	216560	29411.465084345394	0
9	216563	29411.926435036381	1
9	216565	29411.955368116067	0
9	216578	29414.106909590942	1
9	216580	29414.209872410688	0
9	216605	29417.508365883148	1
9	216607	29417.988498051115	0
9	216632	29421.479325436784	1
9	216634	29421.524121817241	0
9	216637	29422.164181991464	1
9	216639	29422.222853451439	0
9	216642	29422.90495837725	1
9	216644	29422.921184982241	0
9	216647	29423.421956029378	1
9	216649	29423.580085469598	0
9	216664	29425.559133763781	1
9	216669	29426.721387788574	0
9	216672	29426.935159683956	1
9	216675	29427.48533150417	2
9	216677	29427.604785084515	1
9	216681	29427.739070868074	0
9	216684	29427.902721183032	1
9	216687	29428.748018446828	2
9	216690	29429.293497364766	3
9	216692	29429.435222737423	2
9	216694	29429.661344995795	1
9	216697	29429.822626574648	2
9	216701	29430.208514078453	1
9	216703	29430.427269697659	0
9	216746	29435.56746297873	1
9	216748	29435.661200869575	0
9	216771	29439.006514775318	1
9	216773	29439.06071753769	0
9	216776	29439.55058612291	1
9	216778	29440.144170500349	0
9	216781	29440.397313806538	1
9	216783	29440.445735984083	0
9	216796	29442.641369357736	1
9	216799	29443.082900137439	2
9	216801	29443.230329960273	1
9	216803	29443.498791962796	0
9	216849	29451.309287895387	1
9	216851	29451.632056326173	0
9	216884	29456.33384127024	1
9	216886	29456.342408251482	0
9	216907	29460.01639343643	1
9	216909	29460.120226249037	0
9	216917	29461.292580195082	1
9	216919	29461.495416563125	0
9	216977	29468.978598048429	1
9	216979	29469.206226162439	0
9	217057	29479.975897258459	1
9	217059	29480.014717626861	0
9	217143	29491.100253764664	1
9	217145	29491.427300833311	0
9	217158	29493.120125556908	1
9	217161	29493.840514175392	2
9	217163	29494.006205214133	1
9	217165	29494.510884107263	0
9	217173	29495.166877862982	1
9	217175	29495.222471672457	0
9	217178	29496.004681653095	1
9	217180	29496.558645616275	0
9	217223	29502.210910796127	1
9	217225	29502.48385501893	0
9	217233	29503.570033236299	1
9	217235	29503.596750638729	0
9	217238	29504.382616229015	1
9	217240	29504.388789513843	0
9	217288	29511.938388815182	1
9	217290	29512.126907667076	0
9	217293	29512.811340695652	1
9	217296	29513.441395807206	2
9	217298	29513.791368946125	1
9	217300	29513.83540686442	0
9	217303	29514.002944950373	1
9	217305	29514.395685559309	0
9	217313	29515.275510704224	1
9	217315	29515.558774072887	0
9	217323	29516.36135993999	1
9	217325	29516.466388940686	0
9	217333	29518.245383361527	1
9	217335	29518.380637516497	0
9	217390	29525.869050216055	1
9	217396	29526.955582105448	2
9	217398	29527.090079256373	1
9	217400	29527.19660429825	0
9	217413	29529.16352205494	1
9	217415	29529.356878863453	0
9	217418	29530.153980484452	1
9	217420	29530.66137990467	0
9	217423	29530.716303240402	1
9	217425	29531.339603726707	0
9	217428	29531.421151544001	1
9	217430	29531.689435010987	0
9	217436	29532.594021966435	1
9	217438	29532.895382699109	0
9	217444	29533.499258941865	1
9	217446	29533.52750891066	0
9	217505	29540.998687603313	1
9	217507	29541.060220539246	0
9	217606	29554.411138425757	1
9	217610	29554.579558016723	0
9	217642	29558.437166060869	1
9	217644	29558.444797269258	0
9	217682	29562.613152515691	1
9	217685	29563.195114403952	2
9	217687	29563.204622347895	1
9	217691	29563.963746836172	0
9	217707	29566.130583920225	1
9	217709	29566.673978341811	0
9	217717	29567.50161741263	1
9	217719	29567.800248838056	0
9	217722	29568.065616067953	1
9	217724	29568.819731985297	0
9	217739	29570.649960404064	1
9	217744	29571.641986377432	2
9	217746	29571.852051789997	1
9	217748	29572.322572129045	0
9	217751	29572.588202967576	1
9	217753	29572.735259283878	0
9	217756	29573.267601733596	1
9	217758	29573.735136574367	0
9	217804	29578.523297282249	1
9	217806	29578.541213667805	0
9	217814	29579.789353973219	1
9	217816	29580.200985581313	0
9	217827	29581.855862746375	1
9	217829	29582.127678807912	0
9	217852	29585.364245933793	1
9	217854	29585.545044481272	0
9	217902	29592.523568610741	1
9	217904	29593.131842212522	0
9	217907	29593.169034875404	1
9	217909	29593.245529198165	0
9	217922	29595.336346590506	1
9	217924	29595.744715426739	0
9	217932	29596.938596703285	1
9	217934	29596.955475412371	0
9	217952	29599.267624602779	1
9	217954	29599.64531908469	0
9	217980	29603.503840371718	1
9	217982	29603.511671379382	0
9	217985	29604.235141776487	1
9	217987	29604.236037925621	0
9	218002	29606.185697650894	1
9	218006	29606.794141408594	0
9	218026	29608.912403654291	1
9	218028	29608.956879838499	0
9	218063	29614.331029909414	1
9	218065	29614.551468774996	0
9	218085	29617.21379753154	1
9	218088	29618.005865606416	2
9	218090	29618.195227992047	1
9	218092	29618.551444501795	0
9	218133	29624.17530380523	1
9	218136	29624.632744218206	2
9	218138	29624.770343089959	1
9	218140	29624.822392330478	0
9	218145	29625.043784189394	1
9	218147	29625.057053205281	0
9	218221	29635.222327234253	1
9	218223	29635.433379070087	0
9	218247	29639.503843854955	1
9	218249	29639.629073622515	0
9	218619	29692.964170440085	1
9	218622	29693.927612606514	2
9	218624	29694.402512710432	1
9	218629	29694.565151819946	0
9	218657	29697.617051244511	1
9	218659	29697.661728834212	0
9	218823	29718.673423335779	1
9	218826	29719.142223840192	2
9	218828	29719.143346882931	1
9	218830	29719.219342742407	0
9	218868	29724.345689768143	1
9	218871	29724.812385959163	2
9	218873	29725.056707256826	1
9	218881	29726.366535904104	2
9	218883	29726.629496691461	1
9	218893	29727.814876512285	0
9	219319	29784.399689924006	1
9	219321	29784.70626876202	0
9	219352	29789.679318619506	1
9	219358	29790.106550479321	0
9	219364	29790.8106594744	1
9	219366	29790.813699774085	0
9	219474	29803.602688197454	1
9	219481	29804.811155333945	0
9	219548	29813.439206287253	1
9	219550	29813.986382999946	0
9	219641	29825.483664762823	1
9	219643	29825.578628567006	0
9	219691	29832.865751486774	1
9	219693	29833.187348300678	0
9	219696	29833.319340163646	1
9	219698	29833.665604447373	0
9	219865	29858.134569928694	1
9	219867	29858.234109527308	0
9	219916	29864.268962835885	1
9	219921	29864.927387424364	2
9	219923	29865.072847991553	1
9	219925	29865.348320991308	0
9	219928	29865.665864231383	1
9	219930	29865.75076357647	0
9	219977	29872.188075041902	1
9	219979	29872.662089673491	0
9	219982	29873.149342352842	1
9	219984	29873.372967997764	0
9	220051	29882.472629896637	1
9	220055	29882.604439251854	0
9	220479	29940.449672522024	1
9	220481	29940.606299411766	0
9	220646	29962.368062667457	1
9	220648	29962.673377423652	0
9	220651	29962.928901669664	1
9	220653	29962.963857240486	0
9	220684	29967.370414948279	1
9	220686	29967.701458920341	0
9	220689	29967.779835920224	1
9	220691	29967.909974979047	0
9	220726	29972.877423537059	1
9	220728	29973.074485436799	0
9	220740	29974.624640080335	1
9	220743	29975.174647811244	2
9	220745	29975.919595071293	1
9	220748	29976.112558467735	2
9	220750	29976.572568737921	1
9	220753	29976.833302626295	2
9	220755	29977.114176114141	1
9	220758	29977.341892644066	2
9	220763	29978.089035054996	3
9	220765	29978.350679522056	2
9	220768	29978.591417408177	3
9	220771	29979.165200313974	4
9	220773	29979.245248014907	3
9	220775	29979.474242375493	2
9	220780	29980.242333234819	1
9	220782	29980.472077187557	0
9	220785	29980.526192770993	1
9	220787	29980.592300523598	0
9	220814	29984.281784534502	1
9	220816	29984.319437393925	0
9	220826	29985.728890894028	1
9	220828	29985.756431551312	0
9	220875	29991.37086190898	1
9	220879	29991.943821629305	0
9	220898	29995.525487548812	1
9	220900	29995.710390919397	0
9	220911	29997.415395163	1
9	220913	29997.483367228402	0

