version 2
run First_exit_8-0-20191023-00:19:38-5094
attr configname First_exit_8
attr datetime 20191023-00:19:38
attr experiment First_exit_8
attr inifile omnetpp.ini
attr iterationvars ""
attr iterationvarsf ""
attr measurement ""
attr network ResponseTimeNetwork
attr processid 5094
attr repetition 0
attr replication #0
attr resultdir results
attr runnumber 0
attr seedset 0
param **.Source.interArrivalTime exponential(4s)
param **.jobPriority bernoulli(0.4)
param **.PS.serviceTimeU1 "uniform(0.4s, 1.0s)"
param **.PS.serviceTimeU2 "uniform(1s, 1.2s)"
param **.SS1.serviceTime exponential(0.4s)
param **.SS2.serviceTime exponential(0.8s)
param **.PS.exitProbability bernoulli(0.8)

vector 0 ResponseTimeNetwork.SS1 queueLength:vector ETV
attr interpolationmode sample-hold
attr title "queue length, vector"
vector 1 ResponseTimeNetwork.SS2 queueLength:vector ETV
attr interpolationmode sample-hold
attr title "queue length, vector"
vector 2 ResponseTimeNetwork.QueueU1 queueLength:vector ETV
attr interpolationmode sample-hold
attr title "queue length, vector"
vector 3 ResponseTimeNetwork.QueueU2 queueLength:vector ETV
attr interpolationmode sample-hold
attr title "queue length, vector"
vector 4 ResponseTimeNetwork.sink lifeTimeU2:vector ETV
attr interpolationmode none
attr title "lifetime of arrived jobs U2, vector"
attr unit s
vector 5 ResponseTimeNetwork.sink lifeTime:vector ETV
attr interpolationmode none
attr title "lifetime of arrived jobs, vector"
attr unit s
vector 6 ResponseTimeNetwork.sink lifeTimeU1:vector ETV
attr interpolationmode none
attr title "lifetime of arrived jobs U1, vector"
attr unit s
3	0	0	0
3	25	9.215472195252	1
3	26	9.54552729559	0
3	35	11.149880615046	1
3	36	11.518967131748	0
3	40	11.55484253817	1
3	42	11.627771359069	2
3	43	12.121404828726	1
3	47	12.137745299445	2
3	48	12.742349751143	1
3	51	13.716642843735	0
3	55	13.837627526667	1
3	56	14.638650130889	0
3	90	24.19268846597	1
3	91	24.238066071194	0
3	100	25.623908724384	1
3	101	26.169730300791	0
3	105	26.184905156152	1
3	106	26.764214903265	0
3	110	26.893924094822	1
3	112	27.228355678817	2
3	113	27.531472336743	1
3	117	28.234123407116	2
3	118	28.473031419571	1
3	121	29.240869496678	0
3	125	29.833804353765	1
3	126	30.182278643603	0
3	140	31.819761420186	1
3	142	32.174484643082	2
3	143	32.196050104371	1
3	146	32.785307114164	0
3	150	32.814679225916	1
3	152	33.307284256204	2
3	154	33.338630781334	3
3	155	33.40353357821	2
3	159	34.208230382343	3
3	166	34.583999092337	4
3	167	35.177593203552	3
3	170	35.969458196789	2
3	174	36.203122623403	3
3	175	36.618079349596	2
3	179	37.133104150878	3
3	180	37.164734702429	2
3	184	37.303236667346	3
3	190	38.561337028129	2
3	196	38.666073914161	3
3	200	40.049579416599	2
3	203	40.457722401723	1
3	212	41.818096230646	2
3	214	41.898924050893	3
3	215	42.035625836311	2
3	218	43.021501515444	1
3	221	43.702692234434	0
3	232	47.19219157135	1
3	261	51.254140982392	0
3	282	54.000333420513	1
3	286	55.052885025672	0
3	295	56.20373087798	1
3	296	56.46763151705	0
3	305	57.343526209135	1
3	306	58.096688424542	0
3	320	59.58683722374	1
3	326	60.577800169219	0
3	332	60.960925295121	1
3	336	62.049272181191	0
3	340	62.330350186813	1
3	341	63.020921586737	0
3	345	63.495020808699	1
3	346	63.690440225884	0
3	420	86.144891746804	1
3	421	86.253113379142	0
3	427	86.968096641786	1
3	431	87.775465096811	0
3	450	89.948901707683	1
3	451	90.697385530539	0
3	460	91.577615935091	1
3	462	91.671001126809	2
3	463	91.977528231071	1
3	466	92.882212308973	0
3	475	94.90421460089	1
3	476	95.467343410941	0
3	480	95.613374292447	1
3	481	95.941635400381	0
3	485	96.588046034738	1
3	486	96.860595376089	0
3	495	97.475807938092	1
3	496	97.890278703788	0
3	505	101.151571111652	1
3	507	101.193101153398	2
3	508	101.548918772224	1
3	511	102.16821643204	0
3	530	105.316122363215	1
3	531	105.881443524898	0
3	540	106.416397816488	1
3	541	106.904033395813	0
3	580	119.990308582996	1
3	581	120.448551228881	0
3	600	123.278673691604	1
3	602	124.000725494959	2
3	603	124.047809709686	1
3	611	125.582565610282	0
3	617	125.942862042911	1
3	622	126.551707589994	2
3	623	126.603494137138	1
3	632	127.579674416844	2
3	633	128.14679949473	1
3	636	128.587149273216	0
3	645	129.497180077649	1
3	646	130.080556014863	0
3	650	130.112475918526	1
3	651	130.909374174553	0
3	660	132.07813881806	1
3	661	132.388919409209	0
3	685	144.534923991838	1
3	686	144.694005812095	0
3	700	148.048834369492	1
3	701	148.199118289487	0
3	705	148.393293084424	1
3	706	149.07236194233	0
3	725	152.205164804415	1
3	726	152.511361371791	0
3	735	153.634126806731	1
3	736	153.664791800846	0
3	742	154.209573076645	1
3	747	154.516888479983	2
3	748	155.221770815104	1
3	756	156.52369623796	0
3	760	156.710461819713	1
3	766	157.772916926321	0
3	775	158.3785647478	1
3	776	158.885259890201	0
3	785	160.403006081192	1
3	787	160.801877769289	2
3	788	160.862712444276	1
3	794	161.190548482757	2
3	799	161.749615289197	3
3	800	162.689426924386	2
3	808	163.721752318419	1
3	814	164.166310735016	2
3	824	165.887133544349	3
3	825	165.895271669473	2
3	834	166.978847576921	3
3	835	167.095626948919	2
3	838	167.968152240949	1
3	847	168.929170176042	2
3	848	169.708979612874	1
3	856	171.331662400119	0
3	870	175.130951012698	1
3	871	175.921079642189	0
3	985	204.372987992131	1
3	986	205.210298699433	0
3	1005	207.866818141293	1
3	1006	208.190332204467	0
3	1010	208.677583768726	1
3	1011	208.905087774005	0
3	1017	209.371826790833	1
3	1022	210.104797431777	2
3	1023	210.618585262346	1
3	1032	211.538534890177	2
3	1033	212.287736488032	1
3	1041	214.021398260902	0
3	1050	214.5863539611	1
3	1051	215.28097845506	0
3	1060	216.330810669268	1
3	1062	216.728275619794	2
3	1063	216.734440818747	1
3	1066	217.161208197141	0
3	1075	218.955088177603	1
3	1076	219.159243564976	0
3	1110	226.133208383967	1
3	1112	226.260417997407	2
3	1113	226.496740165414	1
3	1116	226.992662205422	0
3	1120	227.10353166256	1
3	1121	227.93505257635	0
3	1130	228.885976533569	1
3	1132	229.232444511356	2
3	1133	229.492147041003	1
3	1136	230.131562237239	0
3	1140	230.494135336429	1
3	1142	230.938662466956	2
3	1143	231.073988874147	1
3	1147	231.586767710358	2
3	1148	231.893762107736	1
3	1152	232.211426867752	2
3	1153	232.72350861084	1
3	1157	232.745462291184	2
3	1158	233.50514524475	1
3	1162	233.724716062353	2
3	1163	234.36532334842	1
3	1167	234.373174897539	2
3	1168	235.243158233289	1
3	1172	235.677772507838	2
3	1173	235.78287751808	1
3	1176	236.755110346835	0
3	1185	237.883803729108	1
3	1187	238.128754287293	2
3	1189	238.661412441958	3
3	1190	238.772886899562	2
3	1193	239.267466262198	1
3	1196	240.262923975038	0
3	1227	248.957250988155	1
3	1236	250.46172528411	0
3	1247	252.17090172084	1
3	1251	252.84169760225	0
3	1262	253.487225050563	1
3	1266	254.237425828116	0
3	1282	255.486263201144	1
3	1301	257.925142489183	0
3	1325	265.024491042577	1
3	1326	265.352571046189	0
3	1335	266.146654302387	1
3	1346	268.320079826595	0
3	1365	272.019425236947	1
3	1366	272.643055136383	0
3	1460	303.711715150414	1
3	1461	304.171411980857	0
3	1470	304.903140152861	1
3	1476	306.182053934392	0
3	1490	307.994548312217	1
3	1491	308.463559742308	0
3	1500	309.226647689674	1
3	1501	309.741047251214	0
3	1565	328.055452944437	1
3	1566	328.762442435372	0
3	1580	330.993616761894	1
3	1582	331.117609128514	2
3	1583	331.160638849138	1
3	1586	331.878692207931	0
3	1590	332.073473516541	1
3	1591	332.845516695109	0
3	1595	333.065231981034	1
3	1596	333.368470904398	0
3	1600	333.702944231553	1
3	1602	333.852153511406	2
3	1603	334.151887335143	1
3	1606	334.71549720413	0
3	1610	334.843884490017	1
3	1611	335.285116992266	0
3	1625	338.363195245699	1
3	1626	338.391155367072	0
3	1630	338.462528076685	1
3	1636	339.663150858839	0
3	1640	340.43313656191	1
3	1641	340.436489495642	0
3	1645	340.439974976826	1
3	1649	340.62829967003	2
3	1659	342.106379722663	3
3	1665	343.428168225295	2
3	1668	343.96441860791	1
3	1674	344.449788535305	2
3	1686	346.160392439256	3
3	1710	350.107061580202	2
3	1719	351.48550507935	3
3	1720	351.527718877519	2
3	1723	352.173899813282	1
3	1727	352.954933431657	2
3	1728	353.106258714671	1
3	1731	354.034322832391	0
3	1735	354.35268154811	1
3	1736	354.514399713982	0
3	1755	359.355718585328	1
3	1756	359.449930890265	0
3	1775	363.922180679412	1
3	1776	364.217509051645	0
3	1790	368.068976890613	1
3	1791	368.796209574329	0
3	1795	368.935911811513	1
3	1796	369.283731667023	0
3	1800	369.61086569042	1
3	1801	369.947889916902	0
3	1805	370.011546040976	1
3	1806	370.564673323022	0
3	1830	376.220625382451	1
3	1831	376.592838200651	0
3	1840	377.888072403185	1
3	1841	378.189973872699	0
3	1845	378.36233099225	1
3	1846	378.591833598664	0
3	1855	380.161184464035	1
3	1856	380.411720485311	0
3	1870	382.540503181273	1
3	1871	382.777607991872	0
3	1875	382.953465945223	1
3	1881	383.980219771014	0
3	1892	385.053408192749	1
3	1914	387.871929265733	2
3	1916	388.218888842053	3
3	1920	389.273696576439	2
3	1924	389.303861996175	3
3	1925	390.056246194204	2
3	1951	393.047564976636	3
3	1958	393.763329412457	4
3	1962	394.641603214162	3
3	1971	395.470321795456	4
3	1975	396.002081493932	5
3	1979	396.964277515429	4
3	1982	397.722004186324	3
3	1990	399.285285876421	2
3	1996	399.871780083034	3
3	2001	400.311934131597	4
3	2002	400.938339714901	3
3	2005	401.855577272931	2
3	2009	401.937432056589	3
3	2010	402.309717062171	2
3	2013	403.058366218963	1
3	2017	403.082065701928	2
3	2019	403.163304718393	3
3	2020	403.603300442974	2
3	2023	404.519048943612	1
3	2026	404.954169896999	0
3	2035	406.959515339072	1
3	2037	406.987615925034	2
3	2038	407.169409360173	1
3	2042	407.527571615597	2
3	2043	407.629384467513	1
3	2046	408.099773807493	0
3	2055	409.497932824392	1
3	2056	409.625356990121	0
3	2060	409.90634288514	1
3	2062	410.012112165003	2
3	2064	410.350263995457	3
3	2065	410.428187080262	2
3	2068	411.067987503599	1
3	2071	411.696825794432	0
3	2075	411.904824440518	1
3	2076	412.110009975893	0
3	2080	412.356993748396	1
3	2081	412.878726593101	0
3	2085	413.223832299031	1
3	2086	413.653941512223	0
3	2100	415.947237275675	1
3	2101	416.109428316966	0
3	2110	417.644646099627	1
3	2111	417.973186538431	0
3	2115	418.645853265188	1
3	2116	418.7101329073	0
3	2145	423.896470935125	1
3	2146	424.616454406441	0
3	2160	427.383912791949	1
3	2161	427.623964882493	0
3	2172	428.892804877422	1
3	2177	429.18661941142	2
3	2181	429.443417537734	3
3	2188	429.643620162056	4
3	2202	431.524480935829	3
3	2210	433.124363701036	2
3	2219	433.976320517856	3
3	2220	434.625965548576	2
3	2229	435.686843765859	3
3	2230	435.785152502068	2
3	2238	437.132001616609	1
3	2246	438.704957662186	0
3	2250	438.731926752547	1
3	2252	439.613043615193	2
3	2253	439.631981157966	1
3	2257	439.803246913696	2
3	2258	440.624390411738	1
3	2261	441.479959880456	0
3	2265	441.842690615122	1
3	2266	442.153498943045	0
3	2275	442.976063197674	1
3	2277	443.089224881666	2
3	2278	443.335875135323	1
3	2289	444.739427626165	2
3	2304	446.319350568226	3
3	2306	446.334821860975	4
3	2317	448.912209559593	3
3	2320	449.509236927086	2
3	2323	450.089479134779	1
3	2329	450.807628940742	2
3	2334	450.917650002596	3
3	2335	451.468544436421	2
3	2344	452.95599945792	3
3	2345	453.018134964246	2
3	2351	453.400024838172	3
3	2356	453.85987702237	4
3	2357	454.157686080074	3
3	2365	455.378025051474	2
3	2369	455.657773224271	3
3	2375	457.18289641206	2
3	2379	457.284541651988	3
3	2380	457.825480330352	2
3	2383	458.264529818192	1
3	2386	459.069943305885	0
3	2392	459.189889249951	1
3	2397	460.376256741454	2
3	2398	460.46482756593	1
3	2406	461.670976227836	0
3	2412	462.272004001559	1
3	2414	462.424891873268	2
3	2419	462.885630251565	3
3	2421	463.330992382842	4
3	2422	463.522873070964	3
3	2425	463.970255013218	2
3	2433	465.300211799739	1
3	2441	465.652304734442	2
3	2456	467.771174302095	3
3	2458	467.863502068459	4
3	2460	467.871194741169	5
3	2464	468.685810940422	4
3	2475	469.875284497791	5
3	2531	477.275909307429	6
3	2538	478.084537052437	7
3	2603	487.557088926373	6
3	2614	488.463161037872	7
3	2623	490.386602948265	6
3	2632	491.40653793283	7
3	2633	491.854209697418	6
3	2651	494.860930708129	5
3	2654	495.367134173712	4
3	2663	496.178197393094	5
3	2664	496.533858238611	4
3	2672	498.274651105873	3
3	2681	499.550466642568	4
3	2682	499.638557454276	3
3	2686	500.068922930315	4
3	2687	500.389913483274	3
3	2691	500.623935941613	4
3	2692	500.944063472639	3
3	2696	501.113312968426	4
3	2697	501.726776924201	3
3	2700	502.342243318476	2
3	2704	502.598433324765	3
3	2705	503.167581851065	2
3	2709	503.207006606233	3
3	2710	503.763343628852	2
3	2714	503.821559817847	3
3	2715	504.285786864052	2
3	2719	504.533881315757	3
3	2720	504.845631607419	2
3	2724	504.8876014533	3
3	2725	505.794614066213	2
3	2733	506.934747088264	1
3	2742	507.947257178451	2
3	2743	508.679608967185	1
3	2747	508.870268189144	2
3	2753	510.469292844908	1
3	2756	511.388860126521	0
3	2760	511.391415601887	1
3	2762	511.523922091312	2
3	2764	511.57657362556	3
3	2766	511.838708008887	4
3	2767	512.053653008986	3
3	2771	512.50988663523	4
3	2773	512.581018125106	5
3	2774	512.82635455996	4
3	2780	513.132628462643	5
3	2790	515.291094897003	6
3	2804	516.247037403701	7
3	2814	517.23838126507	8
3	2815	517.802276155383	7
3	2823	518.253215271909	8
3	2848	521.450254105302	9
3	2867	523.526534623222	10
3	2892	526.9375600895	11
3	2901	528.334883427512	10
3	2920	530.639352131433	11
3	2956	535.980840079052	10
3	2959	536.555344622427	9
3	2963	536.713905678868	10
3	2964	537.219810937981	9
3	2968	537.4056552293	10
3	2969	537.907847469517	9
3	2973	538.49865749913	10
3	2974	538.760181507685	9
3	2977	539.52262803538	8
3	2980	540.219998103038	7
3	2984	540.320486382513	8
3	2985	540.993734520797	7
3	2989	541.088307476826	8
3	2990	541.688689377841	7
3	2993	542.282089501603	6
3	2996	542.871989947495	5
3	3000	543.228638047969	6
3	3001	543.561540490606	5
3	3005	543.769199900577	6
3	3007	543.82655367502	7
3	3008	544.004950712326	6
3	3011	544.946498837213	5
3	3014	545.546909609933	4
3	3018	545.695669339753	5
3	3019	546.528956469644	4
3	3022	547.232743804373	3
3	3026	547.935287554524	4
3	3027	548.232628949808	3
3	3036	549.182928579903	4
3	3038	549.473052590336	5
3	3039	549.810205135338	4
3	3045	550.72333383386	5
3	3047	550.731118238605	6
3	3052	551.468065881189	7
3	3053	551.597601415247	6
3	3057	552.040006031082	7
3	3058	552.417628117308	6
3	3062	552.582394448452	7
3	3069	553.376449742729	8
3	3070	554.002823406442	7
3	3079	554.875355355256	8
3	3080	555.284792057083	7
3	3089	556.447114196358	8
3	3090	556.526650295019	7
3	3099	557.030776012532	8
3	3100	557.960573532278	7
3	3108	559.469081966891	6
3	3111	559.875120183486	5
3	3115	560.53923425815	6
3	3116	560.560615898236	5
3	3120	561.203786494384	6
3	3121	561.288083502776	5
3	3129	562.341890529995	4
3	3135	562.676293994483	5
3	3137	562.878446296017	6
3	3142	563.576877537394	7
3	3143	563.778579490758	6
3	3151	564.451793510683	7
3	3159	565.198387103054	8
3	3160	565.692483571717	7
3	3166	566.424792227672	8
3	3171	566.759604066609	9
3	3172	567.390888380293	8
3	3180	568.655031063255	7
3	3184	569.248496294917	8
3	3185	569.564038222689	7
3	3194	570.548226790345	8
3	3196	570.658438825179	9
3	3197	571.072736552671	8
3	3206	571.812028836085	9
3	3207	572.199263391398	8
3	3210	572.985950850915	7
3	3213	573.536678027814	6
3	3219	574.015274200098	7
3	3223	574.70585573128	6
3	3237	576.247724880397	7
3	3256	578.037368000955	8
3	3260	579.105431991755	7
3	3263	579.513751022131	6
3	3281	581.454971469425	7
3	3286	581.866782988071	8
3	3320	586.057492884047	7
3	3343	588.748673226347	8
3	3370	593.165202679889	7
3	3378	594.536692118769	6
3	3389	595.133941310574	7
3	3408	598.920550872649	6
3	3419	599.671967251482	7
3	3423	600.835464224157	6
3	3431	602.723417396082	5
3	3437	603.5193681112	6
3	3442	604.335317759165	7
3	3443	604.337156850502	6
3	3451	605.682327757712	5
3	3460	606.446836269258	6
3	3462	606.835128792047	7
3	3464	607.079045587502	8
3	3465	607.092217775929	7
3	3474	608.401227592138	8
3	3476	608.775937593865	9
3	3477	609.022848873848	8
3	3483	609.698944941773	9
3	3487	610.56087912189	8
3	3495	611.957306591311	7
3	3498	612.851558488823	6
3	3501	613.416813647031	5
3	3504	614.037908225256	4
3	3507	614.894770243374	3
3	3510	615.712338360568	2
3	3514	616.308669709248	3
3	3515	616.359798490146	2
3	3518	616.958062831947	1
3	3526	618.709790027963	0
3	3530	618.809764624486	1
3	3532	619.129730256816	2
3	3539	619.54259803737	3
3	3541	619.634177820884	4
3	3542	619.820149710478	3
3	3545	620.352880588669	2
3	3559	621.92794267905	3
3	3568	622.492674018125	4
3	3570	622.512581283435	5
3	3574	622.87397504838	6
3	3583	623.678044026646	7
3	3590	624.96661740166	8
3	3605	627.255853730142	7
3	3634	630.808151345891	8
3	3635	631.22198214152	7
3	3646	632.230017746349	8
3	3648	632.423031691969	9
3	3652	633.190785769216	8
3	3670	636.301749397471	7
3	3681	637.421919665491	8
3	3695	640.705785387924	7
3	3698	641.299804674771	6
3	3701	642.104614361452	5
3	3704	642.908528681083	4
3	3707	643.530242806284	3
3	3710	644.158179147339	2
3	3714	644.205557963233	3
3	3715	644.894449500211	2
3	3719	645.099522924587	3
3	3721	645.369824186117	4
3	3722	645.640897421988	3
3	3725	646.127014562564	2
3	3729	646.571647712417	3
3	3730	646.707799916465	2
3	3734	646.866793756221	3
3	3736	647.202754325238	4
3	3737	647.673110749556	3
3	3740	648.589297155461	2
3	3746	648.95605484448	3
3	3751	649.450352139449	4
3	3758	650.80124543818	5
3	3759	650.823419946602	4
3	3763	650.834886801159	5
3	3784	653.820756796545	4
3	3793	655.355607239383	5
3	3794	655.655285790221	4
3	3802	657.077982076148	3
3	3810	658.587677520823	2
3	3819	659.335194234828	3
3	3820	659.777778117994	2
3	3823	660.517565083813	1
3	3827	660.682020930855	2
3	3828	661.380309795804	1
3	3832	661.641258319792	2
3	3833	661.850244964875	1
3	3837	662.204328864191	2
3	3838	662.671109417623	1
3	3841	663.326021770604	0
3	3845	663.454701482604	1
3	3847	663.84774093482	2
3	3848	664.124540034292	1
3	3851	664.576016796363	0
3	3855	664.773506509783	1
3	3856	665.013630113827	0
3	3860	665.572632725711	1
3	3861	665.691179756431	0
3	3865	665.721034192612	1
3	3867	666.473371262858	2
3	3868	666.670236741129	1
3	3872	666.849702703087	2
3	3873	667.553514205414	1
3	3876	668.135465895693	0
3	3880	668.259234264894	1
3	3882	668.833318496748	2
3	3883	669.123711774481	1
3	3886	669.661895126925	0
3	3905	674.349467103157	1
3	3907	674.450749807618	2
3	3908	674.46925098623	1
3	3914	674.806000862627	2
3	3919	675.661812290015	3
3	3920	676.364295247959	2
3	3928	677.556655222892	1
3	3936	679.349742181382	0
3	3965	684.268515679608	1
3	3966	684.596941014593	0
3	3977	685.834039586582	1
3	4001	689.627798055606	0
3	4012	690.963486977448	1
3	4014	691.230461220301	2
3	4024	692.839954065425	3
3	4025	692.932579867137	2
3	4036	694.613727032795	3
3	4065	699.391713623158	2
3	4104	704.926219244254	3
3	4105	705.029987883302	2
3	4114	706.107797237478	3
3	4115	706.171661019292	2
3	4123	708.056162233896	1
3	4126	708.71107381672	0
3	4130	708.793321468394	1
3	4136	709.929325093109	0
3	4140	710.146106245112	1
3	4141	710.523756484607	0
3	4145	710.888354421185	1
3	4152	711.597455171435	2
3	4154	711.765313096674	3
3	4155	711.89881804503	2
3	4159	711.965447200146	3
3	4166	713.359872511719	4
3	4167	713.458854970769	3
3	4170	714.02163863081	2
3	4174	714.260427307218	3
3	4183	714.609809795513	4
3	4245	724.069190940604	5
3	4322	735.539576077862	6
3	4339	737.231180541148	7
3	4358	740.620305400217	6
3	4367	741.572443368486	7
3	4368	742.118061568137	6
3	4374	742.425289381555	7
3	4378	743.757641012795	6
3	4387	744.647803939958	7
3	4388	745.183331045197	6
3	4396	746.46116989778	5
3	4404	747.883833146855	4
3	4410	748.314435773905	5
3	4425	749.965230980079	6
3	4427	750.002007315327	7
3	4429	750.177306584591	8
3	4430	750.210604841138	7
3	4441	750.753590163116	8
3	4446	751.79737319279	9
3	4472	754.847250824533	10
3	4479	756.893204573185	9
3	4492	758.255959634715	10
3	4539	765.490548734568	9
3	4542	765.951373160459	8
3	4546	766.221684701183	9
3	4552	767.346775947805	8
3	4561	768.800735696796	9
3	4563	769.089371786901	10
3	4564	769.098676105091	9
3	4578	770.581218642626	10
3	4579	771.30453471515	9
3	4588	772.558186431487	10
3	4589	772.584585590815	9
3	4592	773.007244047817	8
3	4596	773.406299159035	9
3	4597	773.691754936023	8
3	4600	774.183400344212	7
3	4604	774.270255986942	8
3	4605	774.87129845658	7
3	4609	775.268574293812	8
3	4611	775.44696822918	9
3	4612	775.76958426695	8
3	4615	776.344417557648	7
3	4619	776.454378739345	8
3	4620	776.767244363918	7
3	4623	777.445074393337	6
3	4627	777.467395078917	7
3	4628	778.029458332125	6
3	4631	778.748354900738	5
3	4634	779.62959601336	4
3	4638	780.131250416147	5
3	4639	780.254244406212	4
3	4643	780.359018102784	5
3	4645	780.739214785078	6
3	4646	781.059279128134	5
3	4649	782.01487514993	4
3	4652	782.566415379819	3
3	4661	784.236587772865	4
3	4662	784.253790910419	3
3	4668	784.408751184776	4
3	4670	784.443381249715	5
3	4672	784.572924567035	6
3	4676	785.905724383767	5
3	4680	786.199590031901	6
3	4681	786.417886706504	5
3	4687	786.814445031359	6
3	4691	788.072025104721	5
3	4694	788.491881327906	4
3	4703	789.764048948057	5
3	4704	790.210757584094	4
3	4712	791.706106488003	3
3	4718	791.977797419709	4
3	4723	792.606765979724	5
3	4724	793.469031056032	4
3	4733	794.514853080128	5
3	4734	794.915237702491	4
3	4742	796.660445754711	3
3	4751	798.238476905328	4
3	4752	798.289921929331	3
3	4761	799.57525627292	4
3	4762	800.104576922225	3
3	4766	800.226978230375	4
3	4773	801.063184472116	5
3	4775	801.135960862412	6
3	4776	801.224660847213	5
3	4779	802.183187066967	4
3	4782	802.999823400256	3
3	4785	803.69440322874	2
3	4789	804.204757283471	3
3	4790	804.524938929518	2
3	4793	805.154344008136	1
3	4797	805.591583318266	2
3	4803	806.814273597784	1
3	4807	806.878595569651	2
3	4809	806.997801104133	3
3	4816	807.773199860879	4
3	4817	808.064755571046	3
3	4823	808.358249052447	4
3	4827	809.087156765879	3
3	4831	809.349750571874	4
3	4837	810.805125485332	3
3	4841	811.034403756669	4
3	4843	811.303762629322	5
3	4844	811.410315403686	4
3	4847	811.886814735754	3
3	4851	811.89790638104	4
3	4852	812.79119928006	3
3	4856	813.048059763193	4
3	4858	813.393019961879	5
3	4859	813.778391972295	4
3	4862	814.259048807965	3
3	4865	814.781673057489	2
3	4868	815.409469936248	1
3	4872	815.796359031985	2
3	4874	815.831064657521	3
3	4876	815.847342140079	4
3	4877	816.10741664364	3
3	4881	816.633183930131	4
3	4882	816.835537552992	3
3	4886	817.168072036834	4
3	4887	817.497067361949	3
3	4891	817.792363640519	4
3	4892	818.034411921278	3
3	4896	818.551725419495	4
3	4897	818.64920228405	3
3	4900	819.358559431015	2
3	4904	819.36429107497	3
3	4906	819.670039873395	4
3	4907	819.978247517087	3
3	4911	820.29738130763	4
3	4912	820.542277549925	3
3	4915	820.96680246356	2
3	4919	821.175703185851	3
3	4920	821.521495480529	2
3	4923	822.372274268717	1
3	4927	822.599908581076	2
3	4929	822.938245296849	3
3	4930	823.242532601832	2
3	4934	823.774915844581	3
3	4935	824.156473081671	2
3	4939	824.169418460444	3
3	4940	824.745705402848	2
3	4944	824.946528238845	3
3	4945	825.685000532373	2
3	4948	826.437895135834	1
3	4951	826.858455359955	0
3	4955	827.26042077219	1
3	4956	827.857571304981	0
3	4960	828.008862334205	1
3	4961	828.513061831724	0
3	4965	829.087590268694	1
3	4967	829.211101501505	2
3	4968	829.40567095235	1
3	4972	829.584618068301	2
3	4973	829.923782186555	1
3	4977	830.187462900316	2
3	4978	830.69732149953	1
3	4982	831.292050011307	2
3	4983	831.368913617562	1
3	4987	831.460841625819	2
3	4989	831.534200080537	3
3	4991	831.661006364395	4
3	4993	831.683681747406	5
3	4994	831.796744005121	4
3	4997	832.443719880022	3
3	5000	833.02688008721	2
3	5004	833.696017366066	3
3	5005	833.99271744296	2
3	5008	834.645308647464	1
3	5011	835.396685526866	0
3	5020	836.898973760656	1
3	5021	837.642571940512	0
3	5025	837.920603404782	1
3	5026	838.508424570557	0
3	5030	838.843476983602	1
3	5032	838.970432425238	2
3	5033	839.158824455697	1
3	5037	839.35682747504	2
3	5039	839.761709780212	3
3	5040	839.794697904313	2
3	5044	840.474426163929	3
3	5046	840.53101547083	4
3	5047	840.723638267728	3
3	5063	842.362275229174	4
3	5065	842.552583322953	5
3	5074	844.712146222178	4
3	5080	845.18746172996	5
3	5084	846.030218543583	4
3	5092	847.577593810955	3
3	5101	848.282733844446	4
3	5102	848.542053797288	3
3	5108	849.007777862586	4
3	5113	849.410935062287	5
3	5119	851.267870822649	4
3	5128	852.504096294048	5
3	5129	852.884327613942	4
3	5138	854.007752425426	5
3	5139	854.745438414167	4
3	5147	856.068357556133	3
3	5153	856.349842896437	4
3	5155	856.482778087844	5
3	5160	857.233840295048	6
3	5161	857.91228501802	5
3	5170	859.223686644444	6
3	5171	859.682412910374	5
3	5174	860.227620835655	4
3	5178	860.424621942169	5
3	5180	860.458084275806	6
3	5181	861.085504971684	5
3	5184	861.822744639131	4
3	5188	862.310116739292	5
3	5189	862.628197763447	4
3	5192	863.285483629169	3
3	5195	864.018599958072	2
3	5199	864.606393773894	3
3	5200	864.668760327535	2
3	5203	865.457858464314	1
3	5207	865.820568469484	2
3	5209	865.898527505814	3
3	5210	865.933765721234	2
3	5213	866.704609584442	1
3	5217	867.47156964475	2
3	5218	867.675005641772	1
3	5227	868.651066512858	2
3	5228	869.19949378153	1
3	5232	869.889934964691	2
3	5233	869.894321823452	1
3	5236	870.427215928451	0
3	5240	870.652187328417	1
3	5242	870.692764546763	2
3	5243	870.853767112975	1
3	5247	871.144227031348	2
3	5249	871.583154470579	3
3	5250	871.657343398414	2
3	5253	872.135122350936	1
3	5256	872.559906161863	0
3	5260	872.563713212507	1
3	5261	873.106400381269	0
3	5265	873.437716022615	1
3	5266	873.65191959367	0
3	5270	874.300357693696	1
3	5271	874.533704817396	0
3	5275	874.75894760217	1
3	5277	874.918267791352	2
3	5278	875.394184279124	1
3	5282	875.518626920727	2
3	5283	875.844708777367	1
3	5286	876.611890634996	0
3	5290	876.980375620428	1
3	5291	877.109799658795	0
3	5300	877.668072485924	1
3	5302	878.06295877664	2
3	5303	878.122594267371	1
3	5306	878.653864252902	0
3	5312	879.105916581117	1
3	5316	879.804111093757	0
3	5320	879.848592084567	1
3	5327	880.621960280377	2
3	5329	880.832357001855	3
3	5330	881.116416960963	2
3	5334	881.211798473581	3
3	5335	882.083675542715	2
3	5344	882.746591086042	3
3	5348	883.009629953688	4
3	5357	884.494744859178	3
3	5360	885.259785840715	2
3	5366	885.616658061691	3
3	5370	886.880325078041	2
3	5374	887.458715196627	3
3	5375	887.611391743001	2
3	5378	888.141759128318	1
3	5381	888.987498103184	0
3	5392	890.382472136082	1
3	5409	892.168617104264	2
3	5423	893.915459285961	3
3	5445	897.491317389537	4
3	5487	903.137621545557	3
3	5508	905.755928381419	4
3	5557	913.434678360493	3
3	5565	915.148625982459	2
3	5573	916.699249257566	1
3	5579	917.133346979196	2
3	5583	918.319520350126	1
3	5589	919.136943528288	2
3	5593	919.978669088939	1
3	5596	920.414083035243	0
3	5600	920.671055823727	1
3	5606	922.243661465542	0
3	5625	927.769425267608	1
3	5626	928.00739486683	0
3	5635	928.73228566457	1
3	5636	929.147766914636	0
3	5685	964.923514185215	1
3	5686	965.177317637471	0
3	5700	967.857879129517	1
3	5701	968.148631631329	0
3	5707	968.753813779242	1
3	5712	969.000451291906	2
3	5713	969.785370730774	1
3	5719	970.583827058029	2
3	5723	971.128866123201	1
3	5729	971.424162662992	2
3	5734	972.240296324375	3
3	5735	972.777605586851	2
3	5746	973.940314473893	3
3	5786	979.953659290497	4
3	5827	986.72368662439	3
3	5835	988.410649449357	2
3	5844	989.688086453651	3
3	5845	990.007617194417	2
3	5853	991.133482717887	1
3	5857	991.372674800393	2
3	5858	991.893593370799	1
3	5862	992.00435763236	2
3	5864	992.097508815976	3
3	5865	992.793960731687	2
3	5868	993.256861257344	1
3	5871	993.706979611028	0
3	5880	995.322014555957	1
3	5882	995.443519607771	2
3	5883	995.641188286451	1
3	5886	996.232258577944	0
3	5895	997.526140065817	1
3	5897	997.621519302632	2
3	5898	998.119495519892	1
3	5902	998.122589515352	2
3	5903	999.093988644228	1
3	5912	999.950803646487	2
3	5913	1000.352563002183	1
3	5917	1000.573217181357	2
3	5918	1001.206207217592	1
3	5921	1002.037534564956	0
3	5925	1002.576966737324	1
3	5926	1002.932943054744	0
3	5935	1004.351488529704	1
3	5937	1004.385940634056	2
3	5938	1004.771639112049	1
3	5942	1005.016843091115	2
3	5943	1005.594425333749	1
3	5946	1006.364646464159	0
3	5950	1006.478107814399	1
3	5951	1007.297347047544	0
3	5955	1007.617359774982	1
3	5956	1007.738348873277	0
3	5960	1007.925410600809	1
3	5962	1008.19545356664	2
3	5963	1008.606570873168	1
3	5969	1009.384835043221	2
3	5974	1009.687192164551	3
3	5975	1010.315647148425	2
3	5986	1011.064447137977	3
3	5996	1011.808252543657	4
3	5998	1012.28919037535	5
3	6009	1013.878579976633	4
3	6017	1015.122080698227	3
3	6023	1015.503561578074	4
3	6027	1016.515735155521	3
3	6033	1016.717618402096	4
3	6037	1017.615933241267	3
3	6045	1019.077004745407	2
3	6056	1020.846701215415	3
3	6060	1021.473188332739	2
3	6071	1021.950554291978	3
3	6075	1023.201711281426	2
3	6083	1023.466951636256	3
3	6088	1024.690974840157	4
3	6102	1027.1463146713	3
3	6108	1027.601606547136	4
3	6112	1028.347081252271	3
3	6116	1028.503868223433	4
3	6130	1030.411037558553	5
3	6134	1031.368252729569	4
3	6143	1032.637368245121	5
3	6144	1033.201111812602	4
3	6147	1034.068960712469	3
3	6150	1034.745442538746	2
3	6156	1035.18231642322	3
3	6160	1035.777000054056	2
3	6164	1035.967754525129	3
3	6176	1037.99106025135	4
3	6178	1038.048415867594	5
3	6180	1038.331439479224	6
3	6181	1038.407886104881	5
3	6184	1039.233426365432	4
3	6187	1040.188321291598	3
3	6191	1040.286632887864	4
3	6193	1040.663389504208	5
3	6194	1040.973688890262	4
3	6198	1041.329602487233	5
3	6199	1041.714033223305	4
3	6203	1042.329115765411	5
3	6204	1042.654279311875	4
3	6208	1042.806426726174	5
3	6214	1044.253423463915	4
3	6220	1044.914214562838	5
3	6225	1045.355099638734	6
3	6226	1046.058782861511	5
3	6235	1046.630677634899	6
3	6236	1047.201899994759	5
3	6239	1047.816042347148	4
3	6247	1049.080248292524	3
3	6250	1049.843274104025	2
3	6254	1049.988585615185	3
3	6256	1050.187293135706	4
3	6257	1050.425016990479	3
3	6261	1050.876136929727	4
3	6262	1050.926823863003	3
3	6266	1051.065801104694	4
3	6267	1051.482975387422	3
3	6273	1051.854151142479	4
3	6278	1052.251946467299	5
3	6279	1052.699970958463	4
3	6288	1053.368579403281	5
3	6289	1054.092556218791	4
3	6298	1055.250527774775	5
3	6300	1055.44359232538	6
3	6301	1055.785100354708	5
3	6310	1056.624110492943	6
3	6311	1056.762305319716	5
3	6320	1058.01882194799	6
3	6321	1058.273613122093	5
3	6329	1059.575829552194	4
3	6335	1060.088399653745	5
3	6339	1061.07217834409	4
3	6347	1062.42691502621	3
3	6356	1063.604966918673	4
3	6357	1064.06815799045	3
3	6361	1064.22098758246	4
3	6362	1064.4860702135	3
3	6366	1064.624576935175	4
3	6368	1064.626273993105	5
3	6370	1064.888137543806	6
3	6371	1065.24723643133	5
3	6375	1065.253945340129	6
3	6377	1065.472168378858	7
3	6383	1066.559935556478	6
3	6389	1066.99770218855	7
3	6393	1067.582379646399	6
3	6397	1068.085929762893	7
3	6399	1068.126362738219	8
3	6400	1068.163498974158	7
3	6409	1069.899337487503	8
3	6410	1070.094833573731	7
3	6414	1070.331411129859	8
3	6416	1070.448545368093	9
3	6417	1070.647377627608	8
3	6423	1071.152187508186	9
3	6427	1071.835750555699	8
3	6436	1072.501322712833	9
3	6437	1073.072345831418	8
3	6440	1073.485366915991	7
3	6449	1074.746337170461	8
3	6450	1074.982736812146	7
3	6473	1078.015884063613	6
3	6484	1078.751988721201	7
3	6533	1086.832263818603	6
3	6544	1087.523162854298	7
3	6546	1088.146069458526	8
3	6570	1092.222006221334	7
3	6579	1093.320080627039	8
3	6580	1093.377721288553	7
3	6596	1094.559132420193	8
3	6636	1100.192467787597	9
3	6642	1101.768810543171	8
3	6655	1102.953832692151	9
3	6662	1104.696769176829	8
3	6668	1105.141564941157	9
3	6672	1105.690809876085	8
3	6678	1106.463597538941	9
3	6682	1107.46107542695	8
3	6691	1108.387325355595	9
3	6692	1108.447029286422	8
3	6701	1109.849797980503	9
3	6702	1109.974496726444	8
3	6708	1110.292033836823	9
3	6710	1110.384970131065	10
3	6714	1111.530354981203	9
3	6722	1112.879039321685	8
3	6731	1114.091034992421	9
3	6732	1114.220076912114	8
3	6736	1114.328302938441	9
3	6743	1115.093491415544	10
3	6744	1115.470017510544	9
3	6752	1116.939845547158	8
3	6756	1117.456389201985	9
3	6757	1117.783144324956	8
3	6760	1118.583594982497	7
3	6763	1119.236359019888	6
3	6767	1119.380612470232	7
3	6768	1120.192118547748	6
3	6771	1120.676668775625	5
3	6774	1121.444011582838	4
3	6778	1121.886578558995	5
3	6779	1121.921730423145	4
3	6783	1122.238632820607	5
3	6784	1122.914191414075	4
3	6787	1123.692362670958	3
3	6791	1123.855170307045	4
3	6792	1124.637514683403	3
3	6796	1124.883962103545	4
3	6797	1125.210858747115	3
3	6801	1125.370124613945	4
3	6802	1125.890976106407	3
3	6811	1126.940371420735	4
3	6813	1127.348959764315	5
3	6814	1127.582291100066	4
3	6818	1127.628208957231	5
3	6819	1128.215094764655	4
3	6825	1128.429796046377	5
3	6827	1128.599782054884	6
3	6829	1128.697143970286	7
3	6834	1129.560031577327	8
3	6835	1129.621735006556	7
3	6843	1131.225200047282	6
3	6847	1131.298962138569	7
3	6848	1132.124480797521	6
3	6851	1132.565059718521	5
3	6854	1133.268604508213	4
3	6858	1133.938778230882	5
3	6859	1133.948217555772	4
3	6862	1134.667939257374	3
3	6866	1134.789985492972	4
3	6868	1134.886642989467	5
3	6869	1135.541510552246	4
3	6873	1135.627642625306	5
3	6874	1136.286752954204	4
3	6877	1136.890543568306	3
3	6881	1136.98206744127	4
3	6882	1137.673324693119	3
3	6886	1137.736510480515	4
3	6888	1138.126494644999	5
3	6889	1138.408719674948	4
3	6895	1139.015410657116	5
3	6899	1140.045482101928	4
3	6908	1140.87031682671	5
3	6909	1141.624372363122	4
3	6912	1142.158035024939	3
3	6918	1142.818204103075	4
3	6923	1143.475837163097	5
3	6924	1143.50528146027	4
3	6932	1144.736955889532	3
3	6938	1145.319542469183	4
3	6943	1145.409316804926	5
3	6944	1146.350694311302	4
3	6947	1146.862211899444	3
3	6950	1147.471356081621	2
3	6954	1147.86047717545	3
3	6955	1147.896163905862	2
3	6959	1148.500521387168	3
3	6960	1148.830466755557	2
3	6963	1149.789932802071	1
3	6966	1150.789457601107	0
3	6970	1151.006073581098	1
3	6971	1151.371586912436	0
3	6975	1151.69192226676	1
3	6976	1151.860611054193	0
3	6995	1154.876869032596	1
3	6997	1155.696428050648	2
3	6998	1155.697202388814	1
3	7001	1156.140686744696	0
3	7005	1156.170373487007	1
3	7006	1156.54398363122	0
3	7020	1159.178439587056	1
3	7021	1159.421574528343	0
3	7025	1159.67776944621	1
3	7026	1160.206937350021	0
3	7040	1164.213202218528	1
3	7041	1164.876532428849	0
3	7050	1166.170294187762	1
3	7051	1166.52816765629	0
3	7080	1172.83440020468	1
3	7082	1173.131480662339	2
3	7083	1173.283516890219	1
3	7086	1173.789368149488	0
3	7090	1174.101908950765	1
3	7092	1174.465065712869	2
3	7093	1174.740600176983	1
3	7097	1174.781407384363	2
3	7099	1174.988119775195	3
3	7100	1175.246369163681	2
3	7104	1175.250566216781	3
3	7105	1175.99537706523	2
3	7108	1176.836689289927	1
3	7111	1177.602607459284	0
3	7115	1177.913284147325	1
3	7117	1178.074765805313	2
3	7118	1178.572809182049	1
3	7122	1178.599920227875	2
3	7124	1178.910398273425	3
3	7125	1179.385220258857	2
3	7128	1180.096240105235	1
3	7132	1180.202194714575	2
3	7133	1180.672829949331	1
3	7137	1181.228865054176	2
3	7138	1181.659677299193	1
3	7142	1181.932656815507	2
3	7144	1182.235003766748	3
3	7146	1182.278067951067	4
3	7147	1182.600614992424	3
3	7150	1183.578140402387	2
3	7153	1184.332612353458	1
3	7157	1184.528140166876	2
3	7159	1184.866272531207	3
3	7161	1185.118986745205	4
3	7162	1185.140662624582	3
3	7166	1185.378835955148	4
3	7167	1185.833722477907	3
3	7170	1186.284120645363	2
3	7173	1187.247830001859	1
3	7176	1187.89092663558	0
3	7190	1189.206126515635	1
3	7191	1189.77258445147	0
3	7205	1191.390438425502	1
3	7206	1191.78699575186	0
3	7215	1193.561715979117	1
3	7216	1193.894244771008	0
3	7225	1195.69666554726	1
3	7226	1196.043111379648	0
3	7240	1199.954562215019	1
3	7241	1200.545410047715	0
3	7245	1200.579693815033	1
3	7246	1201.230274275748	0
3	7250	1201.604235129477	1
3	7251	1201.697947232576	0
3	7255	1202.445642710483	1
3	7256	1202.621495048014	0
3	7265	1204.381123566298	1
3	7266	1204.445711026678	0
3	7270	1204.651142192487	1
3	7271	1205.146665910829	0
3	7275	1205.412361223512	1
3	7277	1205.669635189747	2
3	7278	1205.976511985354	1
3	7282	1206.338385229306	2
3	7284	1206.531890131252	3
3	7285	1206.676182288501	2
3	7289	1206.703295426117	3
3	7290	1207.190338594058	2
3	7294	1207.407550234571	3
3	7295	1207.652170545106	2
3	7298	1208.647516618121	1
3	7301	1209.143354021862	0
3	7310	1210.918817016126	1
3	7312	1211.063538965869	2
3	7313	1211.394631304004	1
3	7319	1212.152606597867	2
3	7323	1213.129600357049	1
3	7327	1213.18921280789	2
3	7331	1213.429420211149	3
3	7336	1214.214890800303	4
3	7338	1214.21561375421	5
3	7339	1214.420485452207	4
3	7342	1214.862374037195	3
3	7346	1215.067828698588	4
3	7347	1215.704610303713	3
3	7350	1216.255523944849	2
3	7354	1216.337288909539	3
3	7355	1217.181533079052	2
3	7359	1217.455718148058	3
3	7360	1217.945898385875	2
3	7364	1218.839445370157	3
3	7365	1218.930770742677	2
3	7368	1219.467048030503	1
3	7372	1219.523918694981	2
3	7373	1220.042047709942	1
3	7377	1220.674259601897	2
3	7379	1220.929707559716	3
3	7380	1220.995371390943	2
3	7384	1221.012540372787	3
3	7385	1221.904162204236	2
3	7389	1221.975355444867	3
3	7390	1222.54424899767	2
3	7393	1223.083574851713	1
3	7401	1224.312297136121	0
3	7415	1226.412868002509	1
3	7417	1226.784957019861	2
3	7419	1226.883163328626	3
3	7420	1227.155849303099	2
3	7439	1229.195888857021	3
3	7440	1229.246091269355	2
3	7449	1229.86447537834	3
3	7451	1230.160013185804	4
3	7452	1230.34829237012	3
3	7456	1230.466970933494	4
3	7458	1230.544559883979	5
3	7459	1231.089428170936	4
3	7463	1231.330362345855	5
3	7467	1231.69375495394	6
3	7472	1232.32492664751	7
3	7473	1232.846727504328	6
3	7479	1233.086390252038	7
3	7484	1233.525452126572	8
3	7490	1235.016920354616	7
3	7499	1235.972380437674	8
3	7501	1236.100843137721	9
3	7502	1236.356680897556	8
3	7511	1237.370783948317	9
3	7513	1237.593759221911	10
3	7514	1237.747567960134	9
3	7523	1238.314561927501	10
3	7524	1238.886637177019	9
3	7530	1239.46204384363	10
3	7535	1239.774804926611	11
3	7536	1240.507714429152	10
3	7545	1241.162263743165	11
3	7546	1241.400237298411	10
3	7554	1242.532817896436	9
3	7562	1243.740738907856	8
3	7565	1244.677242415891	7
3	7569	1244.837020075448	8
3	7576	1245.836207472538	9
3	7578	1245.935563511402	10
3	7579	1246.008966259173	9
3	7582	1246.412272523929	8
3	7585	1246.955412138327	7
3	7588	1247.507042632512	6
3	7592	1247.742082704806	7
3	7593	1248.23612642277	6
3	7599	1248.972292804744	7
3	7603	1249.67819311859	6
3	7607	1249.914702990835	7
3	7608	1250.323770305867	6
3	7611	1251.253825581007	5
3	7615	1251.674728471533	6
3	7617	1251.698766688304	7
3	7618	1252.19437512311	6
3	7621	1252.793832847316	5
3	7624	1253.751239642387	4
3	7627	1254.71977583098	3
3	7631	1254.857087473681	4
3	7633	1254.887018951396	5
3	7634	1255.50868519766	4
3	7638	1255.979320381496	5
3	7639	1256.244427516896	4
3	7642	1257.00596408814	3
3	7646	1257.073467829279	4
3	7648	1257.807443056906	5
3	7649	1257.877755475676	4
3	7653	1257.940771980334	5
3	7654	1258.766511069125	4
3	7658	1259.256634256749	5
3	7659	1259.354370396704	4
3	7663	1259.558198368286	5
3	7665	1259.640422073508	6
3	7666	1260.010313239022	5
3	7669	1260.562663242481	4
3	7672	1261.009944655261	3
3	7676	1261.312092771609	4
3	7677	1261.859138083857	3
3	7685	1263.238933468683	2
3	7689	1263.379615545906	3
3	7690	1263.643681419807	2
3	7693	1264.418002160572	1
3	7696	1264.828220062776	0
3	7700	1265.060104370962	1
3	7701	1265.45500594613	0
3	7705	1265.745452372234	1
3	7712	1266.660332618086	2
3	7714	1266.770450569691	3
3	7715	1266.813374484683	2
3	7723	1267.818081443504	1
3	7731	1268.840118934706	0
3	7740	1269.493116167508	1
3	7742	1269.506866231581	2
3	7743	1269.770203013232	1
3	7747	1269.999614688924	2
3	7753	1271.128726407726	1
3	7759	1271.808525787698	2
3	7764	1271.974210248171	3
3	7766	1272.697605196787	4
3	7767	1272.799084188257	3
3	7773	1273.080078456804	4
3	7775	1273.115466267062	5
3	7785	1274.81900855469	6
3	7786	1275.009534700335	5
3	7805	1277.039468485675	6
3	7809	1277.603420139415	7
3	7811	1277.825590025174	8
3	7826	1279.883658249399	9
3	7905	1291.748108277562	10
3	7914	1293.493733439432	9
3	7917	1294.327033872274	8
3	7920	1295.006088941708	7
3	7928	1296.71641216057	6
3	7932	1296.895331191956	7
3	7936	1297.052207223863	8
3	7940	1297.981243371615	7
3	7944	1297.982853196713	8
3	7950	1299.387192259753	7
3	7961	1300.437390964206	8
3	7963	1300.737673552843	9
3	7967	1301.516360312305	8
3	7970	1302.138584869844	7
3	7973	1302.829711872083	6
3	7977	1302.898086291091	7
3	7978	1303.683989740373	6
3	7981	1304.621855012211	5
3	7989	1306.095973879867	4
3	7992	1307.011060419003	3
3	7996	1307.11797595494	4
3	7998	1307.395555338848	5
3	7999	1307.559534731716	4
3	8007	1307.698253200538	5
3	8024	1310.178155086175	6
3	8029	1311.067974484954	7
3	8043	1312.964363431486	6
3	8047	1313.171081727402	7
3	8049	1313.367363505566	8
3	8055	1313.698207296479	9
3	8060	1314.516194809085	10
3	8142	1326.087275993958	11
3	8146	1327.235499799367	10
3	8149	1327.86734042142	9
3	8153	1328.140668679601	10
3	8160	1328.923698211456	11
3	8162	1329.028340988606	12
3	8163	1329.092227363888	11
3	8171	1330.220781037048	10
3	8174	1331.143962077726	9
3	8178	1331.619736879237	10
3	8179	1331.699442915781	9
3	8183	1331.706228525128	10
3	8184	1332.46633410633	9
3	8187	1333.463832107814	8
3	8190	1333.960512844309	7
3	8194	1334.823534878986	8
3	8195	1334.858796704629	7
3	8198	1335.746945710642	6
3	8201	1336.446129322493	5
3	8205	1336.491808188269	6
3	8207	1336.789980473496	7
3	8209	1337.139504004129	8
3	8210	1337.200861492821	7
3	8213	1337.635767332486	6
3	8216	1338.500649647436	5
3	8220	1338.638363056995	6
3	8222	1338.918881464011	7
3	8223	1339.169151707574	6
3	8226	1339.859969283196	5
3	8229	1340.637255558486	4
3	8232	1341.09675195033	3
3	8235	1342.02560423042	2
3	8239	1342.056679782059	3
3	8240	1342.765205799856	2
3	8244	1342.99182352297	3
3	8246	1343.24352596548	4
3	8247	1343.73742950924	3
3	8250	1344.180470219648	2
3	8253	1344.630617343097	1
3	8257	1345.039248227163	2
3	8258	1345.371556101854	1
3	8262	1345.662291770822	2
3	8264	1345.697356720156	3
3	8265	1345.951992248206	2
3	8268	1346.507597152537	1
3	8272	1346.769877583301	2
3	8274	1347.408168791196	3
3	8275	1347.48600938434	2
3	8278	1347.927276092463	1
3	8282	1348.275814950934	2
3	8283	1348.333742748641	1
3	8286	1348.751691475858	0
3	8300	1350.645017442872	1
3	8301	1351.201956842663	0
3	8305	1351.488320770734	1
3	8306	1351.831141291568	0
3	8310	1352.140845331666	1
3	8311	1352.421864998909	0
3	8315	1352.494616490515	1
3	8317	1352.929847196122	2
3	8318	1353.068866650537	1
3	8322	1353.40941996871	2
3	8323	1353.568889448382	1
3	8326	1354.193193788556	0
3	8330	1354.264519304157	1
3	8331	1355.064233613722	0
3	8335	1355.324805404432	1
3	8336	1355.715984777044	0
3	8340	1355.892668039311	1
3	8341	1356.588464662767	0
3	8345	1356.888001839166	1
3	8346	1357.020060188099	0
3	8365	1362.057706413562	1
3	8367	1362.809253227487	2
3	8368	1362.839909078329	1
3	8371	1363.536058765053	0
3	8375	1363.704611768159	1
3	8377	1363.980139608913	2
3	8384	1364.387185209335	3
3	8385	1364.724106812113	2
3	8396	1365.671962937067	3
3	8398	1366.020335123484	4
3	8407	1367.642333553135	3
3	8418	1368.51563941221	4
3	8422	1369.757487325938	3
3	8431	1370.324518415868	4
3	8432	1370.693229225426	3
3	8438	1370.972485928873	4
3	8442	1372.045492682707	3
3	8445	1372.787052426635	2
3	8448	1373.361881148218	1
3	8457	1374.540214671574	2
3	8458	1375.02008370595	1
3	8462	1375.277409108086	2
3	8464	1375.347959625457	3
3	8468	1375.908877694418	4
3	8472	1376.467902340609	3
3	8476	1376.480026348581	4
3	8480	1376.788103571884	5
3	8485	1377.312027366163	6
3	8486	1377.716140429917	5
3	8489	1378.48359557866	4
3	8493	1378.69539521398	5
3	8494	1379.196090143927	4
3	8497	1379.885327254849	3
3	8500	1380.557193714668	2
3	8504	1380.787539930123	3
3	8505	1381.439320889031	2
3	8508	1382.294340184992	1
3	8511	1382.794228864284	0
3	8525	1385.386410969339	1
3	8527	1385.544618705603	2
3	8528	1385.962041008996	1
3	8532	1386.296019171161	2
3	8533	1386.472905752912	1
3	8536	1387.025288891291	0
3	8540	1387.084589031105	1
3	8542	1387.834795875306	2
3	8543	1387.965136933198	1
3	8546	1388.566810783289	0
3	8555	1389.555207102307	1
3	8557	1389.879133367974	2
3	8559	1389.958536528821	3
3	8560	1390.169582950999	2
3	8563	1390.635601550504	1
3	8566	1391.352284685639	0
3	8595	1396.111367941249	1
3	8597	1396.606924991985	2
3	8598	1396.763619991825	1
3	8601	1397.678869935605	0
3	8610	1399.155461637695	1
3	8611	1399.492614883504	0
3	8615	1399.523518024722	1
3	8616	1400.469547468278	0
3	8625	1401.531229050347	1
3	8626	1401.819220309327	0
3	8630	1402.252016025686	1
3	8631	1402.541794322147	0
3	8635	1402.554907861358	1
3	8637	1403.294039916102	2
3	8638	1403.483430155269	1
3	8641	1404.04222380281	0
3	8650	1406.493588485813	1
3	8651	1406.705677378347	0
3	8655	1406.727591300097	1
3	8656	1407.463810057735	0
3	8665	1408.685412669773	1
3	8666	1408.972398714485	0
3	8670	1409.075801276556	1
3	8672	1409.363691664245	2
3	8673	1409.536581699314	1
3	8676	1410.399269359602	0
3	8680	1410.532996396101	1
3	8682	1410.817384343953	2
3	8683	1410.996679053638	1
3	8687	1411.640774340917	2
3	8688	1411.72121615023	1
3	8692	1411.828488013888	2
3	8693	1412.714739316885	1
3	8697	1413.159081527363	2
3	8698	1413.643835374291	1
3	8702	1414.012399296062	2
3	8703	1414.567588296157	1
3	8707	1415.073349397591	2
3	8708	1415.276363616946	1
3	8712	1415.394908300918	2
3	8713	1416.21004578713	1
3	8716	1417.123666784304	0
3	8720	1417.255617555899	1
3	8721	1417.579594266831	0
3	8725	1417.790576450285	1
3	8726	1418.10069714491	0
3	8730	1418.728068272753	1
3	8731	1419.020693489581	0
3	8735	1419.040478868821	1
3	8737	1419.332354457523	2
3	8739	1419.730805091133	3
3	8740	1419.801143978022	2
3	8743	1420.214354768254	1
3	8746	1421.001382603588	0
3	8752	1421.273989577844	1
3	8756	1422.296183360832	0
3	8765	1423.197092823676	1
3	8767	1423.475412435868	2
3	8768	1423.83994493773	1
3	8776	1425.28777962108	0
3	8785	1426.321294371893	1
3	8786	1426.596127056707	0
3	8855	1443.566250437536	1
3	8856	1443.907979757717	0
3	8860	1444.081557874359	1
3	8861	1444.335663478455	0
3	8875	1446.229530236277	1
3	8877	1446.719056511826	2
3	8878	1446.730624347314	1
3	8881	1447.279503371421	0
3	8920	1455.534426182984	1
3	8921	1455.953729847583	0
3	8945	1468.938605564064	1
3	8946	1468.967192323121	0
3	8955	1469.921333296222	1
3	8961	1471.067334718105	0
3	8974	1471.87999818224	1
3	8986	1473.036368736578	2
3	8995	1473.456061951278	3
3	9045	1481.837813211405	2
3	9048	1482.500600686795	1
3	9052	1482.873711856484	2
3	9053	1483.452634468893	1
3	9057	1483.927306753951	2
3	9058	1484.102106978869	1
3	9062	1484.592503370765	2
3	9063	1484.742611071639	1
3	9066	1485.427970889895	0
3	9070	1485.540738864765	1
3	9072	1485.992426901534	2
3	9074	1486.082247168144	3
3	9075	1486.246300782808	2
3	9078	1487.037518291208	1
3	9081	1487.906584400996	0
3	9085	1488.186521625422	1
3	9086	1488.355457399865	0
3	9090	1488.634089281344	1
3	9091	1488.825328766168	0
3	9095	1489.344727954709	1
3	9096	1489.401661221436	0
3	9105	1490.544399650857	1
3	9107	1490.564826361355	2
3	9108	1491.360468445194	1
3	9111	1491.801448772184	0
3	9130	1498.19426172776	1
3	9137	1499.111505183872	2
3	9138	1499.570596516121	1
3	9144	1499.730178160883	2
3	9149	1500.297764768808	3
3	9150	1500.653614613915	2
3	9159	1501.398433715948	3
3	9161	1501.571683607769	4
3	9162	1501.907583084644	3
3	9165	1502.538546269654	2
3	9169	1503.004989975242	3
3	9170	1503.434556089469	2
3	9173	1504.290277872595	1
3	9179	1504.669455945748	2
3	9184	1505.160329443987	3
3	9185	1505.90970921301	2
3	9191	1506.317470098576	3
3	9196	1506.987681123113	4
3	9197	1507.382418481202	3
3	9205	1508.630178325099	2
3	9209	1508.68727523361	3
3	9211	1508.940719494655	4
3	9218	1509.471838211847	5
3	9219	1509.854925811279	4
3	9252	1514.449555415555	3
3	9261	1514.954208609934	4
3	9262	1515.8154601463	3
3	9270	1517.291879507049	2
3	9279	1518.535597095068	3
3	9280	1518.908660893828	2
3	9289	1519.62844604932	3
3	9290	1520.2577491877	2
3	9298	1521.617300907183	1
3	9302	1521.630190570514	2
3	9303	1522.477201369252	1
3	9307	1522.585613133111	2
3	9308	1522.892168745851	1
3	9312	1523.321585936629	2
3	9313	1523.482468680372	1
3	9317	1523.494272040733	2
3	9318	1524.023043668769	1
3	9321	1524.852398592965	0
3	9325	1524.982576761243	1
3	9327	1525.00343659141	2
3	9329	1525.682354525978	3
3	9330	1525.793110037395	2
3	9333	1526.407232102365	1
3	9337	1526.450574229483	2
3	9339	1526.96638605308	3
3	9340	1527.14221531929	2
3	9343	1527.714591046316	1
3	9346	1528.642399974619	0
3	9350	1528.910696550256	1
3	9351	1529.446514943181	0
3	9360	1531.433372465119	1
3	9361	1531.835307646408	0
3	9415	1550.563316801738	1
3	9416	1550.967910541253	0
3	9440	1554.541521191583	1
3	9441	1555.492156742348	0
3	9480	1563.347362404188	1
3	9486	1564.805764066338	0
3	9497	1566.047758183801	1
3	9509	1567.833711079366	2
3	9531	1570.464650360981	3
3	9545	1573.01068905285	2
3	9558	1575.371699579017	1
3	9562	1575.557004111101	2
3	9563	1575.96165022734	1
3	9566	1576.466588760078	0
3	9575	1577.228161792584	1
3	9577	1577.234437099933	2
3	9578	1577.832613155041	1
3	9582	1577.861572640554	2
3	9583	1578.47771862627	1
3	9587	1578.552076038123	2
3	9588	1578.964632285414	1
3	9594	1579.482819894882	2
3	9598	1580.572497518947	1
3	9601	1581.20220950081	0
3	9610	1582.010874353322	1
3	9611	1582.59486629005	0
3	9655	1600.352100593054	1
3	9656	1600.935699848739	0
3	9660	1601.192795064392	1
3	9661	1601.422684561137	0
3	9665	1601.957338481511	1
3	9666	1602.238281550586	0
3	9670	1602.646302899761	1
3	9671	1603.020527368366	0
3	9690	1610.743408704359	1
3	9691	1610.852611249588	0
3	9695	1611.419397616899	1
3	9697	1611.46119360712	2
3	9698	1611.61913488586	1
3	9701	1612.200423437539	0
3	9705	1612.483549499608	1
3	9706	1612.763860917599	0
3	9710	1613.08119150209	1
3	9711	1613.307775705908	0
3	9715	1613.702747951918	1
3	9716	1614.021939703072	0
3	9725	1615.111960523288	1
3	9726	1615.669063350657	0
3	9730	1615.770915292566	1
3	9731	1616.564232662419	0
3	9735	1616.820168927922	1
3	9736	1617.156498001103	0
3	9745	1618.02653294386	1
3	9746	1618.253168948596	0
3	9750	1618.92359807692	1
3	9751	1619.123953396031	0
3	9755	1619.627465766692	1
3	9756	1619.724680023589	0
3	9765	1622.200584431674	1
3	9766	1622.302604035223	0
3	9797	1628.336203795783	1
3	9806	1629.67854905682	0
3	9830	1633.37674238156	1
3	9831	1633.954235641215	0
3	9930	1648.343078463278	1
3	9931	1648.829899652267	0
3	9940	1649.657211419929	1
3	9941	1650.508483593922	0
3	9950	1650.970697953457	1
3	9951	1651.570919919119	0
3	9960	1652.837645799078	1
3	9961	1652.972693334252	0
3	9965	1653.644570931112	1
3	9966	1653.896475733595	0
3	9970	1654.374552628434	1
3	9971	1654.867011597997	0
3	10005	1661.108594998212	1
3	10006	1661.49704017022	0
3	10030	1665.079867491683	1
3	10031	1665.295884418525	0
3	10035	1665.886255597439	1
3	10036	1665.918511392772	0
3	10040	1666.091821495946	1
3	10041	1666.776151570994	0
3	10045	1666.831828051317	1
3	10046	1667.178096690951	0
3	10050	1667.210879574817	1
3	10051	1667.830252293674	0
3	10055	1668.406423867257	1
3	10056	1668.811406481396	0
3	10067	1669.815778853258	1
3	10071	1670.703790422331	0
3	10075	1670.70830307684	1
3	10079	1670.923586416544	2
3	10084	1672.162128283952	3
3	10085	1672.291784886865	2
3	10089	1672.736083940707	3
3	10090	1672.790849763237	2
3	10093	1673.546524538787	1
3	10097	1674.064779216312	2
3	10098	1674.277370699204	1
3	10102	1674.654783170273	2
3	10104	1674.687260200912	3
3	10105	1674.834725763078	2
3	10108	1675.243027516815	1
3	10116	1676.70868814172	0
3	10130	1677.984093290166	1
3	10132	1677.991525387527	2
3	10133	1678.728108181087	1
3	10137	1678.946554692557	2
3	10139	1678.971583906792	3
3	10146	1679.845156184425	4
3	10147	1679.983331128656	3
3	10150	1680.603979214075	2
3	10153	1681.179891591546	1
3	10156	1681.769666767659	0
3	10165	1682.928398688013	1
3	10166	1683.21827035366	0
3	10180	1687.402274465812	1
3	10181	1687.83880484219	0
3	10185	1687.927367248469	1
3	10187	1687.965492221327	2
3	10188	1688.655293276378	1
3	10191	1689.072011509475	0
3	10215	1695.614557520312	1
3	10216	1696.440690289188	0
3	10220	1696.924440518272	1
3	10221	1697.229738507962	0
3	10245	1701.579968525536	1
3	10246	1702.207216564351	0
3	10260	1704.631113000101	1
3	10261	1704.895415863386	0
3	10330	1741.531328450742	1
3	10331	1741.810693468519	0
3	10340	1745.587108279056	1
3	10341	1745.617262980471	0
3	10345	1745.762340113815	1
3	10347	1746.332908813258	2
3	10348	1746.363384852501	1
3	10352	1746.373840815895	2
3	10354	1746.552622868282	3
3	10355	1747.00529725504	2
3	10358	1747.872321626394	1
3	10362	1748.033771935344	2
3	10363	1748.331927471784	1
3	10367	1748.746095517301	2
3	10368	1749.038440808457	1
3	10372	1749.508094925865	2
3	10374	1749.566174228817	3
3	10375	1749.632038587414	2
3	10379	1750.313539150389	3
3	10380	1750.329458540388	2
3	10384	1750.994118241547	3
3	10385	1751.267365295662	2
3	10389	1751.633636154364	3
3	10390	1751.717857883161	2
3	10393	1752.277321947308	1
3	10397	1752.305759967537	2
3	10399	1752.728024805201	3
3	10401	1752.901024290992	4
3	10402	1753.0533040007	3
3	10406	1753.418386457924	4
3	10407	1753.654515037442	3
3	10411	1753.775551898504	4
3	10412	1754.634524233442	3
3	10416	1755.02941691827	4
3	10417	1755.54902811352	3
3	10420	1756.13882934897	2
3	10423	1756.832783369057	1
3	10427	1757.165687032091	2
3	10431	1757.710075750841	3
3	10436	1758.340594305875	4
3	10437	1758.457012280764	3
3	10443	1758.914229144416	4
3	10445	1758.976217385131	5
3	10450	1759.067968190718	6
3	10451	1759.441691459099	5
3	10455	1759.888668091938	6
3	10456	1760.094079665223	5
3	10467	1761.22513680774	6
3	10484	1763.884658703654	7
3	10498	1766.366743034113	6
3	10501	1766.791083903227	5
3	10509	1768.186016039446	4
3	10512	1768.809771097301	3
3	10521	1769.559806405371	4
3	10522	1770.324836197997	3
3	10528	1770.824060602379	4
3	10533	1771.391393805071	5
3	10535	1772.023144743215	6
3	10536	1772.144382667159	5
3	10539	1772.620639875661	4
3	10543	1773.057750984887	5
3	10545	1773.09140694836	6
3	10546	1773.415570243485	5
3	10549	1774.219526903042	4
3	10552	1774.67165507757	3
3	10556	1774.813525487758	4
3	10557	1775.354445397983	3
3	10560	1775.97335978452	2
3	10564	1776.313888057064	3
3	10565	1776.636924768043	2
3	10568	1777.194231880446	1
3	10571	1777.652012962186	0
3	10580	1778.587378780912	1
3	10582	1779.091185344829	2
3	10583	1779.297262241867	1
3	10587	1779.328555424155	2
3	10594	1780.662959550473	3
3	10595	1780.807734584891	2
3	10604	1781.840778082812	3
3	10606	1782.429169333074	4
3	10607	1782.491822327384	3
3	10613	1782.865460403964	4
3	10618	1783.736476887181	5
3	10619	1784.000272180735	4
3	10622	1784.412564139896	3
3	10626	1784.703959139617	4
3	10627	1784.872403794563	3
3	10630	1785.383993636247	2
3	10633	1785.897890253401	1
3	10636	1786.31176728661	0
3	10640	1786.544195917254	1
3	10641	1786.727961460909	0
3	10650	1787.484151988422	1
3	10652	1787.531066091897	2
3	10659	1788.562564755234	3
3	10660	1788.953893039506	2
3	10663	1789.7739598927	1
3	10673	1790.649602159478	2
3	10678	1791.316294448733	3
3	10705	1795.591229467924	2
3	10716	1796.987240256353	3
3	10720	1797.639450791516	2
3	10731	1798.48001739405	3
3	10740	1799.781003558581	2
3	10751	1800.735147720399	3
3	10763	1801.86198493915	4
3	10777	1805.168344830062	3
3	10783	1805.506412130685	4
3	10795	1807.224142530528	5
3	10807	1809.367589995011	6
3	10821	1811.626107866354	5
3	10824	1812.044046227392	4
3	10827	1812.562941924893	3
3	10833	1813.009001240796	4
3	10837	1813.999604273532	3
3	10845	1815.019812891856	2
3	10849	1815.081571828993	3
3	10850	1816.005253912872	2
3	10854	1816.118994289519	3
3	10855	1816.818279340575	2
3	10858	1817.350212838678	1
3	10862	1818.109112685609	2
3	10863	1818.313058309155	1
3	10866	1819.16578630725	0
3	10870	1819.500708294032	1
3	10871	1819.592515966381	0
3	10875	1819.71179119737	1
3	10881	1821.080230708319	0
3	10885	1821.236288902916	1
3	10886	1821.482046604055	0
3	10890	1821.92949244042	1
3	10891	1821.993702242562	0
3	10895	1822.024183389654	1
3	10896	1822.979423069946	0
3	10900	1823.343815878325	1
3	10901	1823.657026931868	0
3	10942	1831.2107604693	1
3	10951	1833.297050933604	0
3	10970	1836.062175579501	1
3	10971	1836.329907230451	0
3	10980	1837.171782279345	1
3	10981	1837.70116892003	0
3	10990	1838.623375552055	1
3	10991	1839.131510876282	0
3	11000	1840.224147585375	1
3	11001	1840.276588404528	0
3	11012	1840.877055103635	1
3	11014	1841.196782878713	2
3	11036	1843.962905504703	3
3	11088	1851.516417875443	4
3	11115	1855.312045209294	5
3	11149	1859.649508923872	6
3	11194	1866.886979850154	7
3	11213	1869.066775834938	8
3	11235	1872.48145109884	9
3	11257	1876.088401510774	8
3	11268	1876.917943913215	9
3	11302	1882.244825693893	8
3	11310	1883.111347119578	7
3	11319	1883.722174258977	8
3	11320	1884.04915492574	7
3	11328	1885.286489902458	6
3	11334	1885.911129524939	7
3	11339	1886.130594810238	8
3	11340	1887.012528973094	7
3	11344	1887.14282242483	8
3	11351	1888.269513652582	9
3	11352	1888.454175441082	8
3	11360	1889.61547829497	7
3	11363	1890.541185791719	6
3	11366	1891.42390054392	5
3	11370	1891.445569078343	6
3	11372	1891.775919904679	7
3	11374	1891.942167618727	8
3	11375	1892.031206125462	7
3	11379	1892.778645264746	8
3	11380	1892.896917604537	7
3	11383	1893.33957034305	6
3	11389	1893.674905076594	7
3	11393	1894.659893059752	6
3	11396	1895.597812375308	5
3	11399	1896.055211932513	4
3	11403	1896.252321622139	5
3	11405	1896.372644385688	6
3	11406	1896.697937304921	5
3	11409	1897.2414327814	4
3	11413	1897.434283090737	5
3	11415	1897.729818184282	6
3	11416	1897.803432308672	5
3	11419	1898.579742247447	4
3	11423	1899.142609903603	5
3	11424	1899.415622671716	4
3	11427	1899.902459022472	3
3	11431	1900.175735189909	4
3	11433	1900.304003857615	5
3	11434	1900.596157349669	4
3	11438	1900.701795470714	5
3	11439	1901.043766434514	4
3	11442	1901.673397357645	3
3	11450	1903.20654137244	2
3	11456	1903.679039496494	3
3	11460	1904.662708598911	2
3	11464	1904.854509418591	3
3	11466	1904.878146226112	4
3	11467	1905.282171015372	3
3	11476	1906.159950248031	4
3	11478	1906.23110782303	5
3	11479	1906.572204397549	4
3	11483	1907.018721541697	5
3	11490	1907.507129535852	6
3	11491	1907.974795529083	5
3	11507	1910.321717236888	6
3	11512	1910.568530447377	7
3	11513	1911.146637991279	6
3	11516	1911.745728326331	5
3	11520	1912.445313631363	6
3	11521	1912.571836801407	5
3	11529	1913.143048585474	6
3	11534	1913.831916406937	7
3	11544	1915.029293349664	8
3	11545	1915.463231235159	7
3	11554	1917.009904314421	8
3	11555	1917.148184788575	7
3	11563	1918.375659466371	6
3	11567	1918.530311695715	7
3	11573	1919.439848646451	6
3	11577	1919.513203892725	7
3	11586	1920.010643984986	8
3	11615	1924.327377244247	7
3	11626	1925.549061240618	8
3	11675	1932.521029885511	7
3	11693	1934.164239283402	8
3	11700	1934.724796658752	9
3	11712	1936.504245303272	10
3	11724	1938.492376717016	11
3	11736	1941.338452348324	10
3	11747	1942.11004228547	11
3	11756	1944.329421756487	10
3	11772	1946.533210308047	11
3	11774	1946.704706310068	12
3	11784	1947.996085207595	13
3	11785	1948.043425502652	12
3	11803	1949.651971544367	13
3	11830	1954.782813529321	12
3	11838	1956.095071501354	11
3	11846	1956.992070563393	10
3	11875	1960.678825141936	11
3	11876	1961.085631780489	10
3	11880	1961.618690095822	11
3	11881	1961.797383646411	10
3	11884	1962.510518687568	9
3	11887	1963.035392339691	8
3	11891	1963.105871145631	9
3	11893	1963.304264727385	10
3	11894	1963.69003463795	9
3	11898	1963.999945274411	10
3	11899	1964.466891390575	9
3	11908	1965.439317221512	10
3	11909	1965.566693484482	9
3	11913	1965.574605157537	10
3	11919	1967.045217840352	9
3	11923	1967.192693298088	10
3	11924	1967.68936618583	9
3	11928	1967.860564351942	10
3	11929	1968.324470616204	9
3	11933	1968.579051894695	10
3	11939	1969.542837622927	9
3	11942	1970.257933458479	8
3	11951	1971.432392951893	9
3	11958	1971.632608590376	10
3	11959	1972.343310679521	9
3	11967	1973.919114589996	8
3	11981	1975.523852229619	9
3	11990	1976.717033554204	10
3	12005	1978.405457815269	11
3	12026	1980.826797179292	12
3	12078	1988.129112500257	11
3	12087	1989.318596687363	12
3	12088	1989.609941041868	11
3	12097	1990.458918927421	12
3	12099	1990.795574859385	13
3	12100	1990.973443099789	12
3	12108	1992.745167072469	11
3	12111	1993.395678503278	10
3	12117	1994.03080062502	11
3	12126	1994.640985127825	12
3	12139	1995.905728129025	13
3	12155	1998.672713045521	12
3	12164	1999.531817703606	13
3	12165	2000.287230358995	12
3	12176	2001.214794326442	13
3	12181	2001.843018201754	14
3	12192	2003.925509566186	13
3	12208	2005.821467974415	14
3	12212	2006.346389098024	13
3	12221	2007.647375627257	14
3	12222	2007.860440740153	13
3	12240	2011.120381979621	12
3	12249	2011.927930899959	13
3	12258	2013.081289133338	14
3	12263	2013.798536639568	15
3	12264	2014.043867187225	14
3	12273	2015.142147708646	15
3	12274	2015.298580438248	14
3	12283	2016.776487099799	15
3	12284	2017.158275085478	14
3	12287	2017.847423641593	13
3	12296	2018.566208838042	14
3	12298	2018.815972163962	15
3	12299	2019.131700181239	14
3	12308	2019.583285188527	15
3	12309	2020.217101480556	14
3	12318	2021.422391450837	15
3	12319	2021.464077678253	14
3	12322	2021.944148832071	13
3	12325	2022.637700046809	12
3	12329	2022.776847164737	13
3	12331	2023.382396857185	14
3	12332	2023.461771479971	13
3	12335	2024.051851465949	12
3	12339	2024.184263389327	13
3	12340	2024.947519661044	12
3	12343	2025.432813560148	11
3	12347	2025.674180649738	12
3	12349	2026.197404003103	13
3	12350	2026.396396236192	12
3	12354	2026.502940570797	13
3	12355	2026.901345419814	12
3	12358	2027.733730950183	11
3	12362	2027.82117865844	12
3	12363	2028.231155556976	11
3	12369	2028.840896449831	12
3	12374	2028.935865853047	13
3	12375	2029.755464735697	12
3	12378	2030.370419174782	11
3	12382	2030.975811697047	12
3	12383	2031.341768348939	11
3	12387	2031.573669051971	12
3	12389	2031.899229629522	13
3	12390	2032.308582286095	12
3	12394	2033.244258979734	13
3	12395	2033.279005781166	12
3	12398	2034.159310823377	11
3	12402	2034.33509911473	12
3	12406	2034.437599606048	13
3	12411	2035.544928601621	14
3	12412	2036.00794882516	13
3	12415	2036.742831632193	12
3	12419	2036.806364065979	13
3	12426	2037.684176664977	14
3	12427	2038.352534639347	13
3	12435	2039.734237088473	12
3	12443	2041.059365209774	11
3	12446	2041.572027388564	10
3	12450	2041.795088204589	11
3	12451	2042.214835287654	10
3	12455	2042.433022063955	11
3	12457	2042.777204660861	12
3	12464	2043.291329820553	13
3	12465	2043.790547255496	12
3	12468	2044.476817625598	11
3	12472	2044.708909166893	12
3	12479	2044.985883929191	13
3	12480	2045.694209367572	12
3	12486	2045.810266602166	13
3	12490	2046.73596650667	12
3	12499	2047.398308458942	13
3	12500	2047.882422959129	12
3	12508	2049.108660539961	11
3	12511	2049.632981826481	10
3	12520	2050.502026026587	11
3	12521	2051.105978572438	10
3	12524	2051.889601271064	9
3	12528	2051.989310147809	10
3	12529	2052.435980501794	9
3	12532	2053.356365009467	8
3	12536	2053.646671867256	9
3	12537	2053.905232357303	8
3	12541	2053.909436747414	9
3	12543	2054.331039987002	10
3	12544	2054.434706995193	9
3	12547	2055.2310184594	8
3	12556	2056.034269096944	9
3	12558	2056.217313839299	10
3	12560	2056.691969275125	11
3	12561	2056.953926443564	10
3	12564	2057.540796504006	9
3	12567	2058.251665946771	8
3	12571	2058.584068867861	9
3	12572	2058.849956483417	8
3	12576	2058.919202576813	9
3	12577	2059.432231439813	8
3	12581	2059.625386104124	9
3	12582	2060.386227288679	8
3	12586	2060.583043228204	9
3	12587	2061.161653835769	8
3	12590	2061.667079219897	7
3	12594	2061.725333667695	8
3	12596	2061.770695374199	9
3	12597	2062.136473889346	8
3	12601	2062.151739473319	9
3	12602	2062.799955050484	8
3	12605	2063.312906965124	7
3	12608	2063.872893136204	6
3	12612	2064.15813268761	7
3	12613	2064.281360451388	6
3	12617	2064.808937820678	7
3	12619	2064.864277004474	8
3	12621	2065.085998731221	9
3	12622	2065.093945941911	8
3	12626	2065.345382814088	9
3	12627	2065.498368535493	8
3	12631	2065.732845703463	9
3	12632	2066.050325411767	8
3	12635	2066.769485546531	7
3	12639	2067.668532275209	8
3	12640	2067.748527989046	7
3	12644	2067.917925156664	8
3	12646	2068.0568686451	9
3	12647	2068.564216248759	8
3	12650	2069.498579355816	7
3	12653	2070.403516283885	6
3	12656	2070.854994506223	5
3	12659	2071.73416575242	4
3	12663	2072.384260424923	5
3	12664	2072.710868014229	4
3	12668	2073.109006210337	5
3	12669	2073.291345065666	4
3	12672	2074.276303185263	3
3	12676	2074.515317639147	4
3	12677	2074.865205989658	3
3	12681	2075.354401445444	4
3	12682	2075.550126488899	3
3	12685	2076.324679124934	2
3	12689	2076.467745093172	3
3	12690	2076.822294040882	2
3	12693	2077.479669771084	1
3	12696	2077.917710517972	0
3	12700	2078.033057763291	1
3	12702	2078.779256888636	2
3	12703	2078.853576696404	1
3	12706	2079.377183723376	0
3	12710	2080.22274612528	1
3	12711	2080.277857904388	0
3	12715	2080.476661634577	1
3	12716	2080.933236114188	0
3	12725	2081.58940436925	1
3	12726	2082.295171819659	0
3	12732	2082.952705106437	1
3	12737	2083.428364749274	2
3	12739	2083.652063080826	3
3	12741	2083.661184302844	4
3	12743	2083.76250269793	5
3	12744	2083.850642960411	4
3	12750	2084.254404650645	5
3	12752	2084.377536039311	6
3	12754	2084.414445704953	7
3	12756	2084.516909393195	8
3	12760	2085.464907279969	7
3	12768	2086.675022151028	6
3	12772	2086.737373972314	7
3	12776	2087.168729017739	8
3	12781	2087.486524124337	9
3	12782	2087.612158220853	8
3	12791	2088.358614930315	9
3	12793	2088.581304166755	10
3	12794	2088.853298838097	9
3	12832	2095.223918940999	8
3	12843	2096.317912568742	9
3	12857	2099.352060527948	8
3	12863	2100.240300957385	9
3	12873	2101.469659227664	10
3	12880	2102.188454568607	11
3	12882	2102.742099880641	12
3	12883	2102.893304611126	11
3	12891	2104.024959504081	10
3	12894	2104.684809581598	9
3	12898	2104.967290562148	10
3	12899	2105.607942337764	9
3	12903	2105.768437369804	10
3	12904	2106.113504915906	9
3	12908	2106.40736118018	10
3	12909	2106.647720165586	9
3	12912	2107.238923577767	8
3	12916	2107.866442316293	9
3	12917	2108.030703772128	8
3	12921	2108.111880947979	9
3	12923	2108.220494289136	10
3	12924	2108.43992871329	9
3	12927	2109.098518640816	8
3	12930	2109.679458583694	7
3	12933	2110.427959804365	6
3	12936	2111.099878760043	5
3	12940	2111.474600750182	6
3	12941	2111.777239803818	5
3	12945	2112.031144825287	6
3	12947	2112.251996684207	7
3	12948	2112.469831201375	6
3	12951	2113.009236522565	5
3	12954	2113.466657540515	4
3	12958	2114.088148399268	5
3	12959	2114.27384040997	4
3	12963	2114.531545858436	5
3	12964	2115.026188953534	4
3	12968	2115.203724799971	5
3	12969	2115.583710879447	4
3	12973	2115.931494111928	5
3	12980	2116.699360652319	6
3	12981	2116.900788302893	5
3	12995	2118.488960671505	6
3	13007	2120.31160280617	7
3	13008	2120.39723641778	6
3	13014	2120.528748805667	7
3	13018	2120.591314722357	8
3	13031	2122.865161826519	9
3	13037	2124.321538649299	8
3	13041	2124.427232577543	9
3	13063	2127.258407209695	10
3	13065	2127.735754266906	11
3	13066	2127.77004529092	10
3	13070	2128.142558502226	11
3	13071	2128.385289332164	10
3	13080	2129.323052829102	11
3	13081	2129.628704448822	10
3	13085	2129.652842706232	11
3	13089	2129.993196909626	12
3	13091	2130.089979973964	13
3	13096	2130.375988089069	14
3	13098	2130.829762359663	15
3	13099	2131.254110100386	14
3	13102	2131.849562763362	13
3	13106	2132.548407515267	14
3	13107	2132.784825930777	13
3	13111	2133.225672811021	14
3	13112	2133.326159943254	13
3	13115	2133.854796320419	12
3	13119	2134.391305777969	13
3	13120	2134.681398874181	12
3	13124	2135.095115862449	13
3	13125	2135.668895475925	12
3	13129	2135.700293818556	13
3	13131	2135.976912796451	14
3	13133	2136.124404724726	15
3	13134	2136.556330908588	14
3	13137	2137.434713009777	13
3	13140	2138.01052113593	12
3	13143	2138.583520827893	11
3	13152	2139.469885868338	12
3	13153	2139.72895200875	11
3	13157	2140.060744138639	12
3	13161	2140.094903885619	13
3	13166	2140.551952749725	14
3	13168	2140.593828802875	15
3	13170	2141.039523906248	16
3	13171	2141.2481658995	15
3	13180	2142.391464952957	16
3	13181	2143.060618770014	15
3	13189	2144.593644076104	14
3	13193	2144.876069392516	15
3	13199	2145.662385852665	14
3	13208	2146.904510934595	15
3	13209	2146.910735683499	14
3	13213	2147.123203323559	15
3	13214	2147.487906191481	14
3	13222	2148.910775463126	13
3	13226	2148.913562000208	14
3	13232	2150.42805828632	13
3	13240	2151.910686797631	12
3	13246	2152.494575001711	13
3	13258	2153.966935223679	14
3	13263	2154.204464217272	15
3	13269	2155.604589756655	14
3	13272	2156.385517578416	13
3	13275	2156.81127518195	12
3	13278	2157.306043720928	11
3	13281	2158.21032425769	10
3	13285	2158.369419222835	11
3	13287	2158.47802569838	12
3	13288	2159.097512430915	11
3	13292	2159.797997904873	12
3	13293	2159.931937132341	11
3	13297	2160.046214738552	12
3	13298	2160.729938296446	11
3	13302	2160.854848651226	12
3	13303	2161.610406661437	11
3	13306	2162.354769711926	10
3	13310	2162.767148007833	11
3	13311	2162.798836882071	10
3	13315	2163.312525827963	11
3	13317	2163.360043076926	12
3	13318	2163.538051992965	11
3	13321	2163.965379611899	10
3	13325	2164.304581567449	11
3	13327	2164.35647045758	12
3	13329	2164.51416815374	13
3	13330	2164.956113631961	12
3	13334	2165.010697869049	13
3	13335	2165.701689130331	12
3	13339	2165.873433281532	13
3	13340	2166.61436839442	12
3	13344	2166.735931784008	13
3	13351	2168.170761311579	14
3	13352	2168.184871888005	13
3	13358	2168.664929408012	14
3	13362	2169.458920014121	13
3	13368	2169.983258441052	14
3	13373	2170.317613705666	15
3	13374	2170.434790556954	14
3	13377	2171.034004396695	13
3	13383	2171.287343178376	14
3	13385	2171.547356109716	15
3	13390	2172.147397684773	16
3	13391	2172.764772182826	15
3	13394	2173.382760308852	14
3	13397	2174.298894461553	13
3	13401	2174.331256464213	14
3	13402	2174.856506732927	13
3	13406	2174.955875288954	14
3	13408	2175.26192637223	15
3	13409	2175.721474120423	14
3	13413	2175.771355379841	15
3	13415	2176.350938027209	16
3	13416	2176.583050367731	15
3	13419	2177.001352602412	14
3	13423	2177.461488278189	15
3	13424	2177.850122974004	14
3	13427	2178.503816675377	13
3	13431	2179.357979260641	14
3	13435	2179.418131158724	15
3	13442	2179.749732717707	16
3	13454	2181.467626400936	17
3	13458	2182.739480260927	16
3	13467	2183.817861249818	17
3	13468	2184.322198760258	16
3	13477	2185.43099201121	17
3	13478	2185.734266205532	16
3	13487	2186.712943291783	17
3	13488	2187.21321206552	16
3	13496	2188.372262651036	15
3	13505	2189.696200251323	16
3	13506	2190.086562580178	15
3	13514	2191.444414679362	14
3	13522	2192.792581054131	13
3	13530	2194.375390508007	12
3	13538	2195.671201785402	11
3	13547	2196.71219557386	12
3	13548	2197.29281081886	11
3	13552	2197.842540014726	12
3	13553	2198.01433622905	11
3	13557	2198.459117724328	12
3	13558	2198.87587163791	11
3	13562	2199.215754444235	12
3	13563	2199.556777594173	11
3	13567	2200.2826284647	12
3	13568	2200.303141593262	11
3	13572	2200.66860070332	12
3	13573	2200.905624052816	11
3	13576	2201.565151481125	10
3	13580	2201.70260280136	11
3	13581	2202.2126397542	10
3	13584	2202.746237630052	9
3	13588	2203.271339523664	10
3	13589	2203.292483421722	9
3	13593	2203.609850967904	10
3	13594	2204.158922442169	9
3	13597	2204.959687997335	8
3	13601	2205.349664241075	9
3	13602	2205.613154271971	8
3	13606	2205.676251217954	9
3	13608	2205.839317228655	10
3	13609	2206.1519243656	9
3	13613	2206.662065565326	10
3	13614	2206.866977526787	9
3	13618	2207.084495447583	10
3	13620	2207.619728575817	11
3	13621	2207.712791261663	10
3	13624	2208.178119166921	9
3	13628	2208.700532538973	10
3	13629	2208.968059380845	9
3	13632	2209.393702776897	8
3	13636	2209.429848536018	9
3	13638	2209.518684932629	10
3	13640	2209.880356267507	11
3	13641	2210.162962383711	10
3	13645	2210.174019279288	11
3	13652	2211.673512578791	12
3	13653	2211.710743214776	11
3	13662	2213.106826100067	12
3	13664	2213.26888498905	13
3	13665	2213.652167125307	12
3	13674	2214.633181594848	13
3	13675	2215.16795884355	12
3	13678	2215.572856504685	11
3	13682	2215.67479121883	12
3	13683	2215.988142109039	11
3	13686	2216.506178818485	10
3	13689	2217.248181114886	9
3	13693	2217.439735834979	10
3	13695	2217.522401144441	11
3	13697	2217.917564738605	12
3	13698	2217.969151008437	11
3	13701	2218.596882018149	10
3	13707	2219.258882427654	11
3	13712	2219.817692062283	12
3	13713	2219.979251661459	11
3	13721	2221.347469316917	10
3	13724	2221.750154095125	9
3	13727	2222.541611411172	8
3	13730	2223.096047077869	7
3	13734	2223.21471342398	8
3	13735	2223.522842370515	7
3	13743	2225.412008068414	6
3	13747	2225.47450362971	7
3	13753	2226.628737346112	6
3	13759	2227.019665632966	7
3	13764	2227.64667778083	8
3	13765	2227.850678481145	7
3	13769	2228.128794348119	8
3	13770	2228.325310840953	7
3	13774	2228.43813511308	8
3	13775	2228.804943525961	7
3	13779	2229.194345714937	8
3	13781	2229.269853560243	9
3	13783	2229.290686663166	10
3	13784	2229.402143124661	9
3	13787	2230.119151322714	8
3	13790	2230.656537822572	7
3	13794	2230.773950864258	8
3	13796	2230.912261334583	9
3	13797	2231.134941367696	8
3	13801	2231.627653185536	9
3	13802	2231.985946396722	8
3	13805	2232.442013670953	7
3	13809	2232.774573123328	8
3	13810	2232.931198623853	7
3	13813	2233.361046012055	6
3	13817	2233.671964353697	7
3	13819	2233.841332653676	8
3	13820	2234.192838194204	7
3	13824	2234.771254724445	8
3	13826	2234.849835903742	9
3	13828	2234.880924938674	10
3	13830	2235.034986113451	11
3	13831	2235.120624235721	10
3	13834	2235.919211174437	9
3	13837	2236.874592017272	8
3	13841	2237.261663627857	9
3	13843	2237.454981590372	10
3	13844	2237.470216678997	9
3	13847	2237.929539742164	8
3	13850	2238.896670535516	7
3	13854	2239.202092249132	8
3	13855	2239.441489240557	7
3	13858	2240.238561466971	6
3	13861	2240.808732956444	5
3	13865	2241.189538456098	6
3	13867	2241.24070414393	7
3	13868	2241.365278112359	6
3	13872	2241.390229830243	7
3	13874	2241.494189305655	8
3	13876	2241.955870986184	9
3	13878	2241.980969757378	10
3	13880	2242.240386418993	11
3	13881	2242.246400414716	10
3	13884	2242.712894530205	9
3	13887	2243.599594649237	8
3	13890	2244.593041956455	7
3	13894	2244.689420311843	8
3	13896	2244.791802239833	9
3	13897	2245.235251783005	8
3	13901	2246.1274446732	9
3	13902	2246.193215875451	8
3	13905	2247.005721259706	7
3	13908	2247.982715540037	6
3	13912	2248.183349519884	7
3	13914	2248.454807110688	8
3	13915	2248.850931294432	7
3	13919	2249.116536887201	8
3	13921	2249.121762920279	9
3	13923	2249.389130159213	10
3	13924	2249.698251222104	9
3	13927	2250.122631647933	8
3	13936	2251.179692325932	9
3	13938	2251.430091563911	10
3	13939	2251.604562251951	9
3	13943	2252.056859491862	10
3	13944	2252.281273677835	9
3	13948	2252.808842020281	10
3	13949	2252.811908482184	9
3	13952	2253.257426932623	8
3	13956	2253.325956386503	9
3	13958	2253.499802406222	10
3	13959	2254.145140938816	9
3	13962	2255.094270660245	8
3	13966	2255.199068551395	9
3	13968	2255.7904706387	10
3	13970	2255.825595318708	11
3	13971	2255.924972319632	10
3	13975	2256.128617611924	11
3	13976	2256.60075581994	10
3	13980	2256.886621316772	11
3	13982	2257.439905026418	12
3	13983	2257.537254332081	11
3	13999	2259.65447614905	12
3	14018	2262.373516404703	11
3	14022	2262.612159248567	12
3	14041	2264.419229642711	13
3	14050	2265.539294646328	14
3	14102	2273.62661867289	13
3	14126	2276.704146382402	14
3	14127	2277.470102653123	13
3	14138	2278.312869190792	14
3	14217	2287.680129140916	15
3	14257	2292.355958056234	16
3	14306	2299.443686326498	17
3	14313	2300.743771024087	18
3	14425	2317.519265774806	17
3	14433	2318.746053104411	16
3	14437	2319.00326704212	17
3	14439	2319.115535228503	18
3	14440	2319.665699649072	17
3	14444	2319.870589485823	18
3	14445	2320.634680039138	17
3	14449	2320.736655042253	18
3	14450	2321.45374708118	17
3	14453	2322.035766127176	16
3	14456	2322.437621102418	15
3	14459	2322.845830643346	14
3	14463	2323.408616140134	15
3	14465	2323.503716122593	16
3	14467	2323.549721192857	17
3	14468	2323.628821277741	16
3	14472	2323.714242317105	17
3	14473	2324.35147186232	16
3	14476	2325.206907160517	15
3	14480	2325.477870391826	16
3	14481	2325.81828000609	15
3	14485	2326.052825093844	16
3	14486	2326.324684507569	15
3	14489	2327.02014084424	14
3	14492	2327.516303100233	13
3	14495	2328.119685681892	12
3	14499	2328.726881026455	13
3	14500	2328.827670085459	12
3	14516	2330.830575129808	13
3	14530	2332.845549553616	12
3	14533	2333.440522880696	11
3	14541	2333.955864558822	12
3	14546	2334.088112652001	13
3	14553	2334.661493765437	14
3	14560	2336.239209131957	15
3	14565	2336.694039109197	16
3	14566	2337.035441297742	15
3	14572	2337.432451275094	16
3	14584	2338.210513639814	17
3	14613	2342.345669182605	16
3	14621	2343.829691552866	15
3	14630	2344.402902618594	16
3	14631	2344.688394796225	15
3	14640	2345.803380388366	16
3	14641	2346.120282238937	15
3	14657	2347.661519956984	16
3	14661	2348.64719964739	15
3	14672	2349.624512222628	16
3	14676	2350.812169013666	15
3	14684	2352.112373546306	14
3	14695	2353.240231287307	15
3	14699	2354.130805194033	14
3	14707	2354.809245512388	15
3	14712	2355.162536669934	16
3	14717	2355.814006975316	17
3	14723	2356.954858589992	16
3	14726	2357.558958751829	15
3	14730	2357.582974736538	16
3	14731	2358.025220743781	15
3	14735	2358.244725788902	16
3	14739	2358.56376192731	17
3	14743	2360.003690610389	16
3	14752	2361.113698834103	17
3	14753	2361.140872779378	16
3	14761	2362.730245030421	15
3	14767	2363.037815219091	16
3	14772	2363.305008947877	17
3	14773	2363.950311351364	16
3	14781	2365.441619384179	15
3	14790	2366.267566564113	16
3	14791	2366.900555813902	15
3	14802	2367.763017691293	16
3	14804	2368.022304012132	17
3	14871	2377.537850737594	18
3	14875	2378.333678263362	17
3	14888	2379.525431480396	18
3	14950	2389.182259374188	17
3	14969	2390.888251873604	18
3	14971	2391.214177791123	19
3	14992	2394.376340976711	18
3	14996	2394.526879197594	19
3	15003	2395.194203503178	20
3	15004	2396.063469323311	19
3	15027	2398.244987374587	20
3	15082	2406.37631631283	21
3	15096	2407.89630434693	20
3	15107	2409.082543451583	21
3	15121	2411.075792401173	20
3	15130	2412.057085330652	21
3	15131	2412.551661671587	20
3	15137	2412.973643001056	21
3	15141	2413.759027032397	20
3	15145	2414.159168256057	21
3	15146	2414.305537102401	20
3	15150	2414.676957358647	21
3	15151	2414.934457568714	20
3	15155	2414.981563848922	21
3	15156	2415.864981119969	20
3	15160	2416.091577054663	21
3	15161	2416.825837067637	20
3	15164	2417.463555330114	19
3	15167	2418.055263325043	18
3	15170	2419.035343703797	17
3	15173	2419.65661506083	16
3	15177	2419.690145726066	17
3	15179	2420.316915448021	18
3	15180	2420.464274968842	17
3	15184	2421.194860626634	18
3	15185	2421.247100054223	17
3	15188	2421.744101591019	16
3	15191	2422.530214249233	15
3	15195	2422.935670364049	16
3	15196	2422.978158870183	15
3	15199	2423.677771584766	14
3	15203	2423.777256755315	15
3	15205	2423.992057429146	16
3	15207	2424.217527120211	17
3	15208	2424.480524932716	16
3	15211	2424.928235640174	15
3	15215	2425.25208616625	16
3	15216	2425.810856857041	15
3	15220	2425.86683610757	16
3	15221	2426.30060394549	15
3	15224	2427.045136553219	14
3	15228	2427.135925454093	15
3	15229	2427.446760179691	14
3	15233	2427.538617147931	15
3	15234	2428.339897519613	14
3	15238	2428.474530975564	15
3	15240	2428.690010740711	16
3	15241	2428.84528699036	15
3	15244	2429.639598464717	14
3	15247	2430.292154704391	13
3	15250	2431.224969016233	12
3	15254	2431.311043883984	13
3	15255	2431.974379780408	12
3	15258	2432.825623997938	11
3	15262	2433.070576308562	12
3	15263	2433.446130424444	11
3	15267	2433.496091816881	12
3	15268	2434.313365829908	11
3	15272	2434.543884381363	12
3	15274	2434.608986663561	13
3	15275	2434.901160296783	12
3	15278	2435.385619247411	11
3	15281	2436.00478335557	10
3	15285	2436.333528203025	11
3	15287	2436.624361767064	12
3	15288	2436.786547870081	11
3	15292	2436.994949148038	12
3	15294	2437.146179595452	13
3	15296	2437.218164479832	14
3	15298	2437.283129606555	15
3	15299	2437.593441405179	14
3	15303	2437.71613431981	15
3	15304	2438.506612780303	14
3	15307	2439.075933645465	13
3	15311	2439.076607559564	14
3	15312	2439.629027275308	13
3	15316	2439.892598602235	14
3	15317	2440.249631358949	13
3	15321	2440.293109759971	14
3	15323	2440.821299118873	15
3	15324	2440.954322797745	14
3	15328	2441.011482851097	15
3	15329	2441.650603081366	14
3	15332	2442.419995822558	13
3	15336	2442.500493836183	14
3	15338	2443.379613118483	15
3	15339	2443.419468022357	14
3	15343	2443.509059295471	15
3	15344	2443.962684947518	14
3	15347	2444.473022205415	13
[...]
6	165369	25722.821560630235	6.467705327046
6	165394	25727.065314375758	1.089289829334
6	165411	25729.48095465825	14.533354986218
6	165509	25745.716989863112	0.809430166938
6	165583	25756.697581466154	0.924216505643
6	165586	25757.13745643581	11.332232298018
6	165656	25766.749738912563	7.36998112728
6	165676	25770.342790972348	10.709907646304
6	165728	25777.604266114113	4.111260734553
6	165876	25801.005955537093	6.647483687477
6	165994	25824.994046715498	4.958824723616
6	166077	25835.599650229457	9.018862587658
6	166127	25841.939600469815	16.240095668312
6	166168	25847.307931020242	14.403056386119
6	166179	25849.692291532914	18.993375766005
6	166297	25867.699676111565	13.222633876621
6	166329	25872.269403949232	3.075074455003
6	166351	25877.131806052841	6.01443857081
6	166372	25880.172376541176	0.418186587188
6	166385	25882.991451735427	2.929946780016
6	166429	25893.455124697545	4.439393668427
6	166511	25904.01061023345	16.5422992565
6	166580	25913.883446322679	7.913708281329
6	166739	25936.495902506655	4.606522453116
6	166747	25937.657547689762	33.046427169633
6	166859	25951.1130580547	54.30927897479
6	166873	25952.970651568352	2.113401824968
6	166881	25954.705356163691	3.059435114696
6	166904	25958.241030550954	38.816955328142
6	166941	25963.764702688923	14.720785764015
6	167109	25986.626457349696	3.474338447288
6	167124	25988.53871202089	1.805183582265
6	167144	25991.116405075668	7.028539320243
6	167182	25996.648163564848	10.881685769621
6	167204	25999.835190387508	11.193582152114
6	167244	26005.287348682592	8.093485791258
6	167285	26011.658938068868	12.522315720998
6	167401	26027.693505758671	12.73357069536
6	167424	26030.308866599267	17.48366887321
6	167446	26032.963056933946	10.013318334327
6	167464	26035.748091629074	4.813696665702
6	167467	26036.734744868866	6.393342510914
6	167494	26040.904084332865	3.025349174932
6	167497	26041.725723950025	4.612092984654
6	167802	26090.07371787752	4.771844656771
6	167919	26108.225268776138	1.749891751083
6	167954	26112.99784645213	19.83764059981
6	168075	26132.871091781289	4.717663839999
6	168127	26139.295999897935	6.913097661621
6	168155	26143.149626209784	15.912449423484
6	168158	26143.746658259548	7.428805159029
6	168329	26167.205135279254	1.86848429193
6	168337	26168.970409058512	6.94411326292
6	168386	26174.747900161393	8.260406876336
6	168397	26176.62262590161	7.099864502139
6	168407	26177.619345941594	51.036980241865
6	168534	26194.313695226112	7.01300072129
6	168537	26194.897559873029	54.46480648507
6	168627	26209.88356837925	2.411409172371
6	168678	26214.904902443071	1.339102891152
6	168686	26216.250346134291	4.713321934537
6	168850	26238.377632455729	26.555979089448
6	168947	26251.425245147168	30.306478918007
6	168950	26252.019849657377	4.560432385258
6	169034	26264.49058063274	5.859967042207
6	169070	26269.47747268073	5.698133377719
6	169300	26299.17898806191	21.753550569217
6	169397	26311.892138933966	14.463324980808
6	169427	26316.59486188988	21.441912784794
6	169442	26318.254058218996	22.693012497903
6	169461	26320.632906708742	3.364750505001
6	169474	26322.223980474348	58.677943680744
6	169499	26325.5589295183	12.410907923922
6	169507	26326.475326321383	44.717915514638
6	169520	26328.791790174569	25.58079571567
6	169560	26334.388068070325	14.193011366821
6	169593	26339.673887604582	22.217307923976
6	169638	26346.285186737649	14.681731824883
6	169728	26358.183673032947	19.6671701243
6	169761	26362.829157528994	14.060030070581
6	169870	26378.583032616802	11.607990368664
6	169925	26385.408441095069	2.989637085628
6	169959	26389.431597520984	1.685926576643
6	169972	26390.832671193141	10.534814831975
6	170167	26418.348615234638	2.546779186796
6	170174	26419.341707199173	22.37010989427
6	170276	26433.892119539402	12.935772573764
6	170332	26440.657413910062	0.669596296375
6	170461	26458.780861265084	25.389784145508
6	170702	26492.31118267366	3.048278268744
6	170727	26495.107854599145	6.069307772786
6	170793	26505.000252730177	1.741041110787
6	171046	26544.211406710667	1.299094993031
6	171159	26558.506577435386	7.547197907526
6	171216	26566.511875866882	11.226338446834
6	171232	26568.83943973609	0.915903598924
6	171391	26594.118021277451	5.360524994045
6	171496	26605.835502434497	4.931399574386
6	171528	26610.051494551983	8.703004244943
6	171555	26614.151774718774	5.693996110366
6	171578	26617.798515364596	6.420973920631
6	171632	26624.984605036513	0.499344908142
6	171679	26630.974170716084	5.213590484219
6	171684	26631.419556380972	7.992312367345
6	171747	26640.545751045994	4.636247835289
6	171822	26651.807793408425	21.501997238059
6	171825	26652.694827353933	8.226656920228
6	171828	26653.266895093654	5.932150242765
6	171848	26656.049486334507	1.458664512689
6	171917	26665.628410277261	8.799244447424
6	171958	26669.919558481665	9.329156333516
6	171968	26671.631727938612	12.735925649005
6	171998	26675.672393987446	3.732079918208
6	172043	26682.059503485148	6.866614103109
6	172062	26684.543488076494	14.96787216602
6	172065	26685.464318408376	7.089554287515
6	172085	26688.272690044834	0.687773831583
6	172098	26690.049140022673	11.389057971678
6	172167	26698.299253002719	4.478158471905
6	172207	26703.611852377957	8.74512252374
6	172210	26704.084997869307	8.593425748549
6	172295	26715.977072970267	5.5359679638
6	172359	26726.300453455678	1.616424240297
6	172403	26732.355146002702	20.40402836632
6	172583	26759.142861615101	7.88950336209
6	172682	26773.256069116785	14.974721906413
6	172693	26775.234814949405	4.669935164691
6	172758	26784.577947364493	0.82376662922
6	172881	26802.409138976528	11.332272161767
6	172988	26818.168139512118	3.814856334908
6	173077	26829.330995703843	4.170992333285
6	173087	26831.204227103321	4.721608270023
6	173095	26832.879889920009	12.986150763662
6	173100	26833.339074342865	10.548349341831
6	173135	26838.536297941794	5.650501108391
6	173153	26841.609151293039	5.904913593353
6	173366	26870.518421168051	5.771831889454
6	173443	26881.354241585253	11.66528865696
6	173489	26887.863860844855	14.183560707837
6	173620	26907.534152852263	5.994827501917
6	173855	26938.6348090601	4.093587852138
6	173868	26940.551107225506	10.369935813677
6	174065	26969.120352578658	9.767746734579
6	174073	26970.350200818788	0.65472115219
6	174105	26974.85068194534	2.596436818038
6	174108	26975.622414381786	1.561499049283
6	174226	26993.461287007325	7.731193146181
6	174412	27023.152886524805	3.224947257061
6	174470	27031.551126699392	11.515959786113
6	174524	27037.905662943804	2.694181717484
6	174583	27047.744561248561	10.966101893989
6	174703	27064.878000953803	2.778773628326
6	174739	27070.842141927509	14.389709070527
6	174797	27079.095746270246	8.073293983167
6	174920	27098.105338133343	3.397521441213
6	174937	27106.714824604977	1.98853785167
6	174959	27109.453478403378	2.192670186708
6	175037	27126.662601025499	8.825194120029
6	175055	27135.372994620988	2.572118160569
6	175139	27158.045871339571	8.905801751867
6	175142	27158.930375954854	1.044884683287
6	175145	27159.65969964454	5.111914323042
6	175167	27165.870867321336	2.879065802094
6	175170	27166.83383032244	3.974043059884
6	175201	27174.1194491048	1.773775738088
6	175209	27175.29123335929	5.047152333085
6	175241	27179.220592948667	7.364277560288
6	175297	27188.354212974463	10.767963489477
6	175371	27197.456477141178	3.1541864217
6	175393	27200.582176808577	7.648849044331
6	175416	27203.696165971488	7.139129394733
6	175467	27209.41825078794	6.579519409676
6	175541	27220.267992047391	3.835854303153
6	175544	27220.876090138157	7.522183115728
6	175549	27221.706972040034	24.382742313397
6	175590	27228.442398760825	52.014319660974
6	175595	27229.054417933974	30.241914782497
6	175630	27234.045084709286	5.494585361695
6	175695	27243.605081742336	1.09906827977
6	175737	27248.951550849514	5.859160268973
6	175740	27249.369457341578	6.591670360175
6	175859	27264.538961191696	9.737292363667
6	175924	27273.435722368291	18.756918818018
6	175927	27273.92693743141	9.462722053281
6	175942	27275.982780811691	4.599975125413
6	175947	27276.570599090017	3.258844243926
6	175950	27277.430678007274	0.887860572096
6	176216	27313.772588022504	1.770232016474
6	176219	27314.258994238716	4.679895912058
6	176315	27326.332903342538	1.793173836511
6	176318	27326.809659400706	5.99449674464
6	176405	27339.604825595891	1.791024320709
6	176441	27343.923309052813	1.627220061236
6	176506	27353.051833917139	15.436230898635
6	176580	27364.128327504531	10.007492186102
6	176632	27371.388351336666	2.586821728024
6	176642	27372.649789531375	8.655151080142
6	176756	27393.958829514215	2.672131869702
6	176780	27402.219843207121	0.679709933
6	176826	27408.495097930326	5.632728786719
6	176838	27409.981544972133	2.093575548823
6	176846	27411.177007479189	7.938654625627
6	176859	27413.328404043211	7.588151475658
6	176902	27420.560116998308	4.994619762452
6	176950	27430.526591234919	6.905554588607
6	176982	27440.851465346975	4.581590171202
6	177007	27446.997075897731	1.519313913322
6	177082	27460.50089001492	4.738616588287
6	177156	27470.595219630795	1.992788657227
6	177194	27476.623129806016	15.132585834189
6	177244	27485.459072962792	3.451313042408
6	177267	27490.637903338032	0.993555723583
6	177311	27495.59593513083	4.927756165077
6	177321	27497.25503978628	8.831093059977
6	177404	27508.567668648635	12.062825335492
6	177452	27516.56910574625	24.038932430005
6	177552	27533.852406389627	14.588465858888
6	177816	27599.131867849127	9.811786723101
6	177819	27600.13067770996	2.297900488387
6	177986	27629.250350320012	3.500217169116
6	178011	27633.613815253507	14.227662784069
6	178052	27638.847986327298	12.667807066912
6	178093	27644.35465910039	14.766398891739
6	178166	27653.691109367694	4.167032368371
6	178284	27669.300170886007	16.911971930207
6	178306	27673.061333899994	36.791090620095
6	178370	27681.745925909657	28.840890888011
6	178415	27688.434247613562	9.038719415198
6	178423	27690.273246310328	27.986763827182
6	178512	27703.354522679797	61.381283689004
6	178593	27714.195992210417	1.263333143357
6	178630	27719.297883671338	47.048220649571
6	178658	27723.557865503618	44.313382783841
6	178666	27725.004878313701	53.694894256837
6	178703	27729.598189754599	83.804163893829
6	178768	27738.796424904	21.607341732916
6	178797	27743.430494179158	15.156064494781
6	178879	27753.999725041586	9.623704295714
6	178884	27754.870608876321	4.613308478466
6	179100	27789.668149455358	3.680372310328
6	179108	27790.939508199367	0.752710591046
6	179255	27810.679813455978	6.895955568177
6	179357	27823.390776564184	11.137271222119
6	179391	27829.338746592639	20.505716141174
6	179394	27829.779444064483	2.708141925941
6	179481	27843.500139032635	2.808318953658
6	179494	27845.378958063811	0.729665412136
6	179599	27861.344802631375	15.709213909901
6	179664	27870.586215864012	6.173550645794
6	179753	27883.186119035326	4.910610721282
6	179778	27887.44567131649	9.618466574824
6	179809	27891.525458710056	11.114384310061
6	179879	27906.684704113265	2.441605774407
6	179978	27919.106151070378	10.755971859472
6	179983	27919.805590704947	8.466420632626
6	180096	27934.996537868705	9.609925219747
6	180202	27950.343188303642	11.941315148522
6	180221	27952.733211123272	1.38151909992
6	180229	27953.821438008807	1.321040557194
6	180232	27954.437765371221	34.229954786963
6	180321	27981.578893627232	1.773913290703
6	180356	27986.823776021558	5.353902724899
6	180434	27998.072834075304	13.181021578358
6	180437	27998.576761107348	1.763839232032
6	180546	28018.170790839232	1.46507144086
6	180573	28021.43973389956	7.306448105345
6	180591	28023.912328657917	4.150277307243
6	180601	28025.007020604135	7.82783914648
6	180621	28027.697195942643	1.127519482987
6	180655	28032.955764680294	0.531743867043
6	180670	28036.046723159168	0.532464172416
6	180716	28042.487829315037	3.465683101033
6	180776	28050.724328148367	0.721190966526
6	180811	28055.71516128965	11.235524677783
6	180851	28061.625666037483	10.294483447636
6	180924	28071.115818623689	12.718057558608
6	181029	28085.734755156051	19.563606909575
6	181039	28087.318655561704	5.180557046629
6	181121	28098.744073671849	6.961473422418
6	181173	28106.071440524097	22.915914432969
6	181186	28108.1782714237	2.794372111098
6	181373	28135.62347678938	3.532217878945
6	181376	28136.082464731066	27.803935111102
6	181429	28144.40804916392	4.261428351411
6	181485	28151.606642436096	2.720217583357
6	181685	28183.234025924429	2.225382091106
6	181750	28202.819826208308	1.568607283924
6	181765	28221.60820709986	0.686431671726
6	181862	28243.907444504657	4.998439717152
6	182047	28282.968651297878	20.72446715987
6	182265	28313.617876823069	3.583849015987
6	182286	28317.539933999264	2.475674913145
6	182358	28332.252277036607	5.805513667262
6	182383	28336.525190439531	7.736506475113
6	182415	28340.373584340643	0.693879120427
6	182428	28342.326426617466	12.541686352695
6	182548	28360.202448702735	1.200920882612
6	182561	28362.570223919015	6.62726151
6	182591	28367.01748587819	3.788983097577
6	182624	28371.620374084477	27.306747774417
6	182767	28391.328596610776	17.297497231285
6	182838	28402.585869257655	1.150785080609
6	182895	28411.070684404196	13.117530459902
6	182972	28433.066678104023	0.728060387122
6	182990	28441.072599120179	2.846274714232
6	183017	28449.922638412376	0.489658512687
6	183118	28464.442317896202	2.788545130002
6	183134	28467.393810799491	3.850112180734
6	183242	28485.277968824951	9.541502413141
6	183269	28490.633480480828	2.692755865613
6	183308	28495.757745440167	4.389072937703
6	183406	28511.861337343559	9.939653212628
6	183470	28520.886677011764	1.433420166755
6	183530	28530.134834218967	1.488518056575
6	183621	28543.434995689626	21.374195815698
6	183763	28566.012393247055	16.926659613056
6	183824	28574.404950907966	25.015813484038
6	183941	28593.732091686567	11.065492062386
6	183976	28598.894775940358	6.490181868629
6	184034	28608.493378247506	21.125666024331
6	184050	28611.70992499679	8.660089026585
6	184120	28638.496186333053	1.558893869945
6	184140	28645.523288024529	2.946300353458
6	184254	28671.669801613333	8.949569733806
6	184279	28675.213986223639	0.508664275319
6	184315	28682.799801896084	4.377059456892
6	184547	28719.059616837395	25.640212410853
6	184587	28724.059389374616	36.440256033394
6	184604	28726.540434229258	18.309906129299
6	184612	28727.93716380063	3.010867938222
6	184620	28729.408085606317	35.801860967158
6	184635	28731.0200559146	6.647781591162
6	184695	28739.306382998846	8.812353240881
6	184786	28750.482594816038	6.597855024004
6	184814	28754.880279782253	7.764059286444
6	184854	28760.044183558484	52.542565612228
6	184946	28772.906211812402	3.339951752255
6	185089	28792.425440459774	39.905607880503
6	185185	28805.653861157113	1.056154380871
6	185253	28813.450385562824	5.324800894024
6	185256	28814.226100738095	31.251755320262
6	185259	28814.992982050991	3.257032786386
6	185438	28841.338344897593	0.884148364558
6	185456	28844.006022291987	1.416350216874
6	185575	28862.117409982018	3.945823715081
6	185703	28880.498678480928	1.401385434568
6	185786	28891.54524130961	7.214003994269
6	185789	28892.218073130539	18.458209865194
6	185820	28895.698739667702	9.16238405652
6	185852	28900.382856365991	4.044493237087
6	185953	28913.55749097024	6.649367712685
6	185977	28917.849370674834	10.481881126341
6	185999	28921.270436945603	6.196109386281
6	186012	28923.393009098199	8.180119146662
6	186096	28936.922672653663	4.939593251292
6	186211	28952.768875188379	1.980441030834
6	186234	28955.552789015693	10.405258011932
6	186376	28976.90757493353	10.784976542714
6	186389	28979.51651434679	6.888313453228
6	186607	29012.767502292891	4.545955915389
6	186828	29044.090083884196	16.595653636289
6	186898	29053.807470145988	7.768946776597
6	186909	29055.917966975997	5.646352251785
6	187007	29069.713120947832	5.933248907406
6	187034	29073.590529225073	1.516081791207
6	187064	29077.706761084921	6.360863336945
6	187091	29080.537955722078	0.639790221176
6	187094	29081.173827851941	6.24615333991
6	187115	29084.938225368946	16.061305407461
6	187160	29091.655568133802	6.667998795212
6	187187	29095.049340440299	3.33636239737
6	187222	29103.238020684002	9.528045839641
6	187260	29119.73145266906	2.37533248474
6	187301	29129.197610967157	6.411006135187
6	187306	29129.746403438195	3.894178423087
6	187344	29135.609781786071	8.727732080209
6	187377	29139.077158973832	6.020146035196
6	187394	29141.147228863369	2.734489993888
6	187409	29143.657823039171	5.531849262855
6	187412	29144.482052235956	6.653668790268
6	187440	29148.946499323843	8.308722500426
6	187445	29149.660628464024	6.902887173078
6	187690	29185.830578235771	5.203438450374
6	187711	29189.493879019843	5.336601369536
6	187743	29193.230470353135	2.284228094214
6	187812	29203.575645885713	1.160705599171
6	187843	29206.68574726829	1.782606477198
6	187943	29219.664934620733	1.089661823461
6	188084	29240.425971047075	7.307345319917
6	188170	29251.743957118928	21.672876044719
6	188173	29252.169177495414	4.109036635263
6	188176	29253.16450008974	1.568482018375
6	188256	29266.738624305015	0.975421737931
6	188386	29286.091242039067	4.518412272623
6	188427	29292.652974126957	8.91404562737
6	188549	29325.348147145526	0.58385853226
6	188591	29329.910572815739	2.777626492541
6	188621	29334.22637607307	19.004963759926
6	188626	29335.187852357848	5.584900934756
6	188659	29339.870115258227	3.686108791773
6	188700	29358.054072999996	4.550744191747
6	188743	29368.204398850868	1.136023239265
6	188782	29373.114142475793	5.482567104441
6	188819	29378.842648349893	10.965466972026
6	188923	29394.261011206781	7.715242854817
6	189066	29416.784806277153	8.874922368763
6	189085	29418.830175852512	1.714011066018
6	189093	29419.805940025223	4.878603658739
6	189148	29427.585252245625	18.894409941367
6	189359	29458.058661106898	1.190420549566
6	189367	29459.190030411648	11.797469115909
6	189407	29467.619718563439	0.825195661715
6	189477	29478.175112781339	2.975260676187
6	189609	29496.77733431807	0.953436024315
6	189629	29499.687654180585	10.103921534765
6	189819	29529.688468565299	1.848300113798
6	189824	29530.559689425324	16.186242682309
6	189897	29540.370618801303	15.658010927259
6	189917	29543.659217425454	7.42409989499
6	189986	29552.680204555225	23.743598933592
6	189993	29553.459250470968	1.501514170034
6	190031	29559.758938070916	2.767078839406
6	190048	29562.314501254325	10.014849195384
6	190101	29570.216683180739	22.264194891044
6	190128	29573.735578053273	3.497327595645
6	190131	29574.626019206099	55.834496155078
6	190164	29579.362993204562	1.896782048204
6	190203	29583.887489317511	17.130147268998
6	190355	29605.567708978538	6.105694037243
6	190393	29611.083864930613	2.33629869907
6	190439	29617.173689074223	4.126416612911
6	190506	29626.39665590959	8.478023648673
6	190513	29627.201222392277	9.995325003411
6	190603	29639.842009749835	7.632655263485
6	190672	29650.019444521388	22.899936221098
6	190751	29662.532047563289	3.305128573175
6	190786	29666.669295642674	4.143326470593
6	190864	29677.74980009609	3.896556725968
6	191000	29695.800604677118	1.134553535755
6	191137	29716.809043573598	13.853006808254
6	191142	29717.353858330902	22.488202306823
6	191244	29731.482855603109	4.204544331569
6	191255	29734.071603696152	5.128515853219
6	191318	29744.826598327119	4.009431505909
6	191421	29762.085363344383	0.98315378055
6	191500	29775.916534759745	0.420918091852
6	191579	29785.228748612538	9.287191003195
6	191628	29791.985666676531	2.546656593393
6	191676	29798.130091040502	16.022912679381
6	191834	29819.842624497011	12.196516684762
6	191844	29821.361656491801	1.05412711872
6	191981	29839.422683469457	2.756999554692
6	191994	29841.41175513749	34.778730314105
6	192256	29879.147571823809	9.879814692371
6	192337	29891.517697512048	5.751853343367
6	192365	29895.422799568126	6.967177295572
6	192380	29897.801626383529	11.325426527024
6	192512	29917.396899021479	14.439220051183
6	192594	29928.428834696085	6.498211508683
6	192645	29941.609316242632	3.08853075051
6	192682	29950.766849182148	3.902409866614
6	192761	29963.311380407304	1.887700174417
6	192834	29976.142099410376	0.640031258017
6	192937	29990.994508485976	7.788220461285

