version 2
run First_exit_9-10-20191023-00:19:51-5173
attr configname First_exit_9
attr datetime 20191023-00:19:51
attr experiment First_exit_9
attr inifile omnetpp.ini
attr iterationvars ""
attr iterationvarsf ""
attr measurement ""
attr network ResponseTimeNetwork
attr processid 5173
attr repetition 10
attr replication #10
attr resultdir results
attr runnumber 10
attr seedset 10
param **.Source.interArrivalTime exponential(4s)
param **.jobPriority bernoulli(0.4)
param **.PS.serviceTimeU1 "uniform(0.4s, 1.0s)"
param **.PS.serviceTimeU2 "uniform(1s, 1.2s)"
param **.SS1.serviceTime exponential(0.4s)
param **.SS2.serviceTime exponential(0.8s)
param **.PS.exitProbability bernoulli(0.9)

vector 0 ResponseTimeNetwork.SS1 queueLength:vector ETV
attr interpolationmode sample-hold
attr title "queue length, vector"
vector 1 ResponseTimeNetwork.SS2 queueLength:vector ETV
attr interpolationmode sample-hold
attr title "queue length, vector"
vector 2 ResponseTimeNetwork.QueueU1 queueLength:vector ETV
attr interpolationmode sample-hold
attr title "queue length, vector"
vector 3 ResponseTimeNetwork.QueueU2 queueLength:vector ETV
attr interpolationmode sample-hold
attr title "queue length, vector"
vector 4 ResponseTimeNetwork.sink lifeTimeU1:vector ETV
attr interpolationmode none
attr title "lifetime of arrived jobs U1, vector"
attr unit s
vector 5 ResponseTimeNetwork.sink lifeTime:vector ETV
attr interpolationmode none
attr title "lifetime of arrived jobs, vector"
attr unit s
vector 6 ResponseTimeNetwork.sink lifeTimeU2:vector ETV
attr interpolationmode none
attr title "lifetime of arrived jobs U2, vector"
attr unit s
2	0	0	0
2	15	7.783712773789	1
2	16	8.096963855706	0
2	30	9.650732970002	1
2	31	10.396763427294	0
2	50	13.359032113881	1
2	51	14.179647249543	0
2	62	15.072484359	1
2	63	15.74163517682	0
2	72	16.959605643751	1
2	73	17.413352635597	0
2	82	18.353554238842	1
2	83	19.079662175944	0
2	90	19.542240042044	1
2	93	20.279623507058	0
2	100	21.065337890992	1
2	103	21.631885657461	0
2	112	22.531162626314	1
2	113	22.948094711967	0
2	125	24.161254096935	1
2	126	24.295518294025	0
2	130	24.447560918956	1
2	135	25.134559067946	0
2	139	25.912104798003	1
2	140	26.033752927605	0
2	144	26.182049757184	1
2	145	26.886541543204	0
2	149	27.026910553365	1
2	150	27.809977018229	0
2	162	29.440285065286	1
2	164	29.479533281985	2
2	165	29.481934758742	1
2	168	30.387625521236	0
2	172	30.81801723046	1
2	175	31.018094189466	0
2	179	31.290941500324	1
2	180	31.67990640821	0
2	184	32.17292218009	1
2	185	32.432184961765	0
2	189	32.872684675235	1
2	191	32.947813866451	2
2	192	32.983009442921	1
2	196	33.185453824187	2
2	197	33.924708496408	1
2	201	34.230615567518	2
2	202	34.548220466079	1
2	206	34.549184331701	2
2	207	34.971789524659	1
2	211	35.148546833695	2
2	212	35.447972632387	1
2	216	35.481235149207	2
2	217	36.031248584577	1
2	221	36.19186928146	2
2	222	36.827227551677	1
2	226	36.924032327697	2
2	227	37.251203078079	1
2	231	37.475694438754	2
2	232	37.880922145723	1
2	236	37.98281340118	2
2	237	38.662816833007	1
2	241	38.832888383363	2
2	242	39.412627066114	1
2	246	39.518547309363	2
2	247	40.340576169594	1
2	251	40.91686048217	2
2	252	41.054862700264	1
2	256	41.227765978609	2
2	257	41.705368187605	1
2	261	42.077501294402	2
2	262	42.597790433979	1
2	266	42.655598712445	2
2	267	43.356492424384	1
2	271	43.478133912714	2
2	272	43.926381388679	1
2	276	44.208799653431	2
2	277	44.341621258575	1
2	281	44.486045111806	2
2	282	44.941087715048	1
2	286	44.941196741119	2
2	287	45.675634629465	1
2	291	46.00906482378	2
2	292	46.302099029952	1
2	296	46.852766521687	2
2	297	46.877777818171	1
2	301	46.904341045812	2
2	302	47.510607487335	1
2	305	48.430502473143	0
2	314	49.68776244822	1
2	315	49.791995945153	0
2	319	49.853991225742	1
2	320	50.503874138928	0
2	324	50.849103467881	1
2	325	50.959587799943	0
2	336	51.731153565346	1
2	338	51.778966459787	2
2	339	52.079164647171	1
2	344	52.830777833098	0
2	348	52.845897798509	1
2	349	53.750267053209	0
2	353	53.813725218478	1
2	354	54.488181466935	0
2	358	54.630697115446	1
2	359	55.182514274586	0
2	363	55.194359773856	1
2	365	55.252950327059	2
2	366	55.986594428914	1
2	370	56.007312923144	2
2	371	56.508276215708	1
2	374	56.973114482872	0
2	378	57.251758813586	1
2	379	57.48045616704	0
2	383	57.528402706386	1
2	385	57.710284786547	2
2	386	58.029536352632	1
2	390	58.12829029308	2
2	391	58.431286003952	1
2	395	58.57135993333	2
2	398	58.895413751015	1
2	402	59.149203047751	2
2	403	59.735451637534	1
2	406	60.2240237494	0
2	413	61.045597167688	1
2	415	61.140238710172	2
2	417	61.160178762748	3
2	418	61.52148791952	2
2	423	62.491289912396	1
2	427	62.967546562246	2
2	428	63.027353917108	1
2	431	63.656200839345	0
2	438	64.677814973354	1
2	439	64.702680837501	0
2	448	65.428751985549	1
2	449	66.269340924778	0
2	456	67.222137188457	1
2	457	67.752409518835	0
2	466	68.854886613949	1
2	467	68.925710036278	0
2	474	69.625534736045	1
2	477	70.095841874692	0
2	484	70.821226744599	1
2	487	71.271353682081	0
2	496	72.641732520452	1
2	497	72.954948954514	0
2	509	74.789992889185	1
2	512	75.139614595609	0
2	521	75.941621639193	1
2	528	76.604445368793	0
2	537	77.533349711464	1
2	538	77.95217144624	0
2	552	79.836934635169	1
2	553	80.363187714943	0
2	562	81.369758748143	1
2	563	81.465674343144	0
2	570	82.514604994857	1
2	575	83.119204490117	0
2	586	83.886475560347	1
2	590	84.479578787481	2
2	591	84.681130528774	1
2	596	85.355149048658	0
2	600	85.570906592842	1
2	601	85.755741049347	0
2	605	86.310022924326	1
2	606	86.358948529556	0
2	610	86.398725993651	1
2	611	86.988912058619	0
2	615	87.17559632694	1
2	616	87.435163298619	0
2	620	87.527406968176	1
2	621	88.29074118654	0
2	625	88.363245638513	1
2	626	88.867040120202	0
2	630	89.293567948789	1
2	631	89.624636477369	0
2	638	90.670508907082	1
2	639	90.691428806118	0
2	643	90.711258216212	1
2	644	91.562348837822	0
2	648	91.762315712425	1
2	650	92.035235671229	2
2	651	92.216152225619	1
2	655	92.294844632304	2
2	658	92.770533957982	1
2	661	93.668175112407	0
2	665	94.201477863628	1
2	666	94.336800431504	0
2	670	94.71331418429	1
2	671	95.123396399894	0
2	675	95.219302047496	1
2	676	95.790543773069	0
2	680	95.808651569422	1
2	681	96.770111526639	0
2	685	96.922616608705	1
2	686	97.449191524411	0
2	693	98.307141574415	1
2	694	98.450520115947	0
2	698	98.483272584473	1
2	701	98.961296217605	0
2	705	98.989908943263	1
2	706	99.522165636062	0
2	710	99.691533246111	1
2	713	100.470314674122	0
2	717	100.526116886701	1
2	718	101.195973996768	0
2	722	101.314339378791	1
2	724	101.775857245681	2
2	725	101.838055903182	1
2	729	102.615547822372	2
2	730	102.730876767446	1
2	734	102.942213142291	2
2	736	103.236053593234	3
2	737	103.556340346436	2
2	741	104.188892560081	3
2	742	104.321241716898	2
2	746	104.657599181296	3
2	747	105.044130229621	2
2	751	105.339757897932	3
2	753	105.37169287027	4
2	755	105.862516697806	5
2	756	106.036378276764	4
2	760	106.241889158881	5
2	761	106.743103465481	4
2	764	107.17442945996	3
2	768	107.632474689705	4
2	769	107.700212800314	3
2	775	107.834439867704	4
2	779	108.046256876327	5
2	780	108.576176740739	4
2	784	108.658643392095	5
2	786	109.090367958505	6
2	787	109.317739578427	5
2	790	109.992088831446	4
2	793	110.973432883245	3
2	797	111.11867581751	4
2	799	111.302239055717	5
2	800	111.561776773536	4
2	803	112.123617329073	3
2	807	112.463256175852	4
2	808	112.553389429205	3
2	811	113.126341314145	2
2	815	113.151887995629	3
2	817	113.255314657821	4
2	819	113.622884232453	5
2	820	113.691218395295	4
2	824	113.731559878431	5
2	825	114.238327127366	4
2	829	114.672913143464	5
2	830	114.796369026878	4
2	834	114.848565568863	5
2	835	115.427274954829	4
2	839	116.114117151933	5
2	840	116.412162454098	4
2	844	116.868654779751	5
2	845	116.975935235431	4
2	850	117.403978771854	3
2	854	117.807740803127	4
2	856	117.809990750254	5
2	857	118.319168183205	4
2	861	118.435821695355	5
2	862	119.297508498558	4
2	866	119.662962650841	5
2	867	119.944061777179	4
2	870	120.612085475118	3
2	873	121.080461657138	2
2	877	121.24354164926	3
2	879	121.243584179808	4
2	880	121.703679001655	3
2	884	122.035485334457	4
2	885	122.296364217249	3
2	888	122.697786812435	2
2	892	122.702847413747	3
2	894	123.016483408052	4
2	895	123.287259710997	3
2	899	123.452107377299	4
2	900	123.883082685059	3
2	904	124.102737613968	4
2	905	124.847506906556	3
2	909	125.041389361908	4
2	911	125.66829303318	5
2	912	125.768637397883	4
2	916	126.109605504336	5
2	917	126.203930820243	4
2	921	126.411863435324	5
2	922	126.64669488929	4
2	926	126.792032459817	5
2	927	127.098876532677	4
2	933	127.711801156695	5
2	934	127.756141756147	4
2	938	127.865614386275	5
2	939	128.683221463065	4
2	943	129.138716518529	5
2	944	129.212814089095	4
2	948	129.533975827619	5
2	950	129.557293747306	6
2	951	129.653777737913	5
2	955	129.795012634474	6
2	956	130.421121684646	5
2	960	130.470895955014	6
2	961	130.934539355941	5
2	964	131.421550525118	4
2	968	131.584375288935	5
2	970	132.15072394193	6
2	971	132.399067518253	5
2	975	132.477370686315	6
2	980	133.341077541046	5
2	984	133.397689447797	6
2	985	134.158862504082	5
2	989	134.250507843206	6
2	990	134.928910025021	5
2	994	135.514947505792	6
2	996	135.790044126116	7
2	997	135.804871621028	6
2	1000	136.606682930932	5
2	1004	137.127490276251	6
2	1005	137.250733716505	5
2	1009	137.427347009743	6
2	1010	137.68967790529	5
2	1014	137.859070553293	6
2	1015	138.424041074141	5
2	1019	138.873657795669	6
2	1020	139.304552161413	5
2	1023	139.790503668877	4
2	1026	140.61044006124	3
2	1030	140.746287949872	4
2	1032	140.746335087107	5
2	1033	141.045209946575	4
2	1037	141.123061017055	5
2	1038	141.83420883729	4
2	1043	142.322118246135	3
2	1046	143.082982471677	2
2	1050	143.263645232729	3
2	1052	143.333552350187	4
2	1054	143.469836362808	5
2	1055	143.541345968562	4
2	1059	143.902179112356	5
2	1060	144.047326996037	4
2	1064	144.222299332729	5
2	1066	144.722382212248	6
2	1067	144.950473202718	5
2	1071	145.069698135729	6
2	1073	145.13038021402	7
2	1074	145.461216247547	6
2	1078	145.512707008958	7
2	1082	146.181862389402	8
2	1083	146.393389297276	7
2	1087	146.838959630097	8
2	1088	147.096424766629	7
2	1091	147.662068762722	6
2	1095	148.058106162079	7
2	1097	148.364796714499	8
2	1098	148.567088278102	7
2	1104	148.734899563235	8
2	1107	149.46394196404	7
2	1110	150.359308899286	6
2	1114	150.812362255447	7
2	1115	151.264951997109	6
2	1119	151.363265379522	7
2	1120	151.796459099416	6
2	1123	152.736673537361	5
2	1127	152.7931221394	6
2	1128	153.272161173214	5
2	1132	153.328812005535	6
2	1134	153.598281068034	7
2	1135	153.76407932965	6
2	1138	154.169159477389	5
2	1142	154.225822660795	6
2	1143	154.621655308174	5
2	1147	154.671372726972	6
2	1148	155.519408717796	5
2	1152	155.524856926596	6
2	1153	156.359085882686	5
2	1157	156.39554988301	6
2	1158	156.826198791617	5
2	1162	156.966172052412	6
2	1163	157.69012576658	5
2	1167	157.746507762981	6
2	1168	158.489036391207	5
2	1172	158.641300917499	6
2	1173	159.341870533253	5
2	1177	159.469141438144	6
2	1178	159.839105519603	5
2	1182	159.865590036221	6
2	1183	160.525116502211	5
2	1187	160.850448358585	6
2	1188	161.351567848675	5
2	1192	161.622072813193	6
2	1193	162.167810264366	5
2	1197	162.674486112401	6
2	1198	162.87238788921	5
2	1204	163.215625012208	6
2	1205	163.294781096974	5
2	1209	163.554219529962	6
2	1210	164.086103074481	5
2	1214	164.112473417989	6
2	1219	164.85462081525	5
2	1223	165.009807799631	6
2	1224	165.803373785359	5
2	1227	166.225771925314	4
2	1231	166.267760801453	5
2	1232	166.961247104634	4
2	1236	167.607415165808	5
2	1238	167.732143976845	6
2	1239	167.864342162846	5
2	1243	167.971866381584	6
2	1244	168.417506857118	5
2	1248	168.58426613689	6
2	1250	168.656340978548	7
2	1251	168.908518714127	6
2	1255	169.811006593515	7
2	1256	169.862773181586	6
2	1260	170.511818934221	7
2	1261	170.603684192891	6
2	1265	170.724391804231	7
2	1266	171.155591680337	6
2	1270	171.357704431807	7
2	1271	171.576025144238	6
2	1277	171.951030297342	7
2	1279	172.346426885942	8
2	1280	172.378779284557	7
2	1284	172.462730556795	8
2	1285	173.092009023757	7
2	1289	173.325919653275	8
2	1290	174.029700728313	7
2	1294	174.47178051788	8
2	1295	174.820897639024	7
2	1299	175.442411657983	8
2	1300	175.483496007224	7
2	1304	175.821082487894	8
2	1305	176.068959102354	7
2	1309	176.127251484618	8
2	1311	176.554465730857	9
2	1312	176.785929174063	8
2	1316	176.797959064792	9
2	1317	177.656772321643	8
2	1321	177.881568034382	9
2	1322	178.496754393907	8
2	1326	178.552477804318	9
2	1327	179.219166811596	8
2	1331	179.334465801061	9
2	1332	179.825710979098	8
2	1336	180.035671782499	9
2	1337	180.280880551779	8
2	1341	180.35744159059	9
2	1342	181.032585023617	8
2	1345	181.919145558256	7
2	1351	182.242369177028	8
2	1353	182.510259658107	9
2	1354	182.86538683059	8
2	1358	182.891097303038	9
2	1359	183.656458652712	8
2	1362	184.439211076492	7
2	1366	184.719340015083	8
2	1367	185.105041968677	7
2	1371	185.747960152846	8
2	1372	185.958034531766	7
2	1375	186.610343986837	6
2	1379	187.344109964247	7
2	1380	187.599546337448	6
2	1384	188.10163586361	7
2	1385	188.588100742217	6
2	1389	189.120466019076	7
2	1390	189.160988093069	6
2	1393	189.652274851915	5
2	1397	189.897532692852	6
2	1399	189.973536976091	7
2	1400	190.485756156588	6
2	1404	190.534409530726	7
2	1405	191.364202234469	6
2	1409	192.035407650567	7
2	1410	192.153545327618	6
2	1416	192.432203443058	7
2	1417	193.096174545068	6
2	1421	193.395120405891	7
2	1424	193.717179688386	6
2	1428	194.291485819338	7
2	1429	194.564758593536	6
2	1433	194.838976072602	7
2	1434	195.027733040175	6
2	1438	195.313588686363	7
2	1439	195.458846796483	6
2	1442	195.95068688513	5
2	1446	196.035200270512	6
2	1448	196.079512302327	7
2	1449	196.351742677337	6
2	1452	197.274094286368	5
2	1456	197.663320337	6
2	1457	197.838534839817	5
2	1461	197.969431008755	6
2	1463	197.989763882008	7
2	1466	198.82031492674	6
2	1469	199.45996416541	5
2	1472	200.082867566302	4
2	1476	200.224199959938	5
2	1477	200.719782546574	4
2	1481	201.125191550162	5
2	1482	201.337462617263	4
2	1485	201.832958868604	3
2	1489	202.125612308235	4
2	1492	202.545003442738	3
2	1496	202.989764286686	4
2	1497	203.032886019155	3
2	1501	203.171670815591	4
2	1502	203.479920626517	3
2	1508	204.131407228677	4
2	1510	204.174454436288	5
2	1511	204.382822955299	4
2	1515	204.467140784415	5
2	1516	204.995093691295	4
2	1520	205.102953750925	5
2	1521	205.822306637179	4
2	1525	205.884043937695	5
2	1526	206.338993539747	4
2	1530	206.721638545116	5
2	1531	207.288762492493	4
2	1534	207.832905344425	3
2	1538	208.196586797232	4
2	1540	208.315511446882	5
2	1541	208.570613568781	4
2	1545	208.870201753558	5
2	1546	209.37541367355	4
2	1550	209.492770933184	5
2	1551	209.952459212246	4
2	1555	210.033471473303	5
2	1556	210.779004817682	4
2	1559	211.624997555784	3
2	1563	211.636658708472	4
2	1564	212.047973595274	3
2	1568	212.275411753624	4
2	1569	212.957650823885	3
2	1573	213.030652778139	4
2	1574	213.36572595904	3
2	1578	213.650523748761	4
2	1579	213.789136863122	3
2	1582	214.206929826219	2
2	1585	214.613786938968	1
2	1589	215.178155242517	2
2	1590	215.212893338636	1
2	1593	215.97179744299	0
2	1597	216.342880354946	1
2	1599	216.726758553831	2
2	1600	216.903349592765	1
2	1604	216.93926089571	2
2	1606	217.28837795241	3
2	1607	217.326312913275	2
2	1610	217.775461635268	1
2	1614	217.90195563552	2
2	1616	218.336958088143	3
2	1617	218.661082034274	2
2	1620	219.071227921122	1
2	1624	219.54563124106	2
2	1626	219.800902921695	3
2	1627	219.988004518063	2
2	1630	220.771090060328	1
2	1635	221.343224477111	0
2	1639	221.456796097255	1
2	1640	222.113451206493	0
2	1647	222.938872400637	1
2	1649	223.675667539685	2
2	1650	223.758865752439	1
2	1653	224.290953349178	0
2	1657	224.335239156762	1
2	1659	224.378637629773	2
2	1660	225.17763593257	1
2	1664	225.577687634596	2
2	1669	225.943893002249	1
2	1673	226.352141660946	2
2	1674	226.388082426503	1
2	1678	226.541107939059	2
2	1679	226.802925696173	1
2	1683	227.271432937502	2
2	1684	227.621202189517	1
2	1688	227.723830540309	2
2	1689	228.437560591888	1
2	1693	228.571898311627	2
2	1697	229.180863487296	3
2	1698	229.324708981388	2
2	1702	229.515592779567	3
2	1703	229.918398664421	2
2	1706	230.701203721664	1
2	1710	231.282769138871	2
2	1712	231.45348335279	3
2	1713	231.590580235184	2
2	1717	231.634512461122	3
2	1718	232.29010230591	2
2	1722	232.488317593562	3
2	1725	232.745810890146	2
2	1728	233.195874703624	1
2	1732	233.288646100531	2
2	1734	233.326441224135	3
2	1735	233.668281351165	2
2	1739	233.691410962249	3
2	1740	234.22907895138	2
2	1744	234.400860494554	3
2	1745	235.220430464432	2
2	1749	235.514163735037	3
2	1750	235.901252743177	2
2	1754	236.255452569882	3
2	1755	236.861261732079	2
2	1759	237.286480496352	3
2	1760	237.624539911648	2
2	1764	237.798689499503	3
2	1765	238.331269316043	2
2	1768	239.204196450341	1
2	1772	239.367261497643	2
2	1773	240.004532245913	1
2	1777	240.202500467703	2
2	1778	240.947420631809	1
2	1782	240.949113775546	2
2	1783	241.392040776502	1
2	1786	241.871415597567	0
2	1790	242.162310701654	1
2	1792	242.529260887991	2
2	1793	242.836705548683	1
2	1797	242.941894901047	2
2	1798	243.364693379583	1
2	1802	243.482797692384	2
2	1803	244.32468211655	1
2	1807	244.552876930966	2
2	1808	244.965760844382	1
2	1811	245.804377428065	0
2	1818	246.708827446869	1
2	1820	247.234977405423	2
2	1821	247.556373080653	1
2	1828	248.475232060714	0
2	1834	249.037003132831	1
2	1835	249.340402647754	0
2	1839	249.594744454355	1
2	1840	250.17415243694	0
2	1844	250.360473314876	1
2	1846	250.967896753289	2
2	1847	250.998537502619	1
2	1850	251.755102843926	0
2	1854	251.95442089055	1
2	1856	251.970001305593	2
2	1857	252.323655727408	1
2	1861	252.410024985863	2
2	1862	252.902952044173	1
2	1866	253.469713985767	2
2	1867	253.678616175609	1
2	1871	253.906743921319	2
2	1872	254.081260764826	1
2	1876	254.141487738832	2
2	1878	254.185088075387	3
2	1879	254.921242585074	2
2	1883	255.316815157481	3
2	1885	255.587653397044	4
2	1886	255.650571810448	3
2	1891	256.517667113378	2
2	1895	256.925595381176	3
2	1896	257.475635223131	2
2	1902	257.665482849347	3
2	1903	258.430444788275	2
2	1907	258.497724029465	3
2	1910	258.949699968001	2
2	1914	259.460169341536	3
2	1915	259.847498707235	2
2	1918	260.365483763063	1
2	1921	261.205316333187	0
2	1925	261.666256925418	1
2	1927	261.767112684899	2
2	1928	262.020727701619	1
2	1932	262.116399628765	2
2	1933	262.472188259516	1
2	1937	262.770420970447	2
2	1938	263.252153938957	1
2	1942	263.396702056261	2
2	1945	263.852875339142	1
2	1949	264.099403693463	2
2	1950	264.74119031019	1
2	1953	265.300319412811	0
2	1963	266.940274620471	1
2	1966	267.276844908897	0
2	1972	267.941223243442	1
2	1973	268.271406957967	0
2	1980	269.163849597711	1
2	1981	269.486830097943	0
2	1990	270.440865807669	1
2	1991	270.69180019623	0
2	2003	271.934030428296	1
2	2006	272.559064924617	0
2	2016	273.816384919292	1
2	2021	274.547194008941	0
2	2030	275.45428218924	1
2	2031	275.582708143528	0
2	2043	277.316760715045	1
2	2046	277.761857579826	0
2	2053	278.850846320335	1
2	2054	279.156081616637	0
2	2065	280.083178617117	1
2	2066	280.594211689468	0
2	2075	281.56571518496	1
2	2076	282.12548281368	0
2	2085	283.013426183877	1
2	2086	283.487287896771	0
2	2093	284.231708098596	1
2	2094	284.508176145509	0
2	2106	285.992525522001	1
2	2107	286.386476520162	0
2	2118	287.428408808253	1
2	2119	287.721032756047	0
2	2135	289.236660005724	1
2	2136	290.025434257641	0
2	2143	290.664228476929	1
2	2148	291.479854758914	0
2	2157	292.45797866326	1
2	2158	292.941155098371	0
2	2344	320.986232656212	1
2	2347	321.596448177933	0
2	2356	322.307884360509	1
2	2358	322.455271748821	2
2	2359	322.995909321443	1
2	2368	323.791531613418	0
2	2372	323.891062299493	1
2	2375	324.761357465941	0
2	2384	325.592198987176	1
2	2390	326.008403311465	2
2	2391	326.159685147735	1
2	2396	326.565954738105	0
2	2400	326.661896820775	1
2	2401	327.428145485785	0
2	2405	328.144209655653	1
2	2406	328.168254685769	0
2	2410	328.234108885142	1
2	2415	328.913588410098	0
2	2424	330.165170157984	1
2	2425	330.561747889076	0
2	2434	332.010710171901	1
2	2435	332.40480647352	0
2	2442	332.938995558583	1
2	2445	333.639440092765	0
2	2667	368.354851724128	1
2	2670	369.044528729092	0
2	2685	370.440198289829	1
2	2687	370.452071043832	2
2	2688	370.763740014839	1
2	2693	371.308787531308	0
2	2702	371.842142506532	1
2	2705	372.146414699587	0
2	2714	372.766492813622	1
2	2716	372.834097384108	2
2	2717	373.474669915758	1
2	2722	374.195180254145	0
2	2728	374.372172000339	1
2	2729	375.099159342185	0
2	2736	375.805692503122	1
2	2738	375.829729209903	2
2	2739	376.763642321801	1
2	2744	377.305486566428	0
2	2748	377.582011313942	1
2	2749	377.99226733562	0
2	2758	378.816798350995	1
2	2761	379.452747726994	0
2	2768	380.313287817582	1
2	2769	380.453268611938	0
2	2778	381.859465743855	1
2	2779	382.137595090032	0
2	2791	384.066561544826	1
2	2793	384.146343243922	2
2	2794	384.601748178103	1
2	2799	385.243490331336	0
2	2808	386.458316339459	1
2	2809	386.809791580955	0
2	2816	387.507591830377	1
2	2817	387.908264125087	0
2	3140	432.716911849046	1
2	3147	433.109729804609	0
2	3154	434.133958285575	1
2	3157	434.292062301885	0
2	3166	434.782800557033	1
2	3169	435.533443472905	0
2	3188	437.284306791295	1
2	3189	437.404136767842	0
2	3201	439.001730620787	1
2	3203	439.335864888802	2
2	3204	439.447644323109	1
2	3209	440.195565406697	0
2	3213	440.526965845868	1
2	3214	440.602713441614	0
2	3218	441.126807241689	1
2	3219	441.298852794988	0
2	3223	441.884349440086	1
2	3224	442.08885434293	0
2	3231	442.786778997401	1
2	3233	442.8550177905	2
2	3234	443.323193568921	1
2	3239	444.199207356105	0
2	3243	444.27197428049	1
2	3244	444.743532202345	0
2	3248	445.1180860185	1
2	3249	445.672719449269	0
2	3253	445.705522582628	1
2	3254	446.362929403687	0
2	3258	446.597780733454	1
2	3259	447.171068092294	0
2	3263	447.339704492205	1
2	3264	447.788918531032	0
2	3268	447.885263120222	1
2	3271	448.541210231043	0
2	3275	448.756663146758	1
2	3276	449.3667222911	0
2	3280	449.842083233142	1
2	3282	450.062926583995	2
2	3283	450.270640316696	1
2	3287	451.18967768882	2
2	3288	451.236803423657	1
2	3292	451.859279103501	2
2	3293	451.931775551193	1
2	3297	452.056142973097	2
2	3299	452.351757770522	3
2	3300	452.717847849845	2
2	3304	452.773738725338	3
2	3306	453.005388675724	4
2	3307	453.643618513315	3
2	3311	454.085527222339	4
2	3312	454.302109706073	3
2	3316	454.35282801519	4
2	3317	454.942602209325	3
2	3323	455.286864761479	4
2	3324	455.625219839622	3
2	3328	456.228977507217	4
2	3329	456.436424146869	3
2	3333	456.787463251582	4
2	3334	456.839074999324	3
2	3338	457.344848598951	4
2	3339	457.450403137921	3
2	3343	457.612291003002	4
2	3344	458.127442799831	3
2	3348	458.159835243871	4
2	3353	458.587351149643	3
2	3357	459.016918159388	4
2	3358	459.46824214989	3
2	3362	459.862379133893	4
2	3363	460.047479659642	3
2	3367	460.185239291407	4
2	3368	460.594886559897	3
2	3372	460.96569578752	4
2	3373	461.51875306172	3
2	3376	462.14246117002	2
2	3379	462.580914461609	1
2	3382	463.149425304957	0
2	3386	463.477599578649	1
2	3387	463.683512726702	0
2	3391	464.110936552421	1
2	3393	464.343153342393	2
2	3394	464.61597175216	1
2	3398	465.13801236493	2
2	3399	465.526193078744	1
2	3402	465.937412912163	0
2	3406	466.349268478478	1
2	3408	466.374106806421	2
2	3409	466.556478644299	1
2	3413	467.036964284224	2
2	3415	467.399123899308	3
2	3416	467.552792443239	2
2	3420	467.997230694458	3
2	3421	468.232154172842	2
2	3426	469.000196452948	1
2	3430	469.120954003612	2
2	3432	469.151344064299	3
2	3434	469.518667758982	4
2	3437	469.967900291734	3
2	3441	470.286549443173	4
2	3442	470.6351327721	3
2	3446	470.657472005261	4
2	3447	471.223350882714	3
2	3451	471.380685142396	4
2	3452	471.743040132986	3
2	3455	472.598200441895	2
2	3459	472.638998335896	3
2	3461	472.92974823802	4
2	3462	473.433498298608	3
2	3465	474.093466472112	2
2	3468	474.714654570304	1
2	3474	475.171352473514	2
2	3475	475.558517228764	1
2	3479	475.635328875101	2
2	3481	475.73895698088	3
2	3482	476.172489371382	2
2	3485	476.675407670437	1
2	3489	476.682393483947	2
2	3491	476.868770190995	3
2	3494	477.366370046231	2
2	3497	477.801134624285	1
2	3501	477.925693037114	2
2	3505	478.476723170537	3
2	3506	478.618964699841	2
2	3510	478.686605296685	3
2	3513	479.28770326753	2
2	3517	479.469760179592	3
2	3518	480.276874642538	2
2	3521	480.818366865672	1
2	3525	480.821184969792	2
2	3527	480.934057958894	3
2	3528	481.354815976785	2
2	3532	482.093402196191	3
2	3533	482.235632273459	2
2	3537	482.317133021778	3
2	3538	482.721611694756	2
2	3542	482.901799962375	3
2	3543	483.647559910824	2
2	3547	483.790746729963	3
2	3548	484.30837216391	2
2	3551	485.050663026606	1
2	3555	485.06266286189	2
2	3557	485.302077999229	3
2	3560	485.799846108814	2
2	3564	485.847199347125	3
2	3565	486.707918109649	2
2	3569	486.843002087669	3
2	3570	487.538436291411	2
2	3575	488.498505579026	1
2	3578	489.04515880998	0
2	3587	490.001241054814	1
2	3589	490.521793984934	2
2	3590	490.534207089383	1
2	3593	491.439431363622	0
2	3597	491.775234479691	1
2	3600	492.347227765665	0
2	3607	492.991518098387	1
2	3611	493.182790408842	2
2	3612	493.826591551116	1
2	3617	494.762451471759	0
2	3621	494.767924462013	1
2	3622	495.34709942024	0
2	3626	495.382541402588	1
2	3627	495.749576494189	0
2	3631	495.766896719865	1
2	3632	496.243093349317	0
2	3639	496.849274069018	1
2	3641	496.989678457568	2
2	3644	497.430833437152	1
2	3647	498.26945211645	0
2	3651	498.285296825769	1
2	3652	499.156592228401	0
2	3656	499.636179704587	1
2	3659	500.079326306887	0
2	3663	500.228144893261	1
2	3664	500.500506421922	0
2	3668	500.609141765717	1
2	3669	501.159694999362	0
2	3673	501.308664023648	1
2	3674	501.972128620836	0
2	3678	502.069025053169	1
2	3680	502.345253281285	2
2	3681	502.780602910788	1
2	3685	503.297659398154	2
2	3686	503.731699803285	1
2	3689	504.491153215104	0
2	3696	505.378388348793	1
2	3698	505.467515147139	2
2	3699	505.941750861937	1
2	3703	506.480163282261	2
2	3704	506.779192181537	1
2	3708	506.824466582175	2
2	3711	507.756840517977	1
2	3715	508.039933631997	2
2	3716	508.620494646067	1
2	3720	508.644422735194	2
2	3721	509.298037374858	1
2	3725	509.329354445228	2
2	3727	509.949450757567	3
2	3728	510.080233776011	2
2	3732	510.213883382185	3
2	3733	510.760896115331	2
2	3736	511.331461226381	1
2	3740	512.215136224278	2
2	3741	512.262615346117	1
2	3745	512.485878820642	2
2	3746	512.891391632799	1
2	3749	513.603708653152	0
2	3753	513.767327746739	1
2	3754	514.445521804411	0
2	3761	515.249883228832	1
2	3763	515.302860883048	2
2	3764	515.764069055487	1
2	3771	516.51784967417	0
2	3775	516.673787290135	1
2	3776	517.388184258017	0
2	3782	517.512893128044	1
2	3783	518.318477093756	0
2	3790	519.273090453495	1
2	3791	519.825109640697	0
2	3800	521.725560851193	1
2	3801	521.787549594699	0
2	3810	522.674395167935	1
2	3813	523.164984986235	0
2	3822	523.859173635228	1
2	3823	524.568542331599	0
2	3832	525.254186106866	1
2	3833	525.89173627482	0
2	3840	526.540239833592	1
2	3841	527.275132048877	0
2	3845	527.312061839845	1
2	3846	528.22356197918	0
2	3853	529.120490993884	1
2	3854	529.607671389171	0
2	3863	530.156512247541	1
2	3864	530.499368657313	0
2	3877	531.162467259831	1
2	3878	531.646834782513	0
2	3898	535.169231925637	1
2	3899	535.437109090949	0
2	3916	536.764878466458	1
2	3917	537.571307690444	0
2	3926	538.410524369835	1
2	3927	538.77635563873	0
2	3934	539.918615649846	1
2	3935	540.077224652751	0
2	3942	541.191786122078	1
2	3943	541.390542074715	0
2	3955	543.14688406056	1
2	3959	543.299058878694	2
2	3960	543.30918229474	1
2	3963	544.033033593514	0
2	3967	544.288452101854	1
2	3970	544.79128896301	0
2	3974	545.219326110703	1
2	3975	545.255641009662	0
2	3982	546.33332779871	1
2	3985	547.066265299128	0
2	3995	547.853719667581	1
2	3996	548.041380307035	0
2	4000	548.226126531605	1
2	4001	548.910652455737	0
2	4008	550.391004329395	1
2	4009	550.476508237377	0
2	4018	551.765307818795	1
2	4019	552.04475102844	0
2	4028	553.147514160515	1
2	4029	553.57845171071	0
2	4033	553.894883946812	1
2	4036	554.355906286513	0
2	4043	555.107550008702	1
2	4045	555.319000995569	2
2	4046	556.065403408327	1
2	4049	556.894704634559	0
2	4055	556.946471801813	1
2	4056	557.64211846241	0
2	4060	557.935215997433	1
2	4061	558.139741350526	0
2	4065	558.585720159653	1
2	4067	558.876293858839	2
2	4068	559.104374602299	1
2	4071	559.707117951803	0
2	4075	559.96316305574	1
2	4077	560.072026660134	2
2	4078	560.268936191501	1
2	4082	560.738537065187	2
2	4083	561.215522163596	1
2	4087	561.259330739853	2
2	4088	561.723228630984	1
2	4091	562.393931924879	0
2	4147	570.698580298971	1
2	4150	571.202930033441	0
2	4164	572.830939442151	1
2	4165	573.071772964952	0
2	4169	573.525972417287	1
2	4170	573.846231365764	0
2	4174	574.102550192441	1
2	4175	574.46942211101	0
2	4179	574.654576200409	1
2	4180	575.087487708593	0
2	4188	575.605302380427	1
2	4189	575.740845632183	0
2	4193	576.017476586119	1
2	4194	576.150288685693	0
2	4198	576.269628254856	1
2	4199	576.964526949499	0
2	4203	576.976847188757	1
2	4204	577.481114045952	0
2	4208	577.746823721778	1
2	4209	578.334671800353	0
2	4213	578.426337471639	1
2	4214	579.090795590964	0
2	4218	579.699828889048	1
2	4219	580.016410659768	0
2	4226	580.81401216729	1
2	4228	581.135163624051	2
2	4229	581.554990200049	1
2	4232	582.074632249449	0
2	4236	582.48672202477	1
2	4237	582.596387211795	0
2	4246	583.645877131584	1
2	4249	584.079472853106	0
2	4258	584.783213414312	1
2	4260	585.288070969868	2
2	4261	585.60113212974	1
2	4266	586.414700512543	0
2	4270	586.432126331743	1
2	4271	587.174487427437	0
2	4278	588.117484236462	1
2	4280	588.123142597461	2
2	4281	588.853781878018	1
2	4287	589.115863688806	2
2	4290	589.363552786085	1
2	4294	589.715635690203	2
2	4295	589.901989388793	1
2	4298	590.423446343468	0
2	4302	590.533715703164	1
2	4303	591.203542805185	0
2	4307	591.262639502948	1
2	4309	591.414794450309	2
2	4310	591.894995920315	1
2	4314	592.023282230659	2
2	4315	592.535675622897	1
2	4318	593.444598382294	0
2	4325	594.077281097779	1
2	4327	594.136823422048	2
2	4328	594.360670959252	1
2	4334	594.554616647114	2
2	4335	595.035640708777	1
2	4339	595.199871194702	2
2	4340	595.858283148567	1
2	4344	595.899439943506	2
2	4345	596.557574498328	1
2	4349	596.703459180052	2
2	4350	597.004187437986	1
2	4354	597.401776833095	2
2	4355	597.42926695617	1
2	4359	597.763723192622	2
2	4362	598.357544156817	1
2	4366	598.435869435546	2
2	4367	598.927452995583	1
2	4371	599.300199240492	2
2	4372	599.858394772933	1
2	4376	600.363803090719	2
2	4377	600.411588286284	1
2	4380	600.828570354312	0
2	4384	601.259194373964	1
2	4386	601.419553318319	2
2	4387	601.577060625564	1
2	4391	601.617686239025	2
2	4392	602.042774204539	1
2	4396	602.100103524613	2
2	4397	602.479915586628	1
2	4401	602.48817252304	2
2	4403	602.656955848092	3
2	4404	603.166869379954	2
2	4408	603.255336027005	3
2	4409	603.754619246443	2
2	4412	604.696647040966	1
2	4416	604.754471542572	2
2	4417	605.261172096013	1
2	4421	605.368835269553	2
2	4423	605.541690142676	3
2	4424	606.24484809693	2
2	4427	606.669109860575	1
2	4431	607.189970427269	2
2	4432	607.366203183634	1
2	4436	607.455049604313	2
2	4437	608.211068596132	1
2	4441	608.419567561805	2
2	4444	608.906701266533	1
2	4448	609.12001771361	2
2	4449	609.329065622809	1
2	4455	609.646159415223	2
2	4456	610.115155864182	1
2	4459	610.681000218914	0
2	4463	610.886084716856	1
2	4465	611.052825597479	2
2	4466	611.675401755936	1
2	4469	612.078776758585	0
2	4473	612.498947472186	1
2	4475	612.679012747726	2
2	4476	612.929629317021	1
2	4480	613.214560983537	2
2	4481	613.572573895615	1
2	4485	614.174839039108	2
2	4486	614.56111812629	1
2	4489	615.041901875848	0
2	4496	615.52421421033	1
2	4498	615.828433462057	2
2	4500	615.877769135115	3
2	4501	616.382006615775	2
2	4504	616.892005158032	1
2	4510	617.643489919445	2
2	4511	617.854305939332	1
2	4515	618.117446482694	2
2	4516	618.507755458823	1
2	4520	618.570901959113	2
2	4521	619.317169746386	1
2	4524	619.945848636052	0
2	4528	620.350384085326	1
2	4529	620.358598801589	0
2	4533	620.379242899122	1
2	4534	620.982913845035	0
2	4538	620.998639981901	1
2	4539	621.394720586578	0
2	4543	621.412859876021	1
2	4544	622.316721501809	0
2	4553	623.26780644075	1
2	4556	623.879002221396	0
2	4686	644.081136872356	1
2	4687	644.373713397424	0
2	4696	645.405794805877	1
2	4697	645.882081247124	0
2	4710	646.750725157148	1
2	4714	646.897428460483	2
2	4717	647.246745360227	1
2	4720	647.821999819627	0
2	4731	648.806988994975	1
2	4734	649.203205792143	0
2	4750	650.859616548398	1
2	4752	651.444992796136	2
2	4753	651.511328564401	1
2	4756	652.206032206307	0
2	4766	653.438746446123	1
2	4768	653.547158813421	2
2	4769	654.045156992974	1
2	4778	654.809533898814	0
2	4782	654.916665379239	1
2	4785	655.500943705768	0
2	4789	655.737437561173	1
2	4790	656.363313808993	0
2	4796	656.592286550792	1
2	4797	657.151387431475	0
2	4804	658.054184477656	1
2	4805	658.224308847126	0
2	4812	659.490532517983	1
2	4813	659.513898618196	0
2	4837	662.083590545718	1
2	4840	662.529986646215	0
2	4847	663.114863668969	1
2	4850	663.917600156369	0
2	4859	664.644410742166	1
2	4860	665.162793660865	0
2	4869	665.598905719192	1
2	4872	665.99910449805	0
2	4883	666.532973144197	1
2	4884	667.259393584824	0
2	4891	668.051816855111	1
2	4892	668.647382715999	0
2	4901	669.681055781347	1
2	4904	670.144375141107	0
2	4913	671.071851247084	1
2	4914	671.554681891345	0
2	4931	673.826706615655	1
2	4934	674.214068561609	0
2	4952	675.805140403694	1
2	4955	676.193170975758	0
2	4964	676.941369342002	1
2	4965	677.561067245299	0
2	4974	678.537970772629	1
2	4975	678.746856849318	0
2	4982	679.644307107438	1
2	4983	680.436742485271	0
2	4990	681.004850953602	1
2	4993	681.312676022391	0
2	5005	682.443038106093	1
2	5008	682.727465742271	0
2	5017	683.907706455284	1
2	5022	684.340371008314	0
2	5034	685.898135195178	1
2	5037	686.374210141369	0
2	5046	687.360888537179	1
2	5047	688.06511860532	0
2	5056	689.274610757345	1
2	5057	689.313854232107	0
2	5064	690.059191224607	1
2	5067	690.86592825372	0
2	5076	692.178104539598	1
2	5079	692.576472112353	0
2	5088	694.199265103389	1
2	5089	694.245267284431	0
2	5093	694.781319061528	1
2	5094	694.928178143317	0
2	5098	695.225134770946	1
2	5099	695.567387848396	0
2	5110	696.867830452979	1
2	5111	697.485782186736	0
2	5118	698.449418548521	1
2	5119	699.118411876822	0
2	5131	700.957309723985	1
2	5132	701.102790167185	0
2	5141	701.988246897189	1
2	5142	702.312798841347	0
2	5161	704.486850189639	1
2	5162	704.88838380948	0
2	5174	706.193400873272	1
2	5177	706.628516994374	0
2	5184	707.472929072589	1
2	5185	708.143230142169	0
2	5192	708.865232209143	1
2	5193	709.011409345692	0
2	5207	711.00509824065	1
2	5208	711.092117317071	0
2	5212	711.644391824245	1
2	5213	711.788240040749	0
2	5217	711.793660861835	1
2	5222	712.717713181678	0
2	5226	713.345797503202	1
2	5227	713.554498089015	0
2	5657	778.504269008981	1
2	5660	779.171477331688	0
2	5675	780.125862775146	1
2	5678	780.599545768789	0
2	5687	781.270681977383	1
2	5688	781.70175818177	0
2	5695	782.552192737569	1
2	5696	783.287409134628	0
2	5707	784.213905390057	1
2	5708	784.534626463195	0
2	5715	785.152419703269	1
2	5716	785.917469688784	0
2	5732	787.522254389689	1
2	5733	787.690072155976	0
2	5748	789.389249950044	1
2	5749	790.180238044495	0
2	5758	791.117465098151	1
2	5761	791.857671025256	0
2	5885	811.963008740897	1
2	5886	812.352387871827	0
2	5893	812.84597425324	1
2	5894	813.429373171926	0
2	5939	819.968430454848	1
2	5940	820.036588494342	0
2	5951	821.263410239857	1
2	5952	821.343694936113	0
2	5966	822.600485664916	1
2	5967	823.025230092743	0
2	5981	825.010414232429	1
2	5984	825.546470725584	0
2	6002	826.859615748773	1
2	6005	827.510843091832	0
2	6011	828.037214435297	1
2	6012	828.332329651948	0
2	6035	830.857828503485	1
2	6037	830.859694943012	2
2	6039	831.286903926336	3
2	6040	831.527728028365	2
2	6049	832.434077909219	1
2	6053	832.616954074464	2
2	6054	832.88431598889	1
2	6059	833.8192228145	0
2	6066	834.450213010807	1
2	6068	834.557022723485	2
2	6069	834.85154168392	1
2	6074	835.360973302465	0
2	6078	835.573834067185	1
2	6079	836.109649835251	0
2	6088	837.367834551831	1
2	6090	837.452923219308	2
2	6091	837.564867755448	1
2	6096	838.253934342976	0
2	6100	838.618763664918	1
2	6101	838.695049792392	0
2	6105	838.745860210347	1
2	6106	839.238824503453	0
2	6110	839.242380219876	1
2	6113	839.835777240157	0
2	6117	839.873211589308	1
2	6118	840.818729875287	0
2	6130	841.976699734661	1
2	6131	842.635151366661	0
2	6140	843.629893092156	1
2	6141	844.329733347897	0
2	6150	845.914747211708	1
2	6151	845.920361997052	0
2	6165	847.83257324395	1
2	6166	848.045579878106	0
2	6173	848.984607520474	1
2	6176	849.193443960841	0
2	6188	850.460892328142	1
2	6193	851.216107945243	0
2	6202	852.168762298999	1
2	6204	852.531004338696	2
2	6205	852.875802149397	1
2	6210	853.472713218822	0
2	6217	854.413436962398	1
2	6218	855.181875913038	0
2	6227	856.721163479967	1
2	6228	856.892082835088	0
2	6237	857.958311726145	1
2	6239	857.974968254446	2
2	6240	858.446563243546	1
2	6243	859.107769986574	0
2	6247	859.160730551722	1
2	6250	859.999385066709	0
2	6257	860.709344758593	1
2	6260	861.000470187009	0
2	6269	862.366878009851	1
2	6270	862.857525749976	0
2	6279	863.51303030201	1
2	6280	863.951601613738	0
2	6289	864.975452713451	1
2	6290	865.625798878964	0
2	6299	866.762077060107	1
2	6301	867.013961063307	2
2	6302	867.213657200435	1
2	6307	867.6845818047	0
2	6311	868.194184288185	1
2	6312	868.543403937161	0
2	6316	868.689181903386	1
2	6319	869.520519714156	0
2	6323	869.576983957736	1
2	6324	870.238454574212	0
2	6331	871.229945811013	1
2	6333	871.473659210785	2
2	6334	871.668480621423	1
2	6337	872.548766097897	0
2	6344	873.931286834175	1
2	6346	873.998894967747	2
2	6349	874.166706793248	1
2	6352	874.677840599469	0
2	6356	874.861036973339	1
2	6359	875.247472424996	0
2	6363	875.271449550256	1
2	6364	876.111363548464	0
2	6368	876.187036600307	1
2	6369	876.720838774606	0
2	6373	876.779997356499	1
2	6374	877.654747781582	0
2	6378	877.752752209162	1
2	6379	878.517386755725	0
2	6388	880.084388347557	1
2	6389	880.124942728882	0
2	6400	880.837136182723	1
2	6401	881.657821331272	0
2	6410	882.353817495774	1
2	6413	883.114234253257	0
2	6422	883.800320601644	1
2	6423	884.430639157636	0
2	6429	884.800689336437	1
2	6430	884.893728224985	0
2	6437	886.3259136403	1
2	6438	886.527275477821	0
2	6452	888.953332965465	1
2	6453	889.296277611988	0
2	6462	890.052926467799	1
2	6463	890.214697250497	0
2	6474	891.578250988556	1
2	6475	891.982958800631	0
2	6484	892.514339010058	1
2	6485	892.998021643987	0
2	6497	894.451044872268	1
2	6500	895.141956937179	0
2	6509	896.316122919558	1
2	6510	896.882795133494	0
2	6519	897.710097687795	1
2	6520	898.649563938338	0
2	6527	899.432373382507	1
2	6528	899.910059423331	0
2	6537	900.693860047543	1
2	6538	901.116576409532	0
2	6547	902.064461156636	1
2	6548	902.825647939794	0
2	6557	903.580793543202	1
2	6558	904.179160320206	0
2	6569	905.712873768881	1
2	6570	905.985935798991	0
2	6574	906.27782523094	1
2	6577	906.724934120621	0
2	6581	906.868272739549	1
2	6584	907.415366235287	0
2	6588	907.42359033183	1
2	6589	907.851229085033	0
2	6593	908.5420324355	1
2	6594	908.698775436129	0
2	6598	908.991968520984	1
2	6600	909.37574440629	2
2	6601	909.391488874476	1
2	6605	909.858024255815	2
2	6606	909.944625097239	1
2	6610	910.250338585038	2
2	6611	910.44011884728	1
2	6615	911.190133866833	2
2	6616	911.30328157051	1
2	6620	911.563181656951	2
2	6621	911.70626571286	1
2	6625	911.828618354417	2
2	6626	912.442292298893	1
2	6630	912.622304644876	2
2	6631	912.872690160484	1
2	6635	913.448541061674	2
2	6636	913.539070801022	1
2	6640	913.650411445932	2
2	6641	914.09782751217	1
2	6644	914.504686694271	0
2	6648	915.043189781411	1
2	6649	915.421596068242	0
2	6653	915.421705452691	1
2	6654	916.245819386659	0
2	6661	917.33556479632	1
2	6662	917.537257152382	0
2	6666	917.658810083616	1
2	6667	918.051105689961	0
2	6671	918.38578829988	1
2	6672	918.91133974996	0
2	6676	919.518104525334	1
2	6677	919.769306035764	0
2	6687	920.95925454574	1
2	6689	921.33778165253	2
2	6690	921.65976045095	1
2	6695	922.38446480828	0
2	6699	922.432238597887	1
2	6702	922.852310604142	0
2	6706	923.184784194425	1
2	6707	923.668032160267	0
2	6711	923.873854948712	1
2	6712	924.187807177106	0
2	6719	925.21335337641	1
2	6720	925.441935258969	0
2	6727	926.224543077257	1
2	6730	926.516264913981	0
2	6739	927.930859671651	1
2	6740	928.128365326072	0
2	6750	929.617570730758	1
2	6753	930.285473963762	0
2	6809	936.829376493383	1
2	6812	937.21552308109	0
2	6823	938.006804903661	1
2	6825	938.238934797809	2
2	6826	938.796591511419	1
2	6831	939.665073362602	0
2	6835	939.915364062714	1
2	6837	940.125246061607	2
2	6838	940.443864316218	1
2	6841	940.855476871137	0
2	6847	941.39107389825	1
2	6849	941.575509608276	2
2	6850	941.702080028881	1
2	6854	942.039870741236	2
2	6855	942.262670813878	1
2	6858	943.104164448804	0
2	6862	943.886760090049	1
2	6863	944.030728634312	0
2	6867	944.07075128948	1
2	6871	944.441739545806	2
2	6872	944.955845064395	1
2	6876	945.585713069849	2
2	6877	945.877990786643	1
2	6880	946.531371011124	0
2	6884	946.672024706434	1
2	6885	947.063837431888	0
2	6889	947.205044763538	1
2	6890	947.941834803861	0
2	6897	949.139702664036	1
2	6900	949.472021058904	0
2	6916	951.73865650522	1
2	6917	951.77829952273	0
2	6921	951.978844578152	1
2	6922	952.216672705258	0
2	6931	952.86505488666	1
2	6933	953.048861807095	2
2	6934	953.474846232082	1
2	6939	954.214830646063	0
2	6943	954.488500819287	1
2	6944	954.635674353973	0
2	6948	954.727565055757	1
2	6951	955.573424537671	0
2	6955	955.694188903724	1
2	6956	956.344898076267	0
2	6960	956.503643291723	1
2	6961	957.187328712554	0
2	6965	957.632413239373	1
2	6966	957.757010515319	0
2	6970	958.16581272301	1
2	6971	958.217147272132	0
2	6975	958.390893963088	1
2	6977	958.403800013437	2
2	6978	959.090206109458	1
2	6982	959.301438096151	2
2	6984	959.583551228072	3
2	6985	959.782289052667	2
2	6989	959.965057409154	3
2	6990	960.549038305884	2
2	6994	960.569030189086	3
2	6995	961.527627412328	2
2	6999	961.627638096647	3
2	7000	962.08734754697	2
2	7004	962.917690780139	3
2	7005	963.004252393456	2
2	7008	963.562605127884	1
2	7012	963.627567971776	2
2	7013	964.003475345723	1
2	7017	964.004776313765	2
2	7018	964.833133123727	1
2	7022	965.397357653161	2
2	7023	965.794066382857	1
2	7027	965.924347354465	2
2	7030	966.609722918045	1
2	7034	966.928730452549	2
2	7035	967.130137207272	1
2	7041	967.804680934179	2
2	7042	967.912232329889	1
2	7046	968.090447192029	2
2	7047	968.334113606351	1
2	7051	968.754773700294	2
2	7052	968.900760647474	1
2	7058	969.609028794438	2
2	7059	969.793920448661	1
2	7063	969.88122413848	2
2	7065	970.160380322044	3
2	7066	970.322046104871	2
2	7069	970.838471267006	1
2	7073	970.874455013671	2
2	7074	971.534895015421	1
2	7078	971.690967424984	2
2	7080	972.083893717878	3
2	7081	972.12916716864	2
2	7085	972.544708083639	3
2	7086	972.56296182946	2
2	7090	972.604455932562	3
2	7091	973.287315563678	2
2	7095	973.417427055577	3
2	7096	973.877036178491	2
2	7100	974.349597451366	3
2	7101	974.46649666541	2
2	7105	974.858427587396	3
2	7107	974.964837238954	4
2	7108	975.398849209684	3
2	7112	975.464504573464	4
2	7113	976.104610730155	3
2	7117	976.18914812655	4
2	7118	976.995256391919	3
2	7122	977.359241499815	4
2	7123	977.990459470923	3
2	7126	978.43622615324	2
2	7130	978.52598252697	3
2	7132	978.95933951149	4
2	7133	979.048696144117	3
2	7137	979.0836642006	4
2	7138	979.914469373232	3
2	7142	980.220364487092	4
2	7143	980.888193473459	3
2	7147	980.989775026439	4
2	7148	981.554413411819	3
2	7151	982.06837488325	2
2	7155	982.174623628181	3
2	7157	982.619488339424	4
2	7158	983.006359023747	3
2	7161	983.99400342317	2
2	7164	984.529035173037	1
2	7168	984.627772103368	2
2	7170	984.767665984688	3
2	7172	984.855463241441	4
2	7173	985.394990556554	3
2	7177	985.546026536643	4
2	7178	985.946699675505	3
2	7182	986.21894275992	4
2	7183	986.472405697831	3
2	7187	987.062936529634	4
2	7188	987.10214616657	3
2	7192	987.434192819475	4
2	7193	987.653320497328	3
2	7197	987.869307767859	4
2	7199	987.903737388986	5
2	7200	988.179303507048	4
2	7204	988.332741561587	5
2	7205	988.746464822495	4
2	7208	989.211464350491	3
2	7212	989.641595374909	4
2	7213	989.994036998653	3
2	7217	990.097837757083	4
2	7218	990.514350569255	3
2	7222	990.616148969751	4
2	7223	991.447576204275	3
2	7227	991.532223721829	4
2	7230	991.945132457658	3
2	7234	992.002001304402	4
2	7235	992.857948274405	3
2	7239	992.867161889014	4
2	7240	993.459319622309	3
2	7244	993.826307969239	4
2	7245	994.027620676679	3
2	7251	994.492138022969	4
2	7252	994.604229737685	3
2	7256	994.899484234024	4
2	7257	995.47188795191	3
2	7261	995.516194307511	4
2	7262	996.137061689196	3
2	7266	996.335231153283	4
2	7267	996.620852874273	3
2	7270	997.203270819511	2
2	7274	997.397520836294	3
2	7276	997.831831816781	4
2	7277	998.192776418857	3
2	7280	998.724249899534	2
2	7284	999.074067769888	3
2	7285	999.183723550856	2
2	7288	999.876354511974	1
2	7292	999.953165153237	2
2	7294	1000.112122846919	3
2	7295	1000.374964903256	2
2	7299	1000.909600144916	3
2	7300	1000.967791861164	2
2	7304	1001.399903831297	3
2	7305	1001.695930169531	2
2	7309	1001.739440600573	3
2	7311	1002.000909980248	4
2	7312	1002.122684934278	3
2	7316	1002.143596305148	4
2	7317	1003.10217035842	3
2	7321	1003.276610908323	4
2	7322	1003.842714856201	3
2	7326	1004.116353657183	4
2	7327	1004.323385746227	3
2	7331	1004.502537724642	4
2	7332	1004.964569841707	3
2	7336	1005.279809382111	4
2	7337	1005.582379413079	3
2	7341	1005.934150515938	4
2	7342	1006.118145533753	3
2	7345	1007.012792806755	2
2	7349	1007.517515301324	3
2	7350	1007.535078737102	2
2	7354	1007.53966815368	3
2	7355	1008.30633720221	2
2	7358	1009.248861978492	1
2	7362	1009.926729631652	2
2	7364	1009.982476125808	3
2	7365	1010.187631494515	2
2	7369	1010.427314767643	3
2	7370	1010.609283322245	2
2	7374	1010.685437835332	3
2	7376	1010.688980681078	4
2	7377	1011.290937225903	3
2	7381	1011.662860313117	4
2	7382	1012.239830487976	3
2	7386	1012.666582350685	4
2	7387	1012.835535002556	3
2	7391	1013.468974892088	4
2	7392	1013.691664099656	3
2	7396	1013.929607571961	4
2	7397	1014.308977338169	3
2	7401	1014.57790183409	4
2	7402	1015.236756752674	3
2	7406	1015.408650742977	4
2	7407	1016.136640107129	3
2	7411	1016.27167478999	4
2	7412	1016.788033286352	3
2	7416	1017.106364353652	4
2	7417	1017.657637999356	3
2	7421	1017.73235476219	4
2	7426	1018.510119833388	3
2	7430	1019.011748967494	4
2	7431	1019.055354684136	3
2	7434	1019.620160508073	2
2	7437	1020.061925335518	1
2	7441	1020.174144382631	2
2	7442	1020.677509757467	1
2	7445	1021.641103124069	0
2	7449	1021.740531648144	1
2	7451	1021.844646450907	2
2	7453	1021.998633694424	3
2	7454	1022.11285625306	2
2	7458	1022.370925387914	3
2	7460	1022.631010924437	4
2	7461	1022.843472885676	3
2	7465	1023.220130002669	4
2	7466	1023.662601958271	3
2	7470	1023.906307039536	4
2	7471	1024.260528351376	3
2	7474	1024.77704496678	2
2	7477	1025.75630677376	1
2	7481	1025.777544700348	2
2	7483	1026.03828616559	3
2	7484	1026.650846289574	2
2	7488	1027.111572345686	3
2	7489	1027.546626213482	2
2	7493	1027.66067478837	3
2	7494	1028.534218695537	2
2	7498	1029.129540948139	3
2	7499	1029.408693909515	2
2	7503	1029.501100426996	3
2	7504	1030.088413342005	2
2	7507	1030.691170251752	1
2	7511	1031.042324973012	2
2	7512	1031.174601066821	1
2	7516	1031.614320060557	2
2	7517	1031.651687737425	1
2	7521	1031.948044949533	2
2	7522	1032.187118244461	1
2	7526	1032.49750150239	2
2	7527	1032.93609018094	1
2	7531	1033.108353075652	2
2	7532	1033.669152105563	1
2	7536	1033.750543785578	2
2	7537	1034.093957535234	1
2	7541	1034.398917482893	2
2	7542	1034.934284537482	1
2	7545	1035.369055012624	0
2	7549	1035.673018468239	1
2	7550	1035.958001770462	0
2	7554	1036.076575830001	1
2	7556	1036.195640496577	2
2	7557	1036.828051479544	1
2	7563	1037.063307294367	2
2	7564	1037.440209814218	1
2	7568	1037.871699780785	2
2	7569	1038.128449875965	1
2	7573	1038.313684433417	2
2	7574	1038.785648376831	1
2	7578	1038.82782799236	2
2	7579	1039.572578984183	1
2	7583	1039.808505705518	2
2	7584	1040.055975253797	1
2	7588	1040.263830350636	2
2	7589	1040.775228982149	1
2	7593	1041.12562782721	2
2	7594	1041.249355482785	1
2	7598	1041.330433594265	2
2	7599	1041.775365762329	1
2	7603	1042.146995811945	2
2	7604	1042.61070813491	1
2	7608	1042.820994762693	2
2	7610	1042.900712977229	3
2	7611	1043.199182462562	2
2	7615	1043.387294148122	3
2	7616	1043.857258311203	2
2	7620	1044.08400800659	3
2	7621	1044.733280176725	2
2	7624	1045.517851444995	1
2	7628	1045.567972042295	2
2	7630	1045.718118304581	3
2	7631	1045.956152737616	2
2	7635	1046.185283994118	3
2	7636	1046.816200659294	2
2	7640	1047.31042375207	3
2	7641	1047.544001988611	2
2	7645	1047.829661462125	3
2	7646	1048.088335194961	2
2	7650	1048.316742664114	3
2	7651	1048.596873329869	2
2	7655	1048.62918363749	3
2	7656	1049.206877643532	2
2	7660	1049.444890689241	3
2	7663	1049.864369768334	2
2	7667	1049.952554608572	3
2	7668	1050.537569661263	2
2	7672	1050.544931902948	3
2	7673	1050.948906021157	2
2	7677	1051.762872543802	3
2	7678	1051.907918327732	2
2	7681	1052.826918317668	1
2	7685	1053.201394501742	2
2	7686	1053.574324575124	1
2	7690	1053.769714919217	2
2	7692	1053.836764663333	3
2	7693	1054.290654667711	2
2	7697	1054.723868890499	3
2	7698	1054.736889924819	2
2	7702	1055.154644757064	3
2	7703	1055.381684175425	2
2	7707	1055.505619661188	3
2	7708	1056.34735429209	2
2	7712	1056.592850342722	3
2	7715	1057.177580047131	2
2	7718	1057.820476885477	1
2	7722	1058.177559955962	2
2	7723	1058.251983179023	1
2	7727	1058.657560689071	2
2	7729	1058.66737381463	3
2	7730	1058.946523319335	2
2	7733	1059.499797562008	1
2	7737	1060.053175407301	2
2	7738	1060.286814127174	1
2	7742	1060.422072617615	2
2	7744	1060.533806275828	3
2	7745	1060.938325445411	2
2	7748	1061.656069006688	1
2	7754	1061.911331826775	2
2	7756	1061.955821564586	3
2	7757	1062.072627802297	2
2	7761	1062.417105106818	3
2	7763	1062.546698147535	4
2	7764	1062.925694902718	3
2	7768	1063.264614150467	4
2	7769	1063.773988276964	3
2	7775	1064.646957907484	4
2	7776	1064.769023272267	3
2	7779	1065.28661437236	2
2	7784	1065.851413179247	1
2	7788	1066.521533022477	2
2	7791	1066.83562195237	1
2	7794	1067.506698592577	0
2	7798	1067.738484431334	1
2	7799	1068.450693548808	0
2	7806	1069.220193781634	1
2	7808	1069.227521676915	2
2	7810	1069.389427588079	3
2	7811	1069.687272225145	2
2	7815	1069.779627951081	3
2	7817	1070.007539244272	4
2	7821	1070.481563216855	5
2	7822	1070.602087040024	4
2	7826	1071.22245379124	5
2	7827	1071.514836532727	4
2	7831	1071.814775434589	5
2	7832	1072.490793083713	4
2	7836	1072.556220055335	5
2	7838	1072.793233998192	6
2	7839	1072.895338357624	5
2	7843	1073.477030625648	6
2	7846	1073.748840033461	5
2	7849	1074.197391704249	4
2	7853	1074.491329063046	5
2	7854	1074.636991033063	4
2	7858	1074.805820130395	5
2	7860	1075.355254270814	6
2	7861	1075.392455298652	5
2	7867	1075.751879720298	6
2	7868	1076.282839390974	5
2	7872	1076.56514050457	6
2	7873	1076.920612570423	5
2	7876	1077.439839931869	4
2	7880	1077.77139181572	5
2	7882	1077.930299510353	6
2	7883	1078.308509065782	5
2	7886	1078.91729222989	4
2	7890	1079.093838778741	5
2	7891	1079.871399076388	4
2	7895	1080.332217677132	5
2	7896	1080.573387993325	4
2	7899	1081.275681641058	3
2	7903	1081.574021809985	4
2	7905	1081.650180062951	5
2	7906	1081.983229026723	4
2	7909	1082.851178466541	3
2	7913	1082.901836686805	4
2	7914	1083.505045371003	3
2	7917	1084.120484604699	2
2	7921	1084.270652215463	3
2	7923	1084.640009830464	4
2	7924	1084.986659852381	3
2	7928	1085.011402066322	4
2	7929	1085.752164184268	3
2	7932	1086.410233715189	2
2	7936	1086.696379566147	3
2	7937	1087.250265647623	2
2	7941	1087.428051822764	3
2	7943	1087.735284512106	4
2	7944	1087.935893108429	3
2	7947	1088.819089812379	2
2	7951	1088.882149002882	3
2	7954	1089.608480723448	2
2	7958	1089.923187165252	3
2	7959	1090.018911656191	2
2	7963	1090.431327905967	3
2	7964	1090.647778229661	2
2	7968	1090.744366080002	3
2	7970	1090.805828828778	4
2	7971	1091.109124893103	3
2	7974	1091.668305999845	2
2	7978	1091.765664627894	3
2	7980	1092.318024723028	4
2	7981	1092.646566195519	3
2	7984	1093.087365790376	2
2	7988	1093.137293015606	3
2	7989	1093.570861340839	2
2	7993	1094.093669430387	3
2	7995	1094.291262274216	4
2	7996	1094.505680766807	3
2	7999	1095.03768781164	2
2	8003	1095.128301432318	3
2	8004	1095.443946020224	2
2	8008	1095.727934144711	3
2	8009	1096.149073320779	2
2	8013	1096.359145574126	3
2	8014	1096.715992381063	2
2	8018	1097.172804465053	3
2	8019	1097.294159309857	2
2	8024	1097.876297551824	1
2	8028	1098.371741020701	2
2	8029	1098.729873598891	1
2	8033	1098.749842133837	2
2	8034	1099.591230675916	1
2	8037	1100.43290056187	0
2	8041	1100.592656577999	1
2	8043	1100.634400629956	2
2	8044	1101.404067962722	1
2	8047	1102.070986913809	0
2	8051	1102.327523084489	1
2	8052	1102.725311890676	0
2	8056	1103.317399639578	1
2	8057	1103.497724620545	0
2	8061	1103.527581918484	1
2	8062	1104.227065099602	0
2	8069	1105.09355424807	1
2	8072	1105.744171135885	0
2	8078	1106.033258917682	1
2	8079	1106.385183781631	0
2	8083	1106.600581943946	1
2	8086	1107.376137042803	0
2	8090	1107.46946352043	1
2	8092	1107.770370649798	2
2	8093	1108.070000855451	1
2	8097	1108.182144567343	2
2	8098	1108.832417004894	1
2	8102	1109.098669479936	2
2	8103	1109.771981014557	1
2	8107	1110.264059483881	2
2	8108	1110.407066601155	1
2	8113	1110.907564828651	0
2	8117	1111.39436757923	1
2	8118	1111.827375223454	0
2	8122	1111.978518583904	1
2	8123	1112.591262981122	0
2	8127	1112.968096462827	1
2	8128	1113.246620155697	0
2	8132	1113.458179352303	1
2	8134	1113.75718940009	2
2	8135	1113.99093174144	1
2	8138	1114.416487365973	0
2	8142	1114.517869682919	1
2	8144	1114.577336203891	2
2	8145	1115.197920468415	1
2	8149	1115.460930342884	2
2	8150	1115.651868064388	1
2	8154	1115.730877183141	2
2	8155	1116.178096308059	1
2	8159	1116.179897501653	2
2	8160	1116.840088165517	1
2	8164	1116.86525843752	2
2	8165	1117.310028375045	1
2	8168	1118.299479241122	0
2	8172	1118.77325922952	1
2	8173	1118.939369090286	0
2	8177	1119.432308289652	1
2	8178	1119.61965595918	0
2	8185	1120.573365928589	1
2	8186	1120.800376162317	0
2	8190	1120.89632107833	1
2	8191	1121.380478515301	0
2	8197	1121.674851229714	1
2	8198	1122.130858083034	0
2	8202	1122.150182008318	1
2	8205	1123.037322756287	0
2	8209	1123.051511976673	1
2	8210	1123.573019284115	0
2	8224	1125.792290136936	1
2	8226	1125.902543292163	2
2	8227	1126.107094492589	1
2	8230	1126.524285178364	0
2	8234	1126.590765772939	1
2	8237	1127.322585767939	0
2	8241	1127.519230284946	1
2	8243	1127.717970543783	2
2	8244	1127.795565828041	1
2	8248	1127.833748490637	2
2	8249	1128.217354728387	1
2	8252	1129.122453490191	0
2	8261	1130.286055930064	1
2	8263	1130.316928583026	2
2	8264	1130.57260864015	1
2	8269	1131.09250782748	0
2	8273	1131.103171251049	1
2	8275	1131.499114005766	2
2	8276	1131.616545579641	1
2	8280	1131.673467592819	2
2	8282	1131.727828294218	3
2	8283	1132.189778667095	2
2	8287	1132.34103126192	3
2	8288	1132.709349218582	2
2	8292	1132.734517593357	3
2	8293	1133.688623865101	2
2	8296	1134.575568146877	1
2	8300	1134.858866095344	2
2	8302	1135.359512850818	3
2	8303	1135.396035307892	2
2	8309	1135.82626172078	3
2	8311	1136.139507787429	4
2	8312	1136.374550505508	3
2	8316	1136.509264527398	4
2	8317	1136.940654078	3
2	8320	1137.673998882915	2
2	8324	1137.827479170486	3
2	8325	1138.14358110108	2
2	8329	1138.713367135801	3
2	8331	1138.915039566953	4
2	8332	1138.981213313914	3
2	8336	1139.168057334549	4
2	8337	1139.85370306877	3
2	8345	1140.669555619751	4
2	8346	1140.831201745072	3
2	8350	1140.837299292181	4
2	8351	1141.529798736717	3
2	8355	1141.98908963616	4
2	8356	1142.353147549662	3
2	8360	1142.373248609585	4
2	8361	1143.104534009299	3
2	8365	1143.344271152087	4
2	8366	1144.05078315224	3
2	8370	1144.096427727661	4
2	8372	1144.461602660727	5
2	8373	1144.868641204633	4
2	8377	1145.135201710618	5
2	8378	1145.743031141827	4
2	8382	1146.015676113817	5
2	8383	1146.457793768788	4
2	8386	1147.275390621102	3
2	8390	1147.479923308249	4
2	8392	1147.495485885878	5
2	8393	1148.217090027048	4
2	8396	1148.740261874408	3
2	8400	1149.164404866193	4
2	8402	1149.287804389473	5
2	8403	1149.514220554535	4
2	8406	1150.268246126934	3
2	8411	1150.6752063702	2
2	8415	1151.178700628263	3
2	8416	1151.511100940746	2
2	8420	1151.618786707873	3
2	8421	1152.427157465149	2
2	8425	1152.543017533089	3
2	8426	1153.416780000706	2
2	8432	1154.047166716795	3
2	8433	1154.106824813052	2
2	8437	1154.128685528313	3
2	8442	1154.89661468022	2
2	8445	1155.342463576155	1
2	8449	1155.52360494054	2
2	8451	1155.595922568328	3
2	8452	1156.121370906769	2
2	8456	1156.205399768122	3
2	8457	1156.732643577144	2
2	8461	1157.097361931692	3
2	8462	1157.366296595348	2
2	8465	1157.901327789215	1
2	8469	1157.903238785194	2
2	8470	1158.426580550488	1
2	8474	1158.523436844553	2
2	8475	1159.424924084697	1
2	8479	1159.746328151334	2
2	8481	1159.842785069034	3
2	8482	1159.986049542915	2
2	8485	1160.909723765137	1
2	8489	1160.954016124238	2
2	8492	1161.62138961527	1
2	8496	1161.806805509318	2
2	8497	1162.207804124304	1
2	8501	1162.856538716919	2
2	8502	1163.187482979302	1
2	8505	1164.166190664111	0
2	8509	1164.485297796142	1
2	8511	1164.664367669131	2
2	8513	1164.677808326577	3
2	8514	1165.031752757555	2
2	8518	1165.335666816778	3
2	8520	1165.721872405143	4
2	8521	1165.866593925296	3
2	8525	1166.387315578161	4
2	8528	1166.664559579887	3
2	8532	1166.776586395286	4
2	8533	1167.517481344393	3
2	8537	1167.540980806452	4
2	8538	1168.073373072282	3
2	8542	1168.17118688707	4
2	8543	1168.898112277141	3
2	8547	1168.973005339594	4
2	8548	1169.771325716855	3
2	8551	1170.517688909046	2
2	8554	1171.130065434159	1
2	8558	1171.406266435327	2
2	8559	1171.785613818665	1
2	8563	1172.162767018259	2
2	8564	1172.659625895613	1
2	8568	1172.82466686622	2
2	8570	1173.068411967035	3
2	8571	1173.318900857226	2
2	8574	1173.90305264286	1
2	8578	1174.046000628171	2
2	8579	1174.4141620034	1
2	8583	1174.862541555675	2
2	8584	1174.874228327221	1
2	8588	1174.975211339348	2
2	8589	1175.784425341117	1
2	8592	1176.238595458179	0
2	8596	1176.311732977518	1
2	8597	1177.090155670245	0
2	8604	1177.731882837975	1
2	8605	1178.002706406045	0
2	8611	1178.265224663183	1
2	8612	1178.772769940471	0
2	8616	1178.85431677532	1
2	8618	1178.906907417108	2
2	8619	1179.471938090645	1
2	8623	1179.674178506762	2
2	8624	1180.441169781624	1
2	8628	1180.475600346274	2
2	8630	1180.675974152605	3
2	8631	1180.890538936355	2
2	8635	1181.265343192079	3
2	8636	1181.850299977385	2
2	8640	1182.356562096568	3
2	8641	1182.391856588483	2
2	8645	1182.670691163171	3
2	8646	1182.990396591941	2
2	8650	1183.503469971791	3
2	8651	1183.903213034816	2
2	8654	1184.476114692179	1
2	8658	1184.514102275058	2
2	8659	1185.191343820666	1
2	8665	1185.576090644252	2
2	8666	1185.664433375944	1
2	8669	1186.206720338028	0
2	8673	1186.713937245491	1
2	8674	1186.904609821608	0
2	8678	1187.005858061869	1
2	8680	1187.007610784694	2
2	8681	1187.769674277549	1
2	8684	1188.248689507564	0
2	8688	1188.315562512976	1
2	8690	1188.502604841224	2
2	8691	1188.971764223288	1
2	8695	1189.654698826205	2
2	8696	1189.934960354456	1
2	8699	1190.767582475358	0
2	8703	1191.0745737484	1
2	8705	1191.629756361222	2
2	8706	1191.693004873266	1
2	8710	1191.930120827587	2
2	8711	1192.519966630136	1
2	8714	1193.433438201865	0
2	8718	1193.631709270936	1
2	8720	1193.721318850956	2
2	8721	1193.980840402108	1
2	8725	1194.222312128665	2
2	8726	1194.478905995109	1
2	8730	1194.679430720091	2
2	8731	1195.169137352018	1
2	8735	1195.398597107361	2
2	8736	1196.118575821409	1
2	8740	1196.319955824738	2
2	8741	1196.756082000362	1
2	8745	1197.068664182945	2
2	8746	1197.277051292138	1
2	8750	1197.293358132403	2
2	8751	1197.831739807326	1
2	8755	1197.905708910947	2
2	8756	1198.322741867426	1
2	8760	1198.544002348234	2
2	8761	1199.199802948545	1
2	8765	1199.394619805298	2
2	8766	1199.696269731793	1
2	8770	1199.716388549041	2
2	8771	1200.355338302312	1
2	8775	1200.51886256696	2
2	8776	1201.028952407661	1
2	8780	1201.28345533274	2
2	8781	1202.005810561135	1
2	8785	1202.25485008906	2
2	8786	1202.842128575371	1
2	8789	1203.825406534515	0
2	8793	1204.175800140421	1
2	8795	1204.217641066325	2
2	8796	1204.642926137672	1
2	8800	1205.07567631582	2
2	8801	1205.349931740166	1
2	8805	1205.48621684364	2
2	8807	1205.847176796406	3
2	8808	1205.934740183094	2
2	8811	1206.337284074781	1
2	8815	1206.564410156132	2
2	8816	1206.966407974634	1
2	8819	1207.809338946419	0
2	8826	1208.866566154152	1
2	8828	1209.134878564824	2
2	8829	1209.245911204128	1
2	8833	1209.669972663069	2
2	8836	1210.001826402417	1
2	8839	1210.917096378945	0
2	8843	1211.430197576837	1
2	8844	1211.705979734903	0
2	8848	1211.71996532421	1
2	8849	1212.443024157231	0
2	8853	1212.465735762213	1
2	8855	1212.612360422337	2
2	8856	1213.142861746681	1
2	8861	1213.894480487715	0
2	8865	1214.045384381659	1
2	8868	1214.814450339704	0
2	8872	1214.815582666621	1
2	8873	1215.484835646265	0
2	8877	1215.583467115481	1
2	8878	1216.033877553941	0
2	8882	1216.536889717684	1
2	8883	1216.66041154937	0
2	8887	1216.818061237216	1
2	8888	1217.367564110515	0
2	8894	1217.894554332739	1
2	8895	1218.256387160822	0
2	8899	1218.261604043694	1
2	8900	1219.100960367602	0
2	8904	1219.36601729519	1
2	8905	1220.06290605614	0
2	8909	1220.437090314056	1
2	8910	1220.995642643571	0
2	8914	1220.997530559325	1
2	8915	1221.399952880675	0
2	8922	1222.154556095938	1
2	8923	1222.788378061923	0
2	8932	1223.826287942403	1
2	8933	1224.073107913891	0
2	8942	1224.685247306049	1
2	8943	1225.26057893062	0
2	8952	1225.795859022902	1
2	8953	1226.232591796536	0
2	8960	1227.022102254369	1
2	8963	1227.712166454187	0
2	8972	1228.484581035939	1
2	8974	1229.117263377174	2
2	8975	1229.183649532367	1
2	8980	1230.0677686839	0
2	8986	1230.871824665547	1
2	8987	1231.058357216754	0
2	8994	1232.022825283095	1
2	8995	1232.71388058072	0
2	9002	1233.653335805658	1
2	9005	1233.99570553788	0
2	9014	1234.956380491503	1
2	9015	1235.439217621796	0
2	9024	1236.593755750385	1
2	9025	1237.014153087754	0
2	9039	1238.686369655922	1
2	9040	1238.814671164388	0
2	9054	1240.811728552123	1
2	9057	1241.651395040993	0
2	9074	1244.256794396227	1
2	9077	1245.030385960648	0
2	9086	1245.642560224648	1
2	9087	1246.106043219716	0
2	9096	1247.07246685905	1
2	9097	1247.527825484249	0
2	9104	1249.184180229596	1
2	9105	1249.312360905634	0
2	9112	1249.971731248249	1
2	9115	1250.416976007085	0
2	9124	1251.481777445704	1
2	9125	1251.798964026954	0
2	9142	1254.159502646354	1
2	9145	1254.903962222452	0
2	9154	1256.233336460215	1
2	9155	1256.782098847732	0
2	9162	1257.812343525291	1
2	9163	1258.534288046986	0
2	9174	1259.603704841124	1
2	9175	1259.902485639101	0
2	9181	1260.398552441779	1
2	9182	1260.506346807035	0
2	9186	1260.717736132724	1
2	9187	1260.959608026978	0
2	9191	1260.994570817102	1
2	9192	1261.635700869246	0
2	9196	1261.992001215619	1
2	9197	1262.158521114488	0
2	9204	1263.216032530645	1
2	9205	1264.039276789467	0
2	9214	1264.838539401263	1
2	9215	1264.97979525869	0
2	9224	1266.110351168591	1
2	9225	1266.480404122698	0
2	9232	1267.682192949466	1
2	9233	1268.227849562059	0
2	9240	1268.844023004084	1
2	9241	1269.516914245731	0
2	9252	1270.386973606394	1
2	9253	1270.802058358455	0
2	9267	1272.258321081884	1
2	9268	1272.517940548911	0
2	9275	1273.21729570681	1
2	9278	1273.897879712853	0
2	9282	1274.173985319566	1
2	9283	1274.763813952879	0
2	9287	1274.797048052743	1
2	9288	1275.629098704235	0
2	9292	1275.743931168632	1
2	9293	1276.607346332643	0
2	9448	1300.350095135567	1
2	9449	1300.393935761659	0
2	9453	1301.020573495966	1
2	9454	1301.082671841525	0
2	9465	1302.198100651443	1
2	9467	1302.320943775136	2
2	9468	1302.353821283544	1
2	9473	1303.226686099509	0
2	9477	1303.472136021128	1
2	9478	1303.628675768443	0
2	9482	1303.889978680241	1
2	9483	1304.031702425203	0
2	9490	1305.177730466568	1
2	9492	1305.347645109679	2
2	9493	1305.495837389084	1
2	9498	1306.450053003489	0
2	9502	1306.605024698557	1
2	9503	1307.294067966158	0
2	9512	1308.309595847651	1
2	9514	1308.705043845813	2
2	9515	1308.792416706274	1
2	9520	1309.73261044469	0
2	9527	1310.719905154483	1
2	9529	1310.742455214379	2
2	9530	1311.289285254118	1
2	9533	1311.937705328141	0
2	9537	1312.006771311377	1
2	9538	1312.55922677085	0
2	9542	1312.608154727466	1
2	9545	1313.235223739512	0
2	9552	1314.391603055931	1
2	9553	1314.813949535472	0
2	9562	1315.546374092928	1
2	9563	1316.357449061947	0
2	9572	1317.578407409592	1
2	9573	1318.249288889963	0
2	9582	1319.207179690053	1
2	9584	1319.249185869808	2
2	9585	1319.505623649072	1
2	9589	1319.653723793901	2
2	9590	1319.998238571465	1
2	9594	1320.32923136946	2
2	9595	1320.835910966305	1
2	9601	1321.08462915604	2
2	9602	1321.275705882499	1
2	9608	1321.756828351697	2
2	9609	1321.903318408562	1
2	9613	1322.259621936012	2
2	9614	1322.521764881082	1
2	9617	1323.028880583832	0
2	9621	1323.434356296385	1
2	9624	1323.688338099804	0
2	9631	1324.595199322741	1
2	9633	1324.653359661958	2
2	9635	1324.852285762847	3
2	9636	1325.056406839995	2
2	9641	1325.741830563836	1
2	9645	1325.751070685293	2
2	9646	1326.143872087972	1
2	9649	1326.641078588424	0
2	9653	1326.820612023838	1
2	9655	1326.842225006639	2
2	9657	1326.95884736858	3
2	9658	1327.124936496244	2
2	9662	1327.195358074957	3
2	9663	1328.11295744191	2
2	9667	1328.53856024573	3
2	9668	1329.031117106099	2
2	9671	1329.978764989889	1
2	9675	1330.199912967779	2
2	9677	1330.291831545265	3
2	9678	1330.8154814622	2
2	9682	1330.983021650729	3
2	9683	1331.677792393938	2
2	9686	1332.15087222551	1
2	9690	1332.338050927839	2
2	9692	1332.358316053766	3
2	9693	1332.772664413331	2
2	9697	1333.392940972951	3
2	9698	1333.494647803865	2
2	9702	1333.883304949297	3
2	9705	1334.280244529955	2
2	9709	1334.319395603202	3
2	9710	1335.090709753809	2
2	9713	1335.5548723735	1
2	9717	1335.666072294027	2
2	9718	1336.261997921727	1
2	9721	1337.219294655006	0
2	9725	1337.240363855495	1
2	9727	1337.371072087025	2
2	9728	1338.138752588546	1
2	9731	1338.62749719942	0
2	9735	1338.678133505045	1
2	9736	1339.029497498423	0
2	9740	1339.6236180341	1
2	9741	1339.84484538218	0
2	9745	1339.95868651818	1
2	9746	1340.401183767021	0
2	9750	1340.584492724947	1
2	9751	1341.10426211386	0
2	9763	1342.417017235852	1
2	9764	1342.938941844144	0
2	9768	1343.03375042438	1
2	9771	1343.906685249145	0
2	9775	1343.916404854292	1
2	9776	1344.817143727989	0
2	9783	1345.719644632049	1
2	9785	1345.755962377449	2
2	9786	1346.434663269726	1
2	9791	1347.268022335378	0
2	9795	1347.324461125114	1
2	9796	1347.700292408198	0
2	9800	1348.326083624937	1
2	9801	1348.586305832688	0
2	9811	1349.698268862825	1
2	9814	1350.523069128126	0
2	9823	1351.244485975836	1
2	9824	1351.478857102302	0
2	9833	1352.604962861726	1
2	9834	1352.777479102147	0
2	9841	1353.931691978196	1
2	9842	1354.312706900538	0
2	9846	1354.323290470222	1
2	9849	1355.21813563035	0
2	9853	1355.594520127258	1
2	9854	1355.669114917946	0
2	9858	1355.679954547238	1
2	9859	1356.363046139116	0
2	9869	1357.737620960419	1
2	9871	1358.033793231848	2
2	9874	1358.595062041525	1
2	9877	1359.485691926871	0
2	9881	1359.723200142387	1
2	9884	1360.158366826	0
2	9888	1360.213014029795	1
2	9889	1360.93255016991	0
2	9896	1361.456784917722	1
2	9898	1361.83396663538	2
2	9899	1362.062119955486	1
2	9902	1362.847311252412	0
2	9906	1363.110002424562	1
2	9909	1363.585915841265	0
2	9915	1363.777857172043	1
2	9916	1364.024246875812	0
2	9920	1364.531734127254	1
2	9921	1364.902881015661	0
2	9928	1365.809006328616	1
2	9929	1366.352407075568	0
2	9938	1367.102505891573	1
2	9940	1367.41869102515	2
2	9941	1367.656400105647	1
2	9944	1368.520380789192	0
2	9950	1368.974360759333	1
2	9951	1369.298020732041	0
2	9955	1369.708428667794	1
2	9957	1369.879808279305	2
2	9960	1370.169674828194	1
2	9964	1370.307490746789	2
2	9965	1371.124278262222	1
2	9969	1371.409694631523	2
2	9970	1372.065581926249	1
2	9974	1372.701475589861	2
2	9975	1372.820207184704	1
2	9979	1373.00321782709	2
2	9980	1373.460011351539	1
2	9984	1373.575291717994	2
2	9985	1374.314033853134	1
2	9989	1374.723711448701	2
2	9990	1375.041000187734	1
2	9993	1375.825473201519	0
2	9997	1375.915343970881	1
2	9998	1376.236653398035	0
2	10004	1376.663330922516	1
2	10005	1376.992306978965	0
2	10009	1377.119665704422	1
2	10011	1377.481254900856	2
2	10012	1377.932136153906	1
2	10016	1378.471118387032	2
2	10017	1378.814409817393	1
2	10021	1378.858715563105	2
2	10022	1379.590010967069	1
2	10026	1379.90646314341	2
2	10027	1380.400631611525	1
2	10031	1380.870368328376	2
2	10032	1381.043082230595	1
2	10036	1381.174085476563	2
2	10037	1382.027048164337	1
2	10041	1382.282743541812	2
2	10042	1382.600141276523	1
2	10046	1382.965106464291	2
2	10047	1383.469423863768	1
2	10051	1383.550214686823	2
2	10052	1384.083027526467	1
2	10056	1384.152865465663	2
2	10057	1384.58787825388	1
2	10060	1385.267162887576	0
2	10064	1385.642159240347	1
2	10065	1385.903919855702	0
2	10075	1386.98843826248	1
2	10077	1387.034314458139	2
2	10080	1387.837513584607	1
2	10083	1388.432602877692	0
2	10087	1388.766004288815	1
2	10090	1389.3627755351	0
2	10096	1389.923890537734	1
2	10097	1390.323167415346	0
2	10101	1390.331158771044	1
2	10102	1391.093604058596	0
2	10106	1391.300686702253	1
2	10107	1391.832437155173	0
2	10111	1391.975776777349	1
2	10112	1392.725396597861	0
2	10116	1392.746302665103	1
2	10117	1393.181756221699	0
2	10124	1394.412663540306	1
2	10125	1395.042746970999	0
2	10132	1395.664723638843	1
2	10135	1396.405851599724	0
2	10147	1397.776089457683	1
2	10150	1398.308987361808	0
2	10159	1399.52215886324	1
2	10160	1399.624373483994	0
2	10169	1400.044486768666	1
2	10170	1400.984206900523	0
2	10179	1401.676908360257	1
2	10180	1401.927111814507	0
2	10199	1403.774548530772	1
2	10200	1404.310541312686	0
2	10207	1405.152153593516	1
2	10208	1405.780605073423	0
2	10217	1406.449822670475	1
2	10220	1406.791882554871	0
2	10236	1408.011035733869	1
2	10237	1408.331066493049	0
2	10246	1408.777265121663	1
2	10247	1409.62232274363	0
2	10258	1411.144172349324	1
2	10259	1411.296739843266	0
2	10268	1412.127289835035	1
2	10269	1412.420025986072	0
2	10278	1413.184118024949	1
2	10279	1413.901947475609	0
2	10288	1414.586771453127	1
2	10291	1415.24493696891	0
2	10303	1416.715816333654	1
2	10306	1417.151604788156	0
2	10322	1418.991976449378	1
2	10323	1419.415733333781	0
2	10335	1420.489941217596	1
2	10340	1421.450872872315	0
2	10352	1423.584059085739	1
2	10353	1423.621226122195	0
2	10378	1426.391938563831	1
2	10379	1426.663202204147	0
2	10390	1427.85276939288	1
2	10391	1428.116218550561	0
2	10400	1429.109681049077	1
2	10401	1429.325965900172	0
2	10410	1430.554306298736	1
2	10413	1431.003784769086	0
2	10420	1431.982469196198	1
2	10421	1432.2842713073	0
2	10430	1433.158961712869	1
2	10431	1433.617830113332	0
2	10440	1434.519701995635	1
2	10441	1435.069943558622	0
2	10452	1436.331515305962	1
2	10453	1436.486451635475	0
2	10460	1437.620664909109	1
2	10461	1438.393305635697	0
2	10470	1439.448901972485	1
2	10471	1440.329563801655	0
2	10482	1441.558883289496	1
2	10483	1441.867304265511	0
2	10492	1442.442185043604	1
2	10493	1443.362344723765	0
2	10500	1444.56607760368	1
2	10501	1444.697011200536	0
2	10505	1444.973668432725	1
2	10510	1445.661129141983	0
2	10514	1445.662667540026	1
2	10519	1446.164518636989	0
2	10523	1446.182425824514	1
2	10524	1447.042325623811	0
2	10528	1447.191692689757	1
2	10529	1447.489331871283	0
2	10536	1448.905331971895	1
2	10537	1449.111227749393	0
2	10548	1449.845499838681	1
2	10549	1450.117335106584	0
2	10562	1451.580152428693	1
2	10563	1451.675386055059	0
2	10567	1451.726127952414	1
2	10568	1452.233093519847	0
2	10577	1452.897919873807	1
2	10578	1453.431646982779	0
2	10587	1454.391284401832	1
2	10588	1455.15035368061	0
2	10668	1467.279731225901	1
2	10673	1467.727117118486	0
2	10687	1469.339067451861	1
2	10688	1469.726300175269	0
2	10705	1471.136503040002	1
2	10706	1471.678091849215	0
2	10717	1472.630449464479	1
2	10718	1473.215939233048	0
2	10728	1474.472481084037	1
2	10729	1475.061141137281	0
2	10741	1476.711897106812	1
2	10742	1477.234337181147	0
2	10746	1477.65353765301	1
2	10747	1477.765840280117	0
2	10765	1479.350963596024	1
2	10768	1480.054050022239	0
2	10774	1480.790576360474	1
2	10777	1481.025352434876	0
2	10781	1481.126244880473	1
2	10782	1481.986942501754	0
2	10786	1482.263148015865	1
2	10787	1482.690682393235	0
2	10791	1482.936630637541	1
2	10792	1483.38392940426	0
2	10796	1483.605197011726	1
2	10797	1484.346464303431	0
2	10801	1484.595213760274	1
2	10802	1485.05825039867	0
2	10811	1485.747198332996	1
2	10813	1485.939160803484	2
2	10814	1486.130194801527	1
2	10817	1486.925938306439	0
2	10821	1487.032916095221	1
2	10822	1487.676651802908	0
2	10826	1487.745860088326	1
2	10829	1488.427370134618	0
2	10833	1488.640647670095	1
2	10836	1489.16053382742	0
2	10840	1489.468016343265	1
2	10841	1490.04483709011	0
2	10845	1490.106777494125	1
2	10846	1490.615813619194	0
2	10850	1490.674216347434	1
2	10851	1491.592399278392	0
2	10858	1492.356404203329	1
2	10860	1492.473343156599	2
2	10861	1492.814910052173	1
2	10864	1493.681969174199	0
2	10879	1495.708676056496	1
2	10881	1495.987324726559	2
2	10882	1496.090181052932	1
2	10885	1497.060197891868	0
2	10889	1497.25746705538	1
2	10890	1497.491755487272	0
2	10897	1498.637508130672	1
2	10898	1498.891758142798	0
2	10904	1499.120580978728	1
2	10909	1499.812142401808	0
2	10915	1499.861216618228	1
2	10916	1500.683267737473	0
2	10920	1500.943390062931	1
2	10921	1501.476170951235	0
2	10925	1501.583591352941	1
2	10926	1501.926491416632	0
2	10930	1502.105816421852	1
2	10933	1502.860340795307	0
2	10937	1503.154979982306	1
2	10938	1503.40299004015	0
2	10942	1503.616513539271	1
2	10943	1504.223832928077	0
2	10947	1504.289149332516	1
2	10948	1505.201582301235	0
2	10952	1505.22453397028	1
2	10953	1505.685803634547	0
2	10957	1506.171023605684	1
2	10958	1506.609597679287	0
2	10962	1506.716329516912	1
2	10963	1507.034490836052	0
2	10970	1507.953816037426	1
2	10972	1508.281055641264	2
2	10973	1508.48233673313	1
2	10977	1508.549094107668	2
2	10980	1508.937851331209	1
2	10983	1509.595884141012	0
2	10987	1509.671471293339	1
2	10988	1510.382126692043	0
2	10992	1510.496943316779	1
2	10993	1511.172638699285	0
2	10997	1511.313799821168	1
2	10998	1512.055468905497	0
2	11005	1513.103704774453	1
2	11007	1513.127790441065	2
2	11010	1513.71832083884	1
2	11015	1514.340687998816	0
2	11022	1515.16054332917	1
2	11023	1515.380386566942	0
2	11032	1516.098525612448	1
2	11033	1516.862328267063	0
2	11040	1517.859071846204	1
2	11041	1518.314948285383	0
2	11050	1518.922339857245	1
2	11051	1519.196981639241	0
2	11110	1527.167519455696	1
2	11111	1527.473625633225	0
2	11118	1528.130265106778	1
2	11119	1528.54791048459	0
2	11130	1529.277158032357	1
2	11131	1529.703062710783	0
2	11144	1531.556545053203	1
2	11149	1532.145403551649	0
2	11470	1579.94694906163	1
2	11473	1580.646611827996	0
2	11480	1581.338189629348	1
2	11483	1582.223336851097	0
2	11487	1582.567008083446	1
2	11488	1582.974087964849	0
2	11492	1583.528458333418	1
2	11493	1583.840561278177	0
2	11499	1584.131850630954	1
2	11502	1584.460319385131	0
2	11512	1585.218247178235	1
2	11513	1585.251005748532	0
2	11517	1585.645082259002	1
2	11523	1585.903910403039	2
2	11526	1586.003088665393	1
2	11530	1586.063484644017	2
2	11533	1586.83084472745	1
2	11536	1587.449973923306	0
2	11540	1587.710285797054	1
2	11541	1587.890857203783	0
2	11545	1588.074145197695	1
2	11550	1588.770216770948	0
2	11562	1590.173725102743	1
2	11565	1590.634941100667	0
2	11571	1590.974304537192	1
2	11572	1591.457096918731	0
2	11576	1591.502424832789	1
2	11579	1591.942405014264	0
2	11583	1592.061392787625	1
2	11584	1592.811958706065	0
2	11588	1593.222142789964	1
2	11589	1593.761121874222	0
2	11593	1593.84949391804	1
2	11594	1594.742109246425	0
2	11598	1594.784006949562	1
2	11599	1595.645930088464	0
2	11603	1595.667939773564	1
2	11605	1596.032466640007	2
2	11606	1596.134913239222	1
2	11610	1596.551470510605	2
2	11611	1596.666576596269	1
2	11615	1596.762408887708	2
2	11616	1597.485828418064	1
2	11620	1597.708042854963	2
2	11621	1598.025656410272	1
2	11624	1598.589581772138	0
2	11628	1598.704696749163	1
2	11631	1599.489750391955	0
2	11635	1599.882463173891	1
2	11636	1600.250801199221	0
2	11640	1600.386231733092	1
2	11641	1601.149388907862	0
2	11645	1601.250172644176	1
2	11648	1601.961478986976	0
2	11652	1602.010667732079	1
2	11654	1602.168456611542	2
2	11656	1602.420675827209	3
2	11657	1602.44640533292	2
2	11661	1602.72340726817	3
2	11662	1602.962860727741	2
2	11666	1603.841775279721	3
2	11667	1603.869594494591	2
2	11671	1603.967956365207	3
2	11672	1604.416553197859	2
2	11676	1604.458239872562	3
2	11677	1605.398537336487	2
2	11680	1605.96443353315	1
2	11684	1606.501060341447	2
2	11686	1606.613973292289	3
2	11687	1606.8190005303	2
2	11691	1607.337060882832	3
2	11692	1607.523014852136	2
2	11696	1607.663536261697	3
2	11697	1608.146354398235	2
2	11701	1608.264458504336	3
2	11704	1608.949888779466	2
2	11708	1609.002233923736	3
2	11709	1609.741642216976	2
2	11713	1609.903941502721	3
2	11714	1610.247564932528	2
2	11720	1610.896096774138	3
2	11721	1611.077982304861	2
2	11725	1611.193957306639	3
2	11726	1611.944447815894	2
2	11730	1612.222193655972	3
2	11731	1612.376067031697	2
2	11735	1612.814604662277	3
2	11736	1613.261846318758	2
2	11739	1613.79011243485	1
2	11743	1614.034735859925	2
2	11745	1614.399176554202	3
2	11746	1614.552078161771	2
2	11750	1614.660984169317	3
2	11751	1615.33741122406	2
2	11754	1615.946213213643	1
2	11758	1616.039979218289	2
2	11760	1616.28409943358	3
2	11761	1616.390574275665	2
2	11764	1616.815621118536	1
2	11768	1616.878413666031	2
2	11769	1617.317508316375	1
2	11772	1618.006201685695	0
2	11776	1618.066409156443	1
2	11777	1618.659026477216	0
2	11781	1618.818843087627	1
2	11782	1619.148871506946	0
2	11786	1619.311206762715	1
2	11787	1620.146381367985	0
2	11791	1620.293514002176	1
2	11792	1620.755740905702	0
2	11799	1621.76567980716	1
2	11800	1621.974940683143	0
2	11806	1622.153240414647	1
2	11807	1622.548522079885	0
2	11811	1622.614128451473	1
2	11812	1623.010663196174	0
2	11816	1623.645881869572	1
2	11817	1623.985634439913	0
2	11821	1623.994921875901	1
2	11823	1624.140792098983	2
2	11824	1624.975531906224	1
2	11828	1625.179092922015	2
2	11829	1625.591557712349	1
2	11833	1625.963284610783	2
2	11834	1626.558543377378	1
2	11838	1627.383055092095	2
2	11839	1627.456440993453	1
2	11843	1627.776574724012	2
2	11844	1628.025553291299	1
2	11848	1628.256293695034	2
2	11849	1628.509615758908	1
2	11853	1628.650108580194	2
2	11856	1629.184546746043	1
2	11860	1629.194791565663	2
2	11861	1630.094611494485	1
2	11865	1630.228760407464	2
2	11866	1631.022567513454	1
2	11870	1631.134762339703	2
2	11871	1631.725058540198	1
2	11875	1631.816050605709	2
2	11876	1632.38665721543	1
2	11880	1632.574669092589	2
2	11882	1632.615504446801	3
2	11883	1632.791468769413	2
2	11887	1633.273597475105	3
2	11889	1633.643090429146	4
2	11890	1633.668452160767	3
2	11894	1633.721660370369	4
2	11895	1634.305871020685	3
2	11898	1634.737369577874	2
2	11901	1635.377307196342	1
2	11905	1635.512410096137	2
2	11907	1635.589990111688	3
2	11908	1635.895304707818	2
2	11912	1636.309636789162	3
2	11913	1636.49544802686	2
2	11917	1636.559615789749	3
2	11918	1637.181608202875	2
2	11922	1637.639740598654	3
2	11923	1637.713341099823	2
2	11927	1638.140740561754	3
2	11928	1638.204785259774	2
2	11932	1638.232058936659	3
2	11937	1638.809420199746	2
2	11941	1638.950192458987	3
2	11943	1639.179263383998	4
2	11944	1639.700152915118	3
2	11948	1640.138105805804	4
2	11949	1640.404206041673	3
2	11953	1640.65767834416	4
2	11954	1641.14762436576	3
2	11958	1641.477817290868	4
2	11959	1641.670257641196	3
2	11963	1641.754722276547	4
2	11964	1642.219601616177	3
2	11968	1642.344702751116	4
2	11969	1642.704748402543	3
2	11973	1642.98624057499	4
2	11974	1643.636906929647	3
2	11977	1644.07042763816	2
2	11981	1644.51935539337	3
2	11982	1644.69078442185	2
2	11986	1644.755837642638	3
2	11987	1645.119706322074	2
2	11991	1645.707894459412	3
2	11992	1645.821686493054	2
2	11996	1645.974309391681	3
2	11997	1646.397729277153	2
2	12001	1646.74805333452	3
2	12002	1647.116577158224	2
2	12006	1647.244240706046	3
2	12007	1647.990391497275	2
2	12010	1648.420034081636	1
2	12014	1648.502817729287	2
2	12016	1648.702289930436	3
2	12017	1649.259497144639	2
2	12021	1649.321493151112	3
2	12022	1649.677118502238	2
2	12026	1649.718862077732	3
2	12027	1650.404120934901	2
2	12031	1650.591300312924	3
2	12034	1651.31461259267	2
2	12038	1651.460068244963	3
2	12039	1652.045866157587	2
2	12043	1652.162335031892	3
[...]
6	145509	19785.812219165954	9424.4487022991
6	145517	19786.675072325337	4217.5003340897
6	145525	19788.521022568307	16345.244860901
6	145587	19797.348468548004	12774.094856744
6	145595	19799.230226804772	9427.1263584108
6	145613	19802.081945618045	9414.8426913786
6	145693	19813.384227664155	9410.8716377342
6	145778	19824.766606846956	15603.121308617
6	145783	19825.611301280643	14703.882788412
6	145934	19844.15334846465	14717.858559283
6	146255	19886.838362271282	14001.192743432
6	146319	19896.127796206473	7256.9252872889
6	146523	19924.517996488361	7225.2829271626
6	146529	19925.829603080906	9379.1885287051
6	146595	19934.023040946236	9360.6611723037
6	146744	19952.955431475712	14801.205254341
6	147052	19992.588366702564	11536.281167015
6	147204	20015.363101625249	7259.5691435376
6	147514	20056.448741651928	19892.154847595
6	147522	20057.725319465478	7296.0818095869
6	147552	20060.950424063247	4358.8736554744
6	147706	20079.656748937855	7263.9058702046
6	147768	20088.388260152977	14904.592978852
6	147791	20092.106021223725	7266.152151449
6	147794	20092.640038101976	7264.273668281
6	147814	20095.313719473309	4362.8180099705
6	148005	20122.048769057534	4286.9804066167
6	148147	20141.784752822005	11580.27197117
6	148233	20154.482193733695	15879.782761377
6	148268	20159.6990599126	14961.714725938
6	148605	20204.125018680689	4335.2770779727
6	148725	20220.281813542905	7246.4379079621
6	148777	20227.161060839366	7216.4946154471
6	148898	20245.068886440699	4367.2325905291
6	148913	20247.061326429745	4364.3956404453
6	149059	20267.329029876025	7166.1977823256
6	149522	20331.19362339245	7199.9776625237
6	149581	20339.459069585314	4399.6101067636
6	152375	20721.475419183432	13517.511914211
6	152551	20744.595855229192	7501.3729744438
6	153395	20860.136784248363	16462.832384911
6	153480	20872.055653416535	4827.6992729897
6	153492	20873.660385587562	10139.788173561
6	153571	20886.202031681437	4823.2700689958
6	153580	20887.180847648002	15588.59911063
6	153671	20900.140590679768	7581.3469137405
6	153705	20906.659901805159	4803.5612172879
6	153752	20913.974701389514	7522.1719693168
6	153772	20916.918166813796	7456.5527438209
6	153789	20919.97011376003	7442.2599312623
6	154487	21013.187271642581	16552.461601735
6	154586	21025.860948756931	15663.075561599
6	155049	21094.445858168364	10257.786691121
6	156331	21264.855013468756	10391.043128277
6	156364	21269.452753156691	4997.9346639781
6	156507	21287.331190021602	16756.51878321
6	156545	21292.153892778546	19443.908829488
6	156583	21297.781711010109	5003.6969395538
6	156738	21319.453631325191	7639.670116076
6	156795	21327.209303253409	5013.7961453693
6	156988	21352.687129423658	4948.0817787288
6	157022	21357.667703568731	4930.7701456414
6	157037	21359.374295104882	4923.3352184161
6	157064	21363.409790848737	16808.681688066
6	157102	21368.567559517065	17696.640123953
6	157120	21371.331255301584	4898.012235492
6	157133	21373.6581945767	10381.308476363
6	157277	21392.542178223593	15965.178433654
6	157307	21396.628497243332	15967.288932705
6	157338	21401.402381709016	10396.195119774
6	157731	21453.547681348477	16802.667777996
6	157927	21480.86584582984	15046.635165031
6	157965	21487.322005342538	7699.8076842605
6	158119	21508.241991448576	4957.0903814486
6	158186	21518.953496901446	13857.699876407
6	158317	21534.65037884641	4893.9909177015
6	158322	21535.473872275404	4894.0698779032
6	158509	21559.299932087477	13841.682827299
6	159135	21639.919500460968	7704.8179622196
6	159659	21714.200821684184	5019.3406063922
6	159675	21716.663434573891	13901.255109845
6	159683	21718.099249391001	13902.617356273
6	159799	21734.290254902397	12829.346926819
6	160119	21775.910778142442	12852.186916848
6	160203	21791.022876147669	13946.287474279
6	160227	21795.705296619771	16286.450330417
6	160255	21799.555885316221	10576.119083338
6	160308	21807.374449178087	20499.751764654
6	160336	21812.158563501131	7719.7791770194
6	160388	21818.88981359105	7659.7500166361
6	160415	21824.520857209454	4966.5552914083
6	160466	21831.955902383173	4900.8856953752
6	160570	21842.447481174837	4869.7256538614
6	160806	21873.138036428324	18006.253758171
6	160847	21880.707458778494	10634.73492317
6	160859	21882.119506747579	12822.228965332
6	161219	21931.878396552686	4787.8728157448
6	161542	21975.73252027298	4737.5292662142
6	161551	21977.654837802542	4737.9056369932
6	161622	21986.856206021854	4696.1939500876
6	161651	21990.649945227451	4684.9255610121
6	162348	22084.824101294747	7853.8229448276
6	162373	22089.686950385647	12792.67432418
6	162418	22097.086532965054	7839.5907156107
6	162521	22110.740111028202	7831.9544554014
6	162681	22131.469541239538	4772.6524268129
6	162831	22154.517188143248	7807.8294312777
6	162942	22168.403224993297	7812.2975308118
6	162956	22170.070292008468	12665.060930612
6	162976	22173.234638235425	14273.520318105
6	163043	22182.510111444479	4662.8885124654
6	163053	22183.797899724672	4662.7681342662
6	163080	22186.717257630441	4664.096835426
6	163793	22279.440134582421	4702.1966862084
6	163867	22289.175162585623	4680.5420522051
6	163883	22291.905901134371	18409.994272649
6	163943	22299.602433410784	10845.598175679
6	164057	22315.114811170647	18396.153951929
6	164221	22337.966725139819	4680.1778722605
6	164262	22343.350504109717	14372.396046638
6	164292	22347.574865535588	4683.1510348756
6	164334	22352.945507647225	12768.799662865
6	164583	22386.92057023932	15794.119392099
6	165159	22461.814816944566	15852.563742501
6	165270	22477.703517460854	15798.335813364
6	165340	22487.666150021445	4710.9053477955
6	165354	22490.751249609128	4711.5017375775
6	166224	22605.732575548429	4813.6499056351
6	166780	22680.16083600976	13034.067684379
6	167344	22759.06571136907	8210.5085650593
6	167478	22776.916686553256	4883.2242568149
6	167558	22788.721088378299	14717.529298005
6	167924	22837.440244167606	19630.25667447
6	167937	22839.159080977254	17978.976505054
6	168561	22923.251501490724	22423.573385386
6	168577	22925.867150131555	4850.7830813227
6	168628	22931.490276744485	4815.1275960121
6	168658	22935.631538897696	4789.1479880698
6	168765	22950.767561965331	4693.9995253023
6	168913	22969.668963226105	4695.8448331852
6	169444	23042.440321870461	4645.3006303709
6	170331	23165.785370093712	4671.3383107525
6	170339	23167.071083511726	4659.697008963
6	170452	23180.636779218948	4607.8310943532
6	170460	23182.528512137326	4604.2177441058
6	170521	23191.448256112763	4561.279177005
6	170949	23247.94631712291	4592.4621077044
6	170980	23253.627819826207	4589.4436263228
6	171315	23301.683057690116	4585.9140344128
6	171857	23373.344060344327	11628.478986851
6	171901	23380.178199385464	4632.059271049
6	171946	23385.797196977615	13578.419373652
6	172038	23398.389291805803	11622.891331442
6	172085	23407.845786279935	15271.820466743
6	172108	23411.286942523188	8690.0035627118
6	172132	23414.520318749249	4598.8195436291
6	172152	23416.02715012569	4596.8315475137
6	172186	23420.439947682042	4598.9130685508
6	172310	23436.99753909696	16585.119644004
6	173362	23574.548039110957	13627.848008793
6	173556	23599.000167240688	4682.1080979734
6	173562	23600.328059494329	11719.015048749
6	173572	23601.677302451219	11714.540896937
6	173596	23604.620800083663	8834.3782105999
6	174422	23715.930887672833	11756.6935471
6	174851	23773.501217920674	13796.625845071
6	175728	23893.870921765136	9075.7981075985
6	175758	23897.806849790326	9069.0971034985
6	175801	23904.045095815844	13870.687302778
6	175846	23909.756748992259	9069.0333528486
6	176328	23974.127445947109	4899.9960650121
6	176331	23974.76328315014	4898.7946448012
6	176339	23976.267993480815	4894.0871912742
6	176354	23977.77537061885	4892.9337980483
6	176357	23978.216954633417	4892.5553432357
6	176383	23982.064146701909	4879.8009835717
6	176395	23983.656807469587	4880.1843960182
6	176460	23993.79836043139	9000.5197432413
6	176557	24006.971480765016	8921.8565500847
6	176811	24039.976970047558	8920.3526353976
6	177024	24070.544558986893	8939.2666264527
6	177150	24087.894038688265	8891.5201506057
6	177193	24094.052870468715	8889.6204709071
6	177300	24108.192323502306	8857.8053060566
6	177353	24114.984865239183	4940.9742157431
6	177396	24121.616539419316	4920.7817621296
6	177546	24143.515231319297	4767.8652995003
6	177593	24151.201049833664	4742.7516571743
6	177598	24152.094128449553	11994.241097538
6	177608	24153.649826739602	4742.8376776618
6	177619	24155.863491142414	4741.7067929592
6	177640	24159.261752255088	4741.9753323784
6	177655	24160.969859855542	4737.9855462038
6	177742	24174.12976820023	11869.872639569
6	177837	24185.115395923667	21951.606748433
6	178022	24209.328935525067	4720.9181868597
6	178065	24215.280152738526	4725.2262527116
6	178531	24278.334774925151	11927.64710673
6	178534	24278.746099288725	11925.0294242
6	178563	24284.078065644448	21002.740183009
6	178646	24295.739676934585	11894.360506722
6	178674	24300.300191330222	23070.309032205
6	178716	24306.243998608841	11864.415945961
6	178846	24324.969048326521	17388.760310235
6	178864	24327.365147206432	19303.876872248
6	179046	24352.615668173613	4777.2411959622
6	179053	24353.118952629682	4772.9948105681
6	179114	24361.575883775916	4743.6644056872
6	179124	24362.984675704887	4720.9532656473
6	179876	24464.822043153379	4728.3516858426
6	179941	24473.510120227294	9009.8950760555
6	179984	24478.950776359545	14182.432140849
6	180005	24483.513931770682	9007.162620567
6	180074	24492.842322685537	14192.102636676
6	180133	24501.71872638079	16172.223540376
6	180157	24504.839891988287	8988.8077602767
6	180168	24507.197916630904	4734.5061800867
6	180235	24517.239388562661	11915.430540725
6	180241	24518.352750043307	17506.859037523
6	180251	24520.194856377893	17505.121571081
6	180328	24532.203277348044	17484.338435884
6	180453	24549.313962806546	4680.0430816036
6	180495	24554.617976420948	4664.9717315445
6	180762	24590.032707795705	18701.109524939
6	181093	24637.104974442131	14092.213624326
6	181116	24641.100720470042	14081.890683382
6	181239	24657.238442646493	14088.02174564
6	181575	24701.87706314983	9047.9740726455
6	181657	24714.289921316888	23833.697000097
6	181762	24728.452033311886	9058.9986138201
6	182961	24891.956630481285	12089.725359368
6	182985	24895.430672159715	21307.812085022
6	183005	24897.817837845271	17754.869703493
6	183216	24926.516259764521	4845.8065910541
6	183277	24936.020081437996	16424.846617997
6	183282	24936.640323661046	18990.478624065
6	183285	24937.145589095551	20672.524819649
6	183326	24943.948124020511	17793.425569813
6	183361	24949.325381409154	9195.4933242451
6	183438	24959.609707187545	12122.208643446
6	183521	24971.082565472609	16407.378628467
6	183577	24978.117277348609	16406.371924802
6	185803	25279.842507158314	12229.027445447
6	188323	25610.271992819059	5312.5262143525
6	188734	25664.096862709474	5340.4036268005
6	188740	25665.169752627889	12556.348737037
6	188833	25675.888442810297	9739.5155676413
6	188841	25677.7389557227	5337.1675378596
6	189002	25698.877267963066	5320.8267666974
6	189039	25703.164472863962	5303.5687354649
6	189228	25729.074765254743	5191.9971298729
6	189260	25732.217298654839	5170.8477173252
6	189391	25750.979760346422	5102.2287818836
6	189516	25769.998965229978	9787.9455210892
6	189528	25771.672851575771	17182.319896688
6	189531	25772.171990667889	12544.005096267
6	189577	25778.097288210131	19775.209791044
6	189580	25778.611669532209	20565.070086022
6	189587	25779.389281829865	20561.519351216
6	189601	25780.705723658622	5046.9758576423
6	189629	25786.603075532242	21467.638739749
6	191403	26026.069893759026	21685.726193244
6	191408	26026.633329549993	21680.612708412
6	191429	26029.86233909419	17391.110366868
6	191460	26033.330477491488	5209.8855111739
6	191578	26049.269035665272	19979.512863153
6	191597	26053.085818930344	18755.04459533
6	191636	26058.371572304426	20762.130683297
6	191699	26066.919007103522	20728.337832066
6	191702	26067.847137355576	12742.627151046
6	191776	26077.827431123986	12686.249152741
6	191976	26104.505540593807	5178.7064684833
6	192116	26123.30232220958	9960.0921801016
6	192525	26177.175427287862	9984.460596235
6	192684	26197.55180335962	12598.747671312
6	192700	26200.226552570609	5194.3179355463
6	192713	26202.110581447461	5187.6299290004
6	192771	26210.525883553407	21734.123281275
6	192786	26212.684226152391	19952.963841869
6	192831	26220.102503500877	15453.72549593
6	192871	26225.86363553386	5169.6164098786
6	192974	26240.838651712146	10002.887056317
6	193036	26250.626842271072	9999.6434749762
6	193115	26260.824830831121	5083.1737471189
6	193145	26264.991057601991	5069.9036429883
6	193199	26272.134201242777	5046.006431098
6	193355	26294.407525224145	21795.963769733
6	193498	26313.714196023857	19942.13865966
6	193536	26318.627241250779	19945.075439862
6	193539	26319.053504382818	5040.5999937081
6	193578	26324.617803911864	21796.313055616
6	193644	26333.765694969613	5017.7983346671
6	193679	26338.578052507201	18862.861660296
6	193696	26340.452037127362	5015.1121965919
6	193720	26343.41344386395	10010.027659696
6	193725	26344.088460312131	10010.352504183
6	193789	26353.745010276044	9933.8301916833
6	193871	26364.603672700605	22695.078881821
6	193941	26375.612535507833	21763.229890827
6	193992	26382.887360394416	12670.359086952
6	194019	26386.613435422111	15352.607226375
6	194029	26388.124232883513	12663.626870256
6	194076	26394.673515431483	18851.794063254
6	194079	26395.661364334675	4971.3243257635
6	194159	26406.575729790462	4967.238882012
6	194176	26408.444486662179	19980.710214735
6	194189	26410.923729622915	25506.162431869
6	194925	26511.006556181467	18935.416786973
6	195792	26624.77091375533	12819.906667218
6	195816	26629.437413970377	12806.060956002
6	195853	26634.681873883954	12795.045919116
6	195919	26645.271041886457	10046.862433467
6	195931	26646.973968342593	12785.93081779
6	196007	26657.583455495392	5124.8668288682
6	196040	26662.95949665885	5122.3786134865
6	196047	26663.561128878403	24782.222317061
6	196090	26669.47147643603	15563.416960913
6	196166	26681.002047320219	5109.1973364417
6	196217	26689.328651850668	18937.691454767
6	196259	26693.857677380552	5083.5333432053
6	196515	26728.233574972486	12792.43239188
6	196546	26733.487084103421	18937.67265981
6	196679	26752.362565368508	12810.996015554
6	196736	26760.051885054309	5051.5571785927
6	196739	26760.94477348258	15627.932817729
6	196775	26766.712360257564	5025.3783139688
6	196784	26767.291717228854	5025.8137847818
6	196920	26786.508433777139	15607.174040017
6	196937	26788.525341165716	10039.108059655
6	197022	26801.1659106296	22117.84299978
6	197045	26803.812789018125	20332.307691311
6	197124	26814.695171130402	25515.897059129
6	197169	26821.351938216295	18976.295660354
6	197221	26827.589754352813	20347.973798058
6	197274	26834.122078278661	23901.071327452
6	197448	26857.598910437897	12776.600402291
6	197557	26872.628240325443	10036.91857451
6	197886	26917.761406932867	10021.498137012
6	197899	26919.957817255336	5080.6038629069
6	198973	27064.83677714439	24048.983439992
6	199082	27083.152708174425	17945.744695284
6	199101	27085.455430583002	17938.786582057
6	199112	27087.082425299471	10002.636256638
6	199623	27149.829922280412	5198.094830189
6	199941	27194.604053886835	9934.3201521048
6	201285	27377.569811627919	5379.9432599359
6	201465	27402.29015351771	5319.1599702405
6	202333	27523.391193721255	18123.693982795
6	202518	27547.806027653158	18131.146697605
6	202561	27554.495626013816	13262.992138048
6	203639	27693.830069534472	13394.788907568
6	203738	27706.888818231914	5566.9263052787
6	203924	27732.810201003395	16393.627376938
6	204018	27745.41833006003	10362.769822283
6	204095	27755.679063306322	10371.452202577
6	204209	27770.916841864253	10319.036736285
6	204408	27798.227753422869	5605.699084391
6	204599	27824.701849553588	5586.7017768202
6	204761	27844.677995598125	21313.520788892
6	205001	27879.828370474367	5596.4984343074
6	205036	27884.247920773359	21335.052959394
6	205062	27888.87925040088	5592.2262306417
6	205346	27927.200729398891	16441.305882357
6	205385	27933.405923586148	16433.920630932
6	205395	27935.36347110611	22363.218426936
6	205421	27939.264814225067	18362.817353767
6	205424	27939.766583633138	13493.402457877
6	205814	27993.091366587851	5639.9239873274
6	205829	27995.649874528024	5639.9822916785
6	205846	27997.641359957998	16446.854340346
6	205957	28013.129618250945	26951.258270241
6	205999	28020.071731701253	5642.6775238283
6	206016	28021.817516142962	10313.887781769
6	207384	28204.405002816659	5740.182738475
6	207448	28213.064413612461	16611.343250339
6	207496	28219.706304865781	10440.443087798
6	207515	28223.406619297327	22595.265108599
6	207617	28239.61507787624	5664.7125699538
6	207630	28241.367618970792	22608.555609245
6	207734	28256.606549662523	21541.549340737
6	207769	28261.420817564645	25718.973289512
6	207825	28269.882979517647	5555.0564526312
6	207841	28271.716049145425	5553.9734761596
6	207884	28277.943430921186	13738.600826901
6	207907	28280.666908493714	18577.254434625
6	207913	28282.556660690979	18576.888791142
6	207927	28284.296260288294	25110.163388451
6	207963	28290.46334598994	24256.593727103
6	208325	28342.325574967336	13745.758900856
6	208436	28358.45254491342	5532.6795178655
6	208454	28360.894362216422	26954.230512958
6	208504	28368.840182043219	16688.062303517
6	208512	28370.525542732354	22689.359533697
6	208538	28374.835619586451	5513.8703992692
6	208554	28377.744773586723	13771.467694189
6	208719	28399.085144783018	16709.423169902
6	209080	28449.129473773038	21683.87391755
6	209127	28454.58159594752	10423.257804715
6	209163	28458.824938656502	10422.279066796
6	209838	28553.017040740115	10370.255748438
6	209898	28561.858763382604	10329.315058101
6	209906	28563.214966345691	5610.2859726795
6	210016	28577.795017989652	10301.682316359
6	210481	28640.77407599014	5637.1906339269
6	212050	28853.292298819788	10515.791389132
6	212068	28856.280005948071	10478.971865908
6	212111	28864.179703760856	5817.0421889274
6	212120	28865.975970016943	10442.067189707
6	212123	28866.671443736564	10440.941548673
6	212149	28869.250497907643	10425.921839903
6	212185	28872.441196219633	5755.7607693757
6	212218	28877.65371887671	5723.487421054
6	212226	28879.561024502397	10418.819696194
6	212234	28880.898390763498	10415.889058379
6	212521	28921.044075430241	5707.4534748575
6	212572	28928.726035284542	10234.13151685
6	212600	28933.10462749406	5653.2581867309
6	212607	28933.631628293276	5646.7418836004
6	212635	28939.240564294868	27528.897854209
6	213237	29015.669082430895	26858.344821104
6	213336	29029.480635706062	10196.047888835
6	213357	29032.889250461809	17226.091290481
6	213540	29055.498517996076	5612.5810100426
6	213607	29064.936545098204	14332.183977654
6	215794	29365.729357771623	5912.2858857993
6	215950	29386.110617031391	5889.2351793264
6	216173	29415.967281343419	10531.858476541
6	216468	29456.694300909344	21303.42510761
6	216488	29459.569176597478	10567.084015698
6	216569	29472.381983963357	5897.6124001999
6	216580	29474.604280249405	5896.7507231469
6	216604	29478.403723935879	19524.489456211
6	216679	29487.030181194145	5893.6311410915
6	216882	29512.48669029656	14749.368724491
6	216975	29525.866155689396	5893.0353740639
6	216988	29527.934682111955	14753.102107509
6	217017	29533.367093361123	5880.3303334314
6	217096	29544.042453314595	5847.5697570515
6	217176	29555.285463819697	5801.1271168047
6	217590	29613.580626701046	5723.5346489083
6	217635	29618.419883179939	19594.035284134
6	217980	29667.118245626237	19617.870208706
6	217986	29669.018435490267	14807.016796768
6	218049	29678.100168049007	19561.114771975
6	218054	29679.007730708129	14775.039343142
6	218090	29684.509943996973	17582.904795901
6	218093	29684.994789192544	17580.826630735
6	218120	29689.228499478147	14747.2125558
6	218349	29721.272603121493	5675.224554407
6	218362	29723.088766567036	5655.6284285001
6	218901	29796.081089518637	10586.713754579
6	218908	29796.908622045115	10575.001155153
6	218957	29805.153683512469	10562.759074652
6	218998	29812.666712708816	14549.33079984
6	219261	29845.717812815497	14568.27847494
6	219272	29848.026760809172	17677.359432538

