version 2
run First_exit_8-19-20191114-11:42:36-8919
attr configname First_exit_8
attr datetime 20191114-11:42:36
attr experiment First_exit_8
attr inifile omnetpp.ini
attr iterationvars ""
attr iterationvarsf ""
attr measurement ""
attr network ResponseTimeNetwork
attr processid 8919
attr repetition 19
attr replication #19
attr resultdir results
attr runnumber 19
attr seedset 19
param **.Source.interArrivalTime exponential(4s)
param **.jobPriority bernoulli(0.4)
param **.PS.serviceTimeU1 "uniform(0.4s, 1.0s)"
param **.PS.serviceTimeU2 "uniform(1s, 1.2s)"
param **.SS1.serviceTime exponential(0.4s)
param **.SS2.serviceTime exponential(0.8s)
param **.PS.exitProbability bernoulli(0.8)

vector 0 ResponseTimeNetwork.QueueU1 queueLength:vector ETV
attr interpolationmode sample-hold
attr title "queue length, vector"
vector 1 ResponseTimeNetwork.QueueU2 queueLength:vector ETV
attr interpolationmode sample-hold
attr title "queue length, vector"
vector 2 ResponseTimeNetwork.sink lifeTimeU1:vector ETV
attr interpolationmode none
attr title "lifetime of arrived jobs U1, vector"
attr unit s
vector 3 ResponseTimeNetwork.sink totalServiceTimeU1:vector ETV
attr interpolationmode none
attr title "the total time spent  by arrived jobs U1, vector"
attr unit s
vector 4 ResponseTimeNetwork.sink lifeTime:vector ETV
attr interpolationmode none
attr title "lifetime of arrived jobs, vector"
attr unit s
vector 5 ResponseTimeNetwork.sink totalServiceTime:vector ETV
attr interpolationmode none
attr title "the total time spent  by arrived jobs, vector"
attr unit s
vector 6 ResponseTimeNetwork.SS2 queueLength:vector ETV
attr interpolationmode sample-hold
attr title "queue length, vector"
vector 7 ResponseTimeNetwork.SS1 queueLength:vector ETV
attr interpolationmode sample-hold
attr title "queue length, vector"
vector 8 ResponseTimeNetwork.sink lifeTimeU2:vector ETV
attr interpolationmode none
attr title "lifetime of arrived jobs U2, vector"
attr unit s
vector 9 ResponseTimeNetwork.sink totalServiceTimeU2:vector ETV
attr interpolationmode none
attr title "the total time spent  by arrived jobs U2, vector"
attr unit s
0	64633	10000.338283665062	0
0	64650	10003.153899366614	1
0	64655	10003.97954904079	0
0	64664	10004.531300967996	1
0	64667	10005.470403538183	0
0	64676	10006.101485671976	1
0	64677	10006.545534974481	0
0	64683	10007.208925529225	1
0	64684	10007.304742526081	0
0	64691	10008.005731928304	1
0	64692	10008.48984592548	0
0	64699	10009.576303787972	1
0	64701	10009.710221588915	2
0	64704	10009.884073623506	1
0	64709	10010.651985873891	0
0	64713	10010.841690632469	1
0	64714	10011.617275973786	0
0	64721	10012.49464904622	1
0	64723	10012.578576395962	2
0	64724	10013.248964336333	1
0	64730	10013.828852897542	2
0	64731	10013.872732044156	1
0	64735	10014.418200845983	2
0	64737	10014.446298213675	3
0	64738	10014.49575363575	2
0	64741	10015.02376528746	1
0	64745	10015.037177630217	2
0	64746	10015.424184662714	1
0	64749	10016.102634149702	0
0	64755	10016.496205949191	1
0	64756	10016.85841155076	0
0	64763	10017.354587221445	1
0	64764	10018.216831464651	0
0	64774	10019.542529171949	1
0	64775	10019.933923289324	0
0	64784	10021.204366740398	1
0	64785	10021.41540934849	0
0	64801	10023.146157585244	1
0	64802	10023.798233830328	0
0	64809	10024.60790264915	1
0	64811	10024.860458524402	2
0	64812	10025.15547504188	1
0	64817	10026.148651797748	0
0	64826	10026.79648774486	1
0	64828	10026.909672760109	2
0	64829	10027.057580263777	1
0	64834	10027.784144831546	0
0	64838	10027.803413737639	1
0	64840	10027.807813793024	2
0	64841	10028.398008138923	1
0	64844	10028.940941418944	0
0	64920	10040.450847665144	1
0	64925	10040.939624267551	0
0	65010	10054.333779590237	1
0	65011	10054.700148967107	0
0	65020	10055.93180228906	1
0	65021	10056.246389161761	0
0	65030	10057.103806633218	1
0	65031	10057.534156845522	0
0	65040	10058.440884502505	1
0	65041	10058.973200715252	0
0	65195	10130.707439775433	1
0	65196	10131.302441020781	0
0	65205	10132.597117217078	1
0	65206	10132.669635942398	0
0	65215	10133.963024507669	1
0	65216	10134.007274731022	0
0	65225	10135.115053938376	1
0	65227	10135.636782469102	2
0	65228	10135.971434793274	1
0	65233	10136.669317461389	0
0	65237	10136.925547133247	1
0	65239	10137.113801922093	2
0	65240	10137.395575028264	1
0	65244	10137.836463220715	2
0	65245	10138.23814996544	1
0	65249	10138.90194732359	2
0	65250	10138.944923143207	1
0	65254	10139.128901558904	2
0	65255	10139.580534830714	1
0	65258	10140.120311184811	0
0	65262	10140.325668510262	1
0	65264	10140.495167491669	2
0	65265	10140.756616438065	1
0	65268	10141.755657737494	0
0	65272	10142.328187596284	1
0	65273	10142.580192679843	0
0	65277	10142.970602982427	1
0	65279	10143.242082019425	2
0	65280	10143.330590772839	1
0	65283	10144.093073943002	0
0	65287	10144.117554650227	1
0	65290	10144.967145729136	0
0	65297	10145.563435343453	1
0	65299	10145.713714084376	2
0	65301	10146.15988916589	3
0	65302	10146.237985799719	2
0	65309	10147.161144540903	1
0	65313	10147.491800835414	2
0	65315	10147.732485803303	3
0	65316	10148.019368100005	2
0	65320	10148.304178170138	3
0	65321	10148.704327224453	2
0	65325	10148.849619594692	3
0	65326	10149.502220018652	2
0	65329	10150.495213925118	1
0	65333	10150.646488826495	2
0	65334	10150.929080115702	1
0	65338	10150.932288334869	2
0	65340	10150.970822466517	3
0	65341	10151.554278523453	2
0	65345	10151.567633018751	3
0	65346	10152.050804599725	2
0	65350	10152.419477588351	3
0	65352	10152.862971772028	4
0	65353	10153.022207625933	3
0	65356	10153.48429820675	2
0	65360	10153.486090184492	3
0	65361	10154.257772591967	2
0	65365	10154.426574183114	3
0	65366	10155.232433030825	2
0	65370	10155.330705780453	3
0	65371	10155.831386055635	2
0	65374	10156.66406500151	1
0	65377	10157.539638043219	0
0	65381	10157.944929029256	1
0	65382	10158.226342854487	0
0	65389	10159.213130475424	1
0	65390	10160.080079874747	0
0	65399	10160.894836866052	1
0	65400	10161.345396854381	0
0	65409	10162.704437144106	1
0	65410	10163.052368841671	0
0	65419	10164.047033550437	1
0	65422	10164.683547744459	0
0	65431	10165.951463027616	1
0	65432	10166.070990283625	0
0	65436	10166.674149132614	1
0	65439	10167.026351485565	0
0	65443	10167.196931989853	1
0	65444	10167.460335131898	0
0	65448	10167.792101668511	1
0	65449	10167.878111400619	0
0	65459	10169.096539410515	1
0	65463	10169.606294037831	2
0	65464	10169.853873883538	1
0	65469	10170.826590583637	0
0	65473	10171.066858718612	1
0	65474	10171.677513932833	0
0	65478	10171.711963492815	1
0	65479	10172.35528669192	0
0	65483	10172.641247016969	1
0	65484	10172.77427846191	0
0	65488	10173.261960803484	1
0	65489	10173.674724307866	0
0	65493	10173.810351946164	1
0	65494	10174.226246864093	0
0	65498	10174.514609755756	1
0	65499	10175.106985104015	0
0	65503	10175.564422773774	1
0	65504	10175.993965898897	0
0	65508	10176.241823213773	1
0	65509	10176.540296166321	0
0	65513	10177.159384246352	1
0	65514	10177.371804404236	0
0	65518	10177.477276767845	1
0	65520	10177.584218134341	2
0	65521	10177.838607663033	1
0	65525	10177.948516280499	2
0	65526	10178.711697911541	1
0	65530	10178.766899781531	2
0	65531	10179.709443557193	1
0	65535	10179.869955333166	2
0	65536	10180.610039202148	1
0	65540	10180.746102898382	2
0	65541	10181.257830519579	1
0	65545	10181.261713715188	2
0	65548	10181.706785610528	1
0	65552	10182.405101514657	2
0	65553	10182.688090472599	1
0	65556	10183.207064462523	0
0	65560	10183.758856913462	1
0	65561	10184.115309820534	0
0	65573	10185.868262707999	1
0	65574	10185.996546132933	0
0	65599	10190.458858396153	1
0	65600	10190.754830416597	0
0	65611	10191.747627402238	1
0	65613	10192.401582218218	2
0	65614	10192.647939582846	1
0	65617	10193.379996544381	0
0	65631	10194.668108548567	1
0	65634	10194.996917216692	0
0	65648	10196.063136541714	1
0	65651	10196.649593020117	0
0	65772	10213.551170906834	1
0	65773	10214.074462076999	0
0	65780	10214.531510384321	1
0	65791	10214.984949149401	0
0	65803	10216.927503185001	1
0	65804	10217.111970673385	0
0	65808	10217.392037465351	1
0	65809	10217.940455559804	0
0	65813	10217.972954679575	1
0	65814	10218.469382499554	0
0	65818	10219.338383301682	1
0	65819	10219.371330600488	0
0	65823	10219.427095533236	1
0	65826	10220.078319548978	0
0	65830	10220.950064873616	1
0	65831	10221.068886591051	0
0	65838	10221.730121995933	1
0	65839	10222.341795405861	0
0	65850	10223.683052824866	1
0	65851	10223.803528720488	0
0	65860	10224.581717605628	1
0	65863	10225.317357928142	0
0	65869	10226.170427824404	1
0	65870	10226.204818850871	0
0	65874	10226.997124980563	1
0	65875	10227.045640998263	0
0	65879	10227.291238830892	1
0	65880	10227.599387787351	0
0	65887	10228.23276101029	1
0	65889	10228.447398107191	2
0	65890	10228.803768855216	1
0	65893	10229.563036242988	0
0	65902	10230.687166820654	1
0	65903	10231.075796220427	0
0	65912	10232.309962421354	1
0	65913	10232.683201409712	0
0	65922	10233.641226320354	1
0	65923	10234.039101960299	0
0	65955	10238.935796247977	1
0	65956	10239.616680943801	0
0	65960	10240.003056364358	1
0	65961	10240.12357032832	0
0	65967	10240.501033182255	1
0	65968	10241.106509179969	0
0	65972	10241.138859747991	1
0	65975	10241.706940391681	0
0	65979	10241.988746346112	1
0	65980	10242.63445758533	0
0	65987	10243.498760743925	1
0	65988	10244.181412576113	0
0	65992	10244.411704135061	1
0	65993	10244.645562672962	0
0	66005	10245.71348639342	1
0	66009	10246.59840954983	2
0	66010	10246.675970100353	1
0	66015	10247.295023509834	0
0	66019	10248.020772099415	1
0	66020	10248.171268899759	0
0	66024	10248.565937734014	1
0	66026	10248.598889944979	2
0	66027	10248.913957064666	1
0	66030	10249.658416378239	0
0	66037	10250.204505311143	1
0	66038	10250.687500562399	0
0	66050	10251.796465613565	1
0	66053	10252.631755081118	0
0	66057	10252.719583575568	1
0	66060	10253.4885518179	0
0	66064	10253.999113594832	1
0	66065	10254.415142494413	0
0	66159	10267.812010058999	1
0	66162	10268.185374991894	0
0	66169	10268.722614490447	1
0	66172	10269.515423143534	0
0	66186	10270.645303016201	1
0	66187	10271.298847433943	0
0	66196	10271.783727912364	1
0	66197	10272.127984079504	0
0	66208	10273.082801529565	1
0	66210	10273.400342389841	2
0	66211	10273.800150865707	1
0	66218	10274.648970496486	0
0	66222	10274.803002219625	1
0	66223	10275.114902481175	0
0	66230	10275.830146843192	1
0	66232	10276.261897372769	2
0	66233	10276.47427391123	1
0	66236	10277.451506038261	0
0	66240	10277.676803667119	1
0	66242	10277.708122097077	2
0	66245	10278.225944551192	1
0	66249	10278.450394882306	2
0	66250	10278.820861537214	1
0	66254	10279.117224729557	2
0	66255	10279.39182659734	1
0	66259	10279.518836285205	2
0	66260	10279.951576596144	1
0	66264	10279.967660593583	2
0	66266	10280.264368490678	3
0	66267	10280.536662007747	2
0	66270	10281.244813189534	1
0	66274	10281.681309332199	2
0	66275	10282.049730659667	1
0	66279	10282.19901692539	2
0	66280	10282.868815011317	1
0	66286	10283.447948437684	2
0	66287	10283.52905991517	1
0	66291	10283.62394295676	2
0	66292	10283.94968053244	1
0	66296	10284.320225523373	2
0	66297	10284.804923262419	1
0	66300	10285.561565725896	0
0	66304	10285.563102901601	1
0	66306	10285.740404911508	2
0	66307	10286.193038013735	1
0	66310	10286.714430910832	0
0	66314	10286.722449505098	1
0	66315	10287.184954101004	0
0	66319	10287.350605040377	1
0	66320	10287.932318269572	0
0	66324	10288.175899788113	1
0	66327	10288.355623474921	0
0	66331	10288.604421887792	1
0	66332	10289.034365762043	0
0	66336	10289.181674380267	1
0	66337	10289.559136142693	0
0	66341	10289.64848963041	1
0	66342	10290.42998383075	0
0	66346	10290.463026583869	1
0	66347	10290.850051959902	0
0	66351	10290.988802498286	1
0	66352	10291.77042949453	0
0	66356	10292.065103238109	1
0	66357	10292.375662581502	0
0	66361	10292.382495721535	1
0	66362	10292.918673300809	0
0	66366	10293.060232706912	1
0	66369	10293.341636295263	0
0	66373	10293.700635670794	1
0	66375	10294.125029438763	2
0	66376	10294.340560341506	1
0	66380	10294.601516871305	2
0	66381	10294.915339288694	1
0	66385	10295.461000730019	2
0	66386	10295.857847812605	1
0	66390	10295.874813290118	2
0	66391	10296.474124099194	1
0	66395	10296.887397485706	2
0	66396	10296.953412494036	1
0	66400	10296.958355473433	2
0	66401	10297.431983991266	1
0	66405	10297.514307157132	2
0	66406	10298.371517015268	1
0	66410	10298.542670956226	2
0	66411	10299.151111572674	1
0	66414	10300.102279394931	0
0	66429	10301.820155154232	1
0	66431	10302.106623255193	2
0	66434	10302.704221146806	1
0	66440	10303.142531804049	2
0	66443	10303.55986898101	1
0	66450	10304.081071304084	0
0	66457	10305.537916271086	1
0	66458	10305.539814172473	0
0	66465	10306.159556327633	1
0	66466	10306.516164634863	0
0	66475	10307.755725536501	1
0	66476	10308.236331743395	0
0	66480	10308.404972730815	1
0	66481	10308.71858156549	0
0	66488	10309.743643510615	1
0	66489	10310.128152946217	0
0	66543	10318.331476271773	1
0	66544	10318.895244022199	0
0	66567	10321.395808666934	1
0	66568	10321.537358108788	0
0	66582	10323.172742555873	1
0	66583	10323.375528369072	0
0	66594	10324.422914499002	1
0	66597	10325.054339153106	0
0	66608	10326.265378524572	1
0	66609	10326.462508542343	0
0	66618	10327.935108363046	1
0	66619	10327.977969824449	0
0	66631	10329.310286875955	1
0	66634	10330.05633587462	0
0	66643	10331.216545872783	1
0	66645	10331.303713854855	2
0	66646	10331.57516249546	1
0	66651	10332.23635193349	0
0	66655	10332.568136429525	1
0	66656	10332.802461552407	0
0	66663	10333.627518790256	1
0	66664	10334.356491390962	0
0	66671	10335.006641748346	1
0	66672	10335.47720407855	0
0	66682	10337.374096236244	1
0	66683	10337.507513157718	0
0	66761	10348.679848182903	1
0	66764	10348.927969751248	0
0	66854	10361.727781132603	1
0	66855	10362.040947873629	0
0	66868	10362.980034349831	1
0	66869	10363.395393066825	0
0	66930	10372.750177907697	1
0	66931	10373.535133764354	0
0	66954	10376.278617122471	1
0	66955	10376.334399566913	0
0	66962	10377.347504329532	1
0	66963	10377.502864904303	0
0	66974	10379.220813523719	1
0	66975	10379.237111922467	0
0	67175	10417.877276068859	1
0	67176	10418.265455159289	0
0	67185	10419.235940910406	1
0	67186	10419.524835163285	0
0	67195	10421.595153665098	1
0	67196	10422.226024169452	0
0	67200	10422.388717126361	1
0	67201	10422.886367958109	0
0	67219	10424.279507022792	1
0	67220	10424.750496049187	0
0	67252	10431.408231385936	1
0	67253	10431.91589442764	0
0	67360	10451.848839964825	1
0	67361	10452.675976036573	0
0	67370	10453.525149797582	1
0	67371	10454.27962351026	0
0	67385	10455.665914930532	1
0	67388	10456.279793106988	0
0	67395	10456.919142683261	1
0	67396	10457.708816184746	0
0	67440	10477.260914036082	1
0	67441	10477.525347676528	0
0	67445	10477.740599111839	1
0	67446	10478.420884047895	0
0	67450	10478.441325385493	1
0	67451	10479.206477465787	0
0	67455	10479.885065796688	1
0	67456	10479.985288910222	0
0	67465	10480.630265545338	1
0	67466	10481.296336770798	0
0	67470	10481.321869556012	1
0	67471	10482.1524161044	0
0	67480	10482.961011204993	1
0	67481	10483.457502290839	0
0	67495	10486.680491108837	1
0	67496	10487.087307148407	0
0	67500	10487.234320130977	1
0	67501	10487.668390361898	0
0	67505	10487.717295223179	1
0	67506	10488.399656243462	0
0	67510	10488.614013994591	1
0	67511	10488.931782342752	0
0	67515	10489.625498155322	1
0	67516	10489.692829603774	0
0	67520	10490.129205531716	1
0	67521	10490.580196874661	0
0	67542	10496.258409202818	1
0	67543	10496.714301377399	0
0	67547	10497.186842311184	1
0	67548	10497.577015782105	0
0	67552	10497.578706973184	1
0	67553	10498.517758618718	0
0	67557	10498.818560109644	1
0	67558	10499.127451503886	0
0	67565	10499.948029931046	1
0	67566	10500.481758277494	0
0	67577	10501.821378409272	1
0	67580	10502.173316818526	0
0	67584	10502.427447870131	1
0	67585	10502.914478883477	0
0	67594	10504.233212049304	1
0	67595	10504.536562338242	0
0	67630	10510.703985421256	1
0	67633	10511.280479364842	0
0	67637	10511.546379292915	1
0	67638	10512.077277289284	0
0	67644	10512.28176510825	1
0	67647	10512.583242841111	0
0	67812	10541.524774474575	1
0	67813	10542.099120664979	0
0	67837	10544.99218452759	1
0	67840	10545.859514709851	0
0	67880	10555.13571347414	1
0	67883	10555.772273718897	0
0	67940	10571.572993445354	1
0	67941	10571.833445344384	0
0	67947	10572.393856879208	1
0	67948	10572.478852454464	0
0	67952	10572.53687755236	1
0	67954	10572.547994419001	2
0	67955	10573.02931416713	1
0	67959	10573.116864240003	2
0	67960	10573.825052584087	1
0	67963	10574.691098092202	0
0	67967	10574.919235251987	1
0	67968	10575.591995279895	0
0	67972	10575.668079502098	1
0	67973	10576.174891454758	0
0	67977	10576.327469662724	1
0	67979	10576.545150505153	2
0	67980	10576.804886311604	1
0	67983	10577.776203448031	0
0	67987	10577.7774155932	1
0	67988	10578.483321658321	0
0	67992	10578.540766258364	1
0	67993	10579.257259692563	0
0	68065	10609.534699681957	1
0	68066	10609.871151331592	0
0	68079	10610.893471728804	1
0	68080	10611.136256336107	0
0	68096	10613.083604505427	1
0	68097	10613.515481895967	0
0	68108	10614.936239151512	1
0	68109	10615.117425537449	0
0	68116	10615.964828358529	1
0	68117	10616.813814950097	0
0	68124	10617.981976864046	1
0	68127	10618.806753995191	0
0	68137	10620.850767191715	1
0	68138	10621.031244355315	0
0	68149	10621.914542507984	1
0	68150	10622.593571007452	0
0	68157	10623.522235048922	1
0	68158	10624.40956284028	0
0	68216	10631.3065586931	1
0	68221	10631.667822097628	0
0	68230	10632.577512231823	1
0	68231	10633.437988161589	0
0	68241	10634.637396180946	1
0	68242	10635.538172277356	0
0	68249	10636.561263154863	1
0	68251	10636.849571702073	2
0	68256	10637.380931328064	1
0	68259	10638.113883542236	0
0	68263	10638.445443344641	1
0	68264	10638.779315248517	0
0	68273	10639.422648803094	1
0	68275	10640.293250735958	2
0	68276	10640.309575176158	1
0	68281	10640.94986872474	0
0	68285	10640.971032855217	1
0	68288	10641.842855638836	0
0	68292	10642.01900361549	1
0	68293	10642.68262592192	0
0	68300	10643.97853116616	1
0	68301	10644.196466698975	0
0	68459	10668.361367151544	1
0	68460	10668.519239852839	0
0	68469	10669.857382866217	1
0	68472	10670.075760937045	0
0	68481	10670.900423039683	1
0	68482	10671.175867425632	0
0	68494	10673.015552500945	1
0	68495	10673.589670916582	0
0	68507	10675.268166391141	1
0	68508	10675.354041740746	0
0	68521	10676.475388542295	1
0	68522	10676.876416936685	0
0	68529	10677.853455002158	1
0	68530	10677.936090514092	0
0	68539	10678.62550139891	1
0	68541	10678.773550332386	2
0	68542	10679.002797378023	1
0	68549	10679.932891155855	0
0	68558	10680.73173506112	1
0	68559	10681.505970053171	0
0	68563	10682.227371746275	1
0	68564	10682.347897357569	0
0	68568	10682.515747118887	1
0	68571	10682.897006086335	0
0	68580	10683.793373661384	1
0	68581	10683.89648979011	0
0	68588	10684.457330881661	1
0	68589	10684.982344432762	0
0	68610	10687.179828502922	1
0	68611	10687.455522278493	0
0	68789	10714.471121153631	1
0	68792	10714.973049196597	0
0	68844	10725.573620368893	1
0	68849	10726.093149176965	0
0	68858	10727.576681943084	1
0	68859	10727.583878216267	0
0	68868	10729.076114992764	1
0	68869	10729.372218766463	0
0	68922	10736.859035236101	1
0	68923	10737.059166620605	0
0	68930	10737.779257142585	1
0	68933	10738.280066768805	0
0	68948	10739.389141574346	1
0	68949	10739.407431206786	0
0	68956	10740.281023949677	1
0	68958	10740.600909170693	2
0	68959	10740.746604313542	1
0	68964	10741.582429079878	0
0	68968	10741.939388271312	1
0	68969	10742.422128916559	0
0	68973	10742.767424913164	1
0	68974	10743.103125119656	0
0	68978	10743.113633787277	1
0	68979	10743.956490873014	0
0	68983	10744.129230367906	1
0	68985	10744.14534248206	2
0	68986	10744.509259604504	1
0	68989	10745.206111616622	0
0	68993	10745.320909820352	1
0	68995	10745.552121905769	2
0	68996	10746.18226775581	1
0	69000	10746.340997654917	2
0	69001	10746.988188243732	1
0	69005	10747.321071872204	2
0	69007	10747.38998411028	3
0	69008	10747.811527061537	2
0	69012	10748.23526301529	3
0	69013	10748.640132733975	2
0	69016	10749.335671782848	1
0	69020	10749.728142446118	2
0	69021	10749.809328953485	1
0	69024	10750.40568573855	0
0	69028	10750.952577558894	1
0	69029	10751.091470015963	0
0	69033	10751.176017517875	1
0	69034	10751.652791812719	0
0	69038	10751.860599750052	1
0	69039	10752.490667671693	0
0	69043	10752.979437105012	1
0	69044	10753.27699760588	0
0	69056	10754.970624154554	1
0	69058	10755.036062482998	2
0	69059	10755.041976229084	1
0	69063	10755.235851383297	2
0	69066	10755.536464765976	1
0	69070	10755.887835575006	2
0	69071	10756.025440997612	1
0	69075	10756.048896313895	2
0	69076	10756.479427377489	1
0	69083	10757.221377798431	0
0	69090	10757.815345589797	1
0	69092	10757.909067091403	2
0	69094	10758.105047679011	3
0	69095	10758.295306913164	2
0	69098	10758.829403058654	1
0	69102	10758.8815951129	2
0	69105	10759.416223574784	1
0	69111	10759.552793648526	2
0	69112	10759.919381632032	1
0	69115	10760.358959665224	0
0	69119	10760.459447779976	1
0	69121	10760.812321041765	2
0	69122	10760.910242640255	1
0	69126	10760.984620971192	2
0	69127	10761.594400620582	1
0	69130	10762.111463184264	0
0	69134	10762.319717079614	1
0	69135	10762.604809146915	0
0	69142	10763.777453280687	1
0	69144	10763.916778094427	2
0	69145	10764.445725575351	1
0	69148	10765.379918208468	0
0	69155	10766.575168546271	1
0	69156	10766.638940725971	0
0	69163	10767.434228034303	1
0	69166	10768.14001707596	0
0	69176	10769.327697531979	1
0	69179	10770.078866688564	0
0	69191	10771.484786671876	1
0	69194	10772.177281664946	0
0	69205	10772.800760347352	1
0	69206	10773.213211267004	0
0	69218	10774.933560147738	1
0	69221	10775.615616232977	0
0	69350	10797.48177831271	1
0	69351	10797.678955701558	0
0	69360	10798.664476898257	1
0	69361	10799.164084991818	0
0	69370	10800.45248572562	1
0	69371	10800.605922979867	0
0	69482	10838.301681469799	1
0	69483	10838.536819654792	0
0	69492	10840.076502077665	1
0	69493	10840.460360684101	0
0	69581	10859.841474736231	1
0	69582	10859.96075960739	0
0	69591	10860.8748976343	1
0	69592	10861.287396303205	0
0	69601	10862.260079896741	1
0	69602	10863.219638698375	0
0	69608	10863.37243346246	1
0	69609	10864.130461964769	0
0	69613	10864.546370648461	1
0	69614	10864.919277657814	0
0	69618	10865.110327610778	1
0	69619	10865.771089662671	0
0	69623	10865.953481170409	1
0	69624	10866.709201178061	0
0	69628	10867.48341281725	1
0	69629	10867.69602167468	0
0	69633	10868.329850610457	1
0	69634	10868.460897524901	0
0	69638	10868.790641739476	1
0	69639	10868.889875390534	0
0	69648	10869.572571657891	1
0	69651	10870.17347512796	0
0	69662	10871.607162324252	1
0	69663	10871.823338373903	0
0	69673	10873.723925381887	1
0	69676	10874.566987232318	0
0	69753	10884.782237089435	1
0	69754	10885.334489384028	0
0	69763	10885.882226452685	1
0	69764	10886.442328969822	0
0	69808	10892.741813450213	1
0	69809	10893.067012326714	0
0	69818	10894.133127570454	1
0	69819	10894.577948783959	0
0	69830	10895.373311163765	1
0	69831	10896.150196799977	0
0	69853	10899.350974882957	1
0	69854	10899.751466514744	0
0	69868	10901.767812796678	1
0	69869	10901.981838214506	0
0	69876	10902.846083592679	1
0	69879	10903.193790979746	0
0	69893	10904.963448932169	1
0	69894	10905.21910004161	0
0	69906	10906.593657258463	1
0	69907	10906.839497153244	0
0	69916	10908.028199128807	1
0	69917	10908.505943692305	0
0	69926	10910.085962261037	1
0	69927	10910.121380882074	0
0	69938	10911.227924401025	1
0	69939	10911.507633424147	0
0	69948	10912.663816023671	1
0	69949	10913.294712723388	0
0	69956	10914.443177529129	1
0	69957	10914.983429090834	0
0	69964	10915.983674280931	1
0	69965	10916.622190431987	0
0	69972	10917.305084821154	1
0	69976	10917.936681324511	2
0	69977	10918.015150406274	1
0	69982	10918.752646913116	0
0	69989	10920.35062621107	1
0	69990	10920.541141488745	0
0	70139	10944.144153639265	1
0	70140	10944.768401511413	0
0	70147	10945.418278682156	1
0	70150	10945.735865941624	0
0	70161	10947.057499846064	1
0	70162	10947.20929774845	0
0	70169	10948.519097859904	1
0	70170	10948.836989137744	0
0	70232	10958.813747314684	1
0	70233	10959.695531484416	0
0	70245	10961.460545130374	1
0	70248	10962.063322873438	0
0	70262	10963.719195285018	1
0	70263	10963.897519835295	0
0	70290	10969.132014821039	1
0	70291	10969.309034250064	0
0	70305	10971.103761387935	1
0	70306	10971.678817556367	0
0	70436	10987.573766499828	1
0	70437	10987.844950384982	0
0	70446	10988.722905449939	1
0	70447	10989.263578677792	0
0	70484	10994.99620586974	1
0	70485	10995.727406662385	0
0	70494	10996.691623509365	1
0	70495	10997.22487664936	0
0	70502	10997.898931118812	1
0	70504	10997.982268497266	2
0	70505	10998.531367110376	1
0	70510	10998.966546858762	0
0	70516	10999.850227168107	1
0	70517	10999.938184977657	0
0	70546	11004.031001207011	1
0	70549	11004.656291284467	0
0	70558	11005.457413537721	1
0	70559	11005.759372526276	0
0	70568	11006.455733393731	1
0	70569	11006.940880704447	0
0	70582	11008.125411537924	1
0	70583	11008.434073159945	0
0	70592	11009.681657219744	1
0	70593	11009.839986032861	0
0	70602	11010.60134654427	1
0	70603	11011.43447162412	0
0	70609	11012.174150793819	1
0	70610	11012.208233753647	0
0	70614	11012.294527026624	1
0	70615	11012.991675635762	0
0	70622	11013.851750832698	1
0	70624	11013.899782942281	2
0	70626	11013.964382725548	3
0	70627	11014.213700544284	2
0	70632	11015.13552472541	1
0	70635	11015.617895333105	0
0	70639	11015.778517668654	1
0	70640	11016.023430313085	0
0	70644	11016.035094403965	1
0	70645	11016.426179196507	0
0	70649	11016.57953802474	1
0	70650	11017.088615848458	0
0	70654	11017.526173003399	1
0	70655	11017.598367697474	0
0	70659	11017.907804829994	1
0	70660	11018.304727154419	0
0	70667	11019.394211705909	1
0	70668	11019.562592475311	0
0	70672	11019.62832880297	1
0	70673	11020.106685512615	0
0	70679	11020.457758116107	1
0	70680	11020.877187064066	0
0	70684	11020.980348534165	1
0	70685	11021.297545472914	0
0	70700	11023.071276564335	1
0	70702	11023.182618851729	2
0	70707	11024.000319299017	1
0	70712	11024.814222134146	0
0	70718	11025.161016851917	1
0	70719	11025.310814371015	0
0	70723	11025.555963295967	1
0	70724	11025.721316581088	0
0	70728	11025.754370303011	1
0	70731	11026.238130991542	0
0	70738	11027.17867621576	1
0	70739	11027.728971107965	0
0	70745	11028.283170590158	1
0	70746	11028.728379981927	0
0	70750	11028.841904378676	1
0	70751	11029.378303520297	0
0	70755	11029.862074593279	1
0	70756	11030.025948759596	0
0	70763	11031.201396677594	1
0	70765	11031.338143445955	2
0	70766	11031.479920408837	1
0	70769	11032.266928778318	0
0	70776	11033.174330827724	1
0	70777	11033.455722760976	0
0	70793	11034.701813267874	1
0	70795	11034.917744107063	2
0	70796	11035.036164755895	1
0	70801	11035.531926124039	0
0	70805	11035.532544077213	1
0	70806	11036.282834343714	0
0	70816	11036.820845938982	1
0	70817	11036.920513701867	0
0	70821	11036.961102391281	1
0	70822	11037.596409101002	0
0	70826	11037.856247256463	1
0	70827	11038.316332319481	0
0	70837	11039.700051478319	1
0	70839	11039.729732570309	2
0	70842	11040.061510162716	1
0	70849	11040.81519411263	0
0	70853	11040.924390351504	1
0	70855	11041.28584746629	2
0	70856	11041.549563298709	1
0	70859	11042.355038959029	0
0	70866	11043.205126799835	1
0	70869	11043.395880889436	0
0	70879	11044.406880331807	1
0	70880	11045.16845719168	0
0	70889	11046.477283201137	1
0	70892	11046.988288206477	0
0	70899	11047.581191686816	1
0	70902	11048.011650943766	0
0	70913	11049.571129308429	1
0	70914	11049.820552910548	0
0	70923	11050.997688040957	1
0	70924	11051.589622575613	0
0	70935	11052.238263193093	1
0	70936	11052.906540082545	0
0	70942	11053.672219641873	1
0	70943	11053.88511278798	0
0	70947	11053.905904065541	1
0	70950	11054.606335575004	0
0	70959	11055.771206519216	1
0	70960	11056.396324219146	0
0	70964	11056.439095105078	1
0	70969	11057.037604807793	0
0	70973	11057.44065902486	1
0	70974	11057.779140176448	0
0	70978	11058.169687699505	1
0	70979	11058.33765233663	0
0	70983	11058.410605291449	1
0	70984	11059.314157927698	0
0	70991	11060.801864682622	1
0	70992	11060.962809635196	0
0	71002	11062.195288852667	1
0	71005	11062.814801663589	0
0	71015	11063.880396301281	1
0	71016	11064.547998695783	0
0	71029	11065.585990840965	1
0	71032	11066.057659523896	0
0	71055	11069.290221638605	1
0	71056	11069.791710577819	0
0	71171	11086.832840413573	1
0	71172	11087.102327947512	0
0	71176	11087.733502916211	1
0	71179	11087.906856357919	0
0	71183	11088.528104287694	1
0	71184	11088.657136768157	0
0	71191	11089.537211635309	1
0	71192	11090.124231054734	0
0	71201	11091.23302745614	1
0	71202	11091.871819818073	0
0	71213	11092.999471354491	1
0	71214	11093.457681561268	0
0	71223	11094.110155565711	1
0	71224	11094.849406795583	0
0	71238	11096.13485967686	1
0	71239	11096.927303274635	0
0	71248	11098.012429840756	1
0	71249	11098.613285778749	0
0	71256	11099.198881577974	1
0	71257	11099.548748481792	0
0	71266	11100.328825587155	1
0	71269	11100.836290031585	0
0	71278	11101.755117221688	1
0	71279	11101.785307900102	0
0	71288	11102.983463007211	1
0	71290	11103.411798694432	2
0	71291	11103.618232607429	1
0	71294	11104.029644804268	0
0	71298	11104.223251666364	1
0	71299	11104.747175040941	0
0	71315	11106.564807398869	1
0	71316	11107.160422306841	0
0	71325	11107.889763961576	1
0	71326	11108.635477877182	0
0	71498	11134.471043209669	1
0	71499	11134.534066039889	0
0	71508	11135.432625478687	1
0	71509	11135.792283358385	0
0	71518	11137.087458546888	1
0	71519	11137.154783346651	0
0	71529	11138.71287591883	1
0	71530	11138.940370194202	0
0	71566	11142.808930018799	1
0	71567	11143.270415865125	0
0	71585	11145.223301099233	1
0	71586	11145.776205112141	0
0	71595	11146.843033742811	1
0	71596	11146.906193502256	0
0	71603	11147.511977493072	1
0	71605	11147.589237386276	2
0	71606	11148.146917550787	1
0	71611	11148.631288548289	0
0	71618	11149.393008093951	1
0	71620	11149.596677608162	2
0	71621	11150.231081976099	1
0	71625	11150.313816232116	2
0	71626	11150.831005025012	1
0	71632	11150.882496275268	2
0	71633	11151.515288656773	1
0	71638	11151.964141228665	0
0	71642	11152.011534859373	1
0	71643	11152.443946337104	0
0	71647	11152.967136737707	1
0	71648	11153.315260742242	0
0	71657	11154.655188059131	1
0	71658	11154.90279990417	0
0	71667	11156.188152689452	1
0	71670	11156.572274887572	0
0	71728	11165.542069852487	1
0	71731	11165.792483638003	0
0	71738	11166.573553559004	1
0	71741	11167.214979801243	0
0	71753	11169.102744177184	1
0	71754	11169.533055458786	0
0	71758	11169.653749796241	1
0	71759	11170.117098287223	0
0	71778	11172.381874666621	1
0	71782	11172.425241207601	2
0	71785	11173.247287511369	1
0	71790	11174.107297073966	0
0	71797	11175.374619626525	1
0	71798	11175.838129088804	0
0	71828	11180.441027752715	1
0	71829	11180.443040067945	0
0	71836	11181.005755143538	1
0	71837	11181.698074975619	0
0	71847	11183.480524934407	1
0	71848	11184.025107427743	0
0	71857	11185.242773089848	1
0	71858	11185.626339259847	0
0	71867	11187.237606071497	1
0	71868	11187.247871660637	0
0	71878	11188.776729046165	1
0	71883	11189.196287525642	0
0	71921	11195.299412933098	1
0	71922	11195.48064494623	0
0	71935	11197.090454845684	1
0	71938	11197.131098320206	0
0	72107	11232.242039003949	1
0	72108	11232.99435865499	0
0	72125	11235.527423417979	1
0	72126	11235.935237681432	0
0	72135	11237.254112782331	1
0	72136	11237.676036748988	0
0	72140	11238.111438248956	1
0	72141	11238.176848861714	0
0	72145	11238.441116372122	1
0	72146	11238.912281291233	0
0	72150	11238.974822036492	1
0	72151	11239.31409749249	0
0	72157	11240.076168744164	1
0	72158	11240.241229725303	0
0	72162	11240.461346728806	1
0	72163	11241.189760914445	0
0	72182	11243.992535006429	1
0	72183	11244.449577772478	0
0	72195	11246.096914957316	1
0	72196	11246.388564886293	0
0	72219	11250.185065524501	1
0	72220	11250.243613328547	0
0	72452	11291.523159421088	1
0	72453	11292.244587227616	0
0	72462	11293.148771860364	1
0	72464	11293.527194272142	2
0	72465	11293.882678935312	1
0	72470	11294.673568441261	0
0	72477	11295.444490020034	1
0	72478	11296.360384419335	0
0	72487	11296.855447207896	1
0	72488	11297.685757986091	0
0	72495	11298.505926635309	1
0	72497	11298.869789986192	2
0	72498	11299.140211919283	1
0	72505	11299.597653237784	0
0	72512	11300.035444383414	1
0	72514	11300.407614276815	2
0	72516	11300.468450326527	3
0	72517	11300.658133122285	2
0	72522	11301.169837212243	1
0	72526	11301.489258086672	2
0	72527	11301.873903139501	1
0	72530	11302.300532692724	0
0	72534	11302.671698310912	1
0	72536	11302.852390920127	2
0	72537	11303.209137233586	1
0	72541	11303.264810009911	2
0	72542	11303.846405744792	1
0	72546	11304.034673890695	2
0	72547	11304.733149905696	1
0	72551	11304.855842939232	2
0	72552	11305.480124611508	1
0	72556	11305.708512019677	2
0	72559	11305.921036555439	1
0	72563	11306.32620948888	2
0	72564	11306.638111089969	1
0	72567	11307.415443966126	0
0	72571	11307.451784101393	1
0	72572	11308.243699236873	0
0	72576	11308.726114992241	1
0	72577	11309.156946716045	0
0	72581	11309.38806839828	1
0	72582	11309.580829890638	0
0	72586	11309.593037042989	1
0	72587	11310.211901787536	0
0	72591	11310.536853311557	1
0	72592	11310.789365336213	0
0	72603	11312.313777619301	1
0	72604	11312.562788881555	0
0	72608	11312.750472183598	1
0	72609	11313.192899626314	0
0	72625	11314.783514605249	1
0	72626	11314.964175564849	0
0	72632	11315.460523467705	1
0	72633	11315.92474015421	0
0	72640	11316.849528769839	1
0	72641	11317.688902177948	0
0	72663	11320.610184314373	1
0	72664	11321.143001281104	0
0	73069	11387.306485027507	1
0	73070	11387.316915431533	0
0	73084	11388.637525542079	1
0	73086	11388.780153392259	2
0	73087	11389.073562132435	1
0	73090	11389.701802385653	0
0	73094	11389.705056782925	1
0	73095	11390.231574811189	0
0	73099	11390.258378246531	1
0	73100	11390.874457010681	0
0	73104	11391.035576792561	1
0	73106	11391.48072078401	2
0	73107	11391.627153592378	1
0	73110	11392.606916746831	0
0	73117	11393.566300353207	1
0	73118	11394.034273787782	0
0	73127	11394.989627512615	1
0	73130	11395.599483093488	0
0	73139	11396.647530304095	1
0	73140	11396.760032727764	0
0	73150	11398.580504278357	1
0	73151	11398.980221551618	0
0	73166	11399.979176472433	1
0	73167	11400.86634150842	0
0	73179	11402.301965710994	1
0	73180	11403.297686386488	0
0	73189	11404.779045289479	1
0	73190	11404.897641360813	0
0	73199	11405.764540677725	1
0	73200	11406.218696960255	0
0	73217	11408.624338648683	1
0	73218	11408.764996828007	0
0	73227	11409.946483221968	1
0	73228	11410.3189189619	0
0	73237	11411.469130706255	1
0	73238	11411.693809513616	0
0	73245	11412.771463369155	1
0	73248	11413.330015780226	0
0	73259	11414.151590386134	1
0	73260	11415.127882881796	0
0	73271	11416.267897778072	1
0	73272	11416.3671849656	0
0	73276	11416.787520867685	1
0	73279	11417.242258295006	0
0	73283	11417.43072631523	1
0	73284	11417.925514801227	0
0	73288	11418.184227032659	1
0	73289	11418.344999380883	0
0	73293	11418.456244317145	1
0	73294	11418.955897056785	0
0	73298	11419.404937143505	1
0	73299	11419.782452950448	0
0	73306	11420.703182307538	1
0	73307	11421.43885805263	0
0	73311	11421.750835654719	1
0	73314	11422.425410488861	0
0	73318	11422.834706712879	1
0	73320	11422.924398834545	2
0	73321	11423.283684056213	1
0	73324	11423.781211441204	0
0	73328	11424.055365508689	1
0	73330	11424.087328858629	2
0	73331	11424.615106897809	1
0	73334	11425.026454379511	0
0	73338	11425.177249442274	1
0	73340	11425.505321309191	2
0	73341	11425.548958547794	1
0	73344	11426.013402358125	0
0	73348	11426.256890223486	1
0	73349	11426.818282668068	0
0	73353	11427.580737895834	1
0	73354	11427.679315250049	0
0	73358	11428.093242514484	1
0	73359	11428.638288635536	0
0	73363	11428.727256224633	1
0	73364	11429.443310400293	0
0	73371	11430.423631188779	1
0	73372	11430.699708934649	0
0	73379	11431.279789411393	1
0	73380	11432.238195635574	0
0	73387	11433.168701357685	1
0	73388	11433.619187261314	0
0	73610	11481.280961235686	1
0	73611	11481.608041235405	0
0	73620	11482.412509815546	1
0	73621	11482.971306449637	0
0	73630	11484.419451498993	1
0	73631	11484.485931940187	0
0	73665	11492.213726570795	1
0	73666	11492.717366549091	0
0	73675	11493.888070637867	1
0	73676	11494.705749278641	0
0	73680	11494.951471375637	1
0	73681	11495.316603030017	0
0	73685	11495.448569746937	1
0	73686	11495.968028829372	0
0	73695	11497.876872509323	1
0	73696	11497.880721975306	0
0	73710	11500.289459993601	1
0	73711	11500.469583992461	0
0	73720	11501.568932745606	1
0	73721	11502.08333624368	0
0	73760	11516.325055419793	1
0	73761	11516.348573188746	0
0	73770	11517.065089487744	1
0	73772	11517.197091129383	2
0	73775	11517.779763903359	1
0	73780	11518.664778364107	0
0	73787	11519.228069051499	1
0	73789	11519.466308287919	2
0	73790	11520.04475227425	1
0	73793	11520.787420954584	0
0	73797	11520.980621500809	1
0	73798	11521.193350363738	0
0	73807	11521.792404351642	1
0	73808	11522.460009416268	0
0	73820	11523.791991131611	1
0	73821	11524.206488631973	0
0	73870	11536.983782278156	1
0	73871	11537.700829797549	0
0	73880	11538.789846600423	1
0	73881	11539.482870165244	0
0	73890	11540.35830354514	1
0	73891	11540.99166970531	0
0	73910	11543.648437438523	1
0	73911	11544.075643417415	0
0	73920	11545.055506881089	1
0	73922	11545.452312307964	2
0	73923	11545.786839008355	1
0	73926	11546.410537712579	0
0	73935	11547.022457949029	1
0	73937	11547.185594517083	2
0	73938	11547.731627048203	1
0	73941	11548.347230587737	0
0	73945	11548.414399780394	1
0	73946	11548.923861307721	0
0	73950	11548.97462408423	1
0	73951	11549.844194893376	0
0	73955	11550.075729800878	1
0	73956	11550.337814323301	0
0	73960	11550.470548095451	1
0	73961	11551.261672116746	0
0	73965	11551.714405427472	1
0	73966	11552.130933482549	0
0	73970	11552.36068772774	1
0	73971	11552.646088231192	0
0	73975	11553.358504063572	1
0	73976	11553.382855209033	0
0	73980	11553.402440692419	1
0	73981	11554.174805791979	0
0	73990	11555.689082654021	1
0	73991	11555.815042742463	0
0	73997	11556.352519057554	1
0	73998	11556.358637340814	0
0	74002	11556.466847857407	1
0	74003	11557.054211276146	0
0	74007	11557.12011660177	1
0	74008	11557.692508872161	0
0	74012	11558.256046791322	1
0	74013	11558.279449491464	0
0	74020	11559.522080559385	1
0	74022	11559.906367208068	2
0	74023	11559.991728324285	1
0	74026	11560.476331012957	0
0	74030	11560.691291264016	1
0	74031	11560.893571528727	0
0	74035	11561.144037410437	1
0	74036	11561.350226677516	0
0	74040	11561.680427762608	1
0	74041	11561.995114657916	0
0	74050	11562.974860684572	1
0	74051	11563.634338848321	0
0	74060	11564.550932177576	1
0	74061	11565.146644304349	0
0	74070	11566.107533347831	1
0	74071	11566.490942322036	0
0	74115	11578.953741028224	1
0	74118	11579.781157813942	0
0	74130	11581.118536384715	1
0	74131	11581.67843575559	0
0	74142	11582.215306716775	1
0	74143	11582.620835146936	0
0	74150	11583.482207876297	1
0	74151	11583.767295465129	0
0	74160	11584.706040764052	1
0	74161	11585.26884580797	0
0	74170	11586.084498825259	1
0	74171	11586.496255133883	0
0	74180	11587.470578585635	1
0	74181	11588.092642544326	0
0	74215	11595.605696400057	1
0	74216	11596.504530940649	0
0	74287	11610.143892038307	1
0	74288	11610.584825100645	0
0	74295	11611.571269547822	1
0	74296	11611.770642720757	0
0	74310	11613.457964606121	1
0	74311	11613.7739838518	0
0	74320	11614.756804473376	1
0	74321	11615.001335765183	0
0	74335	11616.355741947241	1
0	74336	11616.633584834808	0
0	74370	11621.58730855684	1
0	74371	11622.037811141047	0
0	74375	11622.235026334661	1
0	74376	11622.903066646825	0
0	74380	11623.063649824177	1
0	74381	11623.709286268526	0
0	74385	11623.892930447912	1
0	74386	11624.119739014334	0
0	74462	11654.712131270871	1
0	74465	11655.309616139818	0
0	74472	11656.057961380552	1
0	74473	11656.700176357067	0
0	74480	11657.239587414893	1
0	74483	11657.629763156556	0
0	74492	11658.639890279694	1
0	74493	11659.2845489421	0
0	74502	11660.107272723705	1
0	74504	11660.289542223731	2
0	74505	11660.546242131766	1
0	74512	11661.048311415276	0
0	74516	11661.52725152206	1
0	74517	11661.912492179878	0
0	74673	11686.481954277763	1
0	74674	11686.520759162	0
0	74678	11686.638250122908	1
0	74679	11687.462165654516	0
0	74686	11688.434597989353	1
0	74687	11688.722628262052	0
0	74694	11689.819253576713	1
0	74695	11690.345847950568	0
0	74707	11692.425836872048	1
0	74708	11692.474799815119	0
0	74715	11693.297706759227	1
0	74716	11694.165723048962	0
0	74740	11698.041983371747	1
0	74741	11698.413488762937	0
0	74800	11711.516865190742	1
0	74803	11711.973358962425	0
0	74812	11713.195270198415	1
0	74815	11713.664138910985	0
0	74824	11714.416701352765	1
0	74825	11714.743402096369	0
0	74857	11719.108199815917	1
0	74860	11719.708652238101	0
0	74867	11720.643898956635	1
0	74868	11721.076159975976	0
0	74875	11722.274681673654	1
0	74876	11722.529907238874	0
0	74885	11723.369844955905	1
0	74886	11723.974590381954	0
0	74905	11732.604126265243	1
0	74908	11733.256012507428	0
0	74967	11741.573124871422	1
0	74969	11741.894670435016	2
0	74970	11742.223319086488	1
0	74973	11743.119982544435	0
0	74977	11743.359380708826	1
0	74978	11743.628449007086	0
0	74982	11743.818648409136	1
0	74985	11744.399478698624	0
0	74991	11744.823488261503	1
0	74994	11745.123949369052	0
0	74998	11745.202493149624	1
0	75001	11746.108372381804	0
0	75005	11746.488468031814	1
0	75006	11747.037338243806	0
0	75013	11747.976926332355	1
0	75015	11748.618450749259	2
0	75016	11748.698672104822	1
0	75021	11749.419912095284	0
0	75025	11749.747957423237	1
0	75026	11750.103156402064	0
0	75030	11750.243478005225	1
0	75031	11750.618336371714	0
0	75035	11750.701870070787	1
0	75036	11751.030583856497	0
0	75042	11751.448157369261	1
0	75043	11751.887762185987	0
0	75047	11752.11973186101	1
0	75048	11752.555599126602	0
0	75054	11752.851865299306	1
0	75055	11753.140098382496	0
0	75062	11753.716895655721	1
0	75064	11753.819495630776	2
0	75065	11754.227119875755	1
0	75070	11755.060980920736	0
0	75074	11755.201576591756	1
0	75075	11755.692058312251	0
0	75084	11756.585918802859	1
0	75085	11757.467943897062	0
0	75195	11777.26121344199	1
0	75196	11777.916960628074	0
0	75210	11782.302586983053	1
0	75212	11782.419799334468	2
0	75213	11783.150451217548	1
0	75218	11783.915289952981	0
0	75222	11783.921312941695	1
0	75223	11784.352110532115	0
0	75227	11784.652653103446	1
0	75228	11785.087360777615	0
0	75232	11785.136112814983	1
0	75233	11785.735023718516	0
0	75265	11819.359522867973	1
0	75266	11819.595633162289	0
0	75277	11820.29547947651	1
0	75279	11820.481454517418	2
0	75280	11821.051773262826	1
0	75283	11821.57204898201	0
0	75287	11821.663234088429	1
0	75288	11822.018657044238	0
0	75292	11822.293627684156	1
0	75293	11822.498895637608	0
0	75297	11822.582022199991	1
0	75300	11823.15845604647	0
0	75304	11823.198208020442	1
0	75305	11823.914613196916	0
0	75309	11823.920784466138	1
0	75310	11824.72199149659	0
0	75314	11824.899993208901	1
0	75317	11825.558609698909	0
0	75324	11826.596225996606	1
0	75326	11826.742781902477	2
0	75327	11827.270431252253	1
0	75332	11828.099194482957	0
0	75336	11828.134695718632	1
0	75337	11829.02096611891	0
0	75341	11829.184168985394	1
0	75342	11829.594179331475	0
0	75346	11829.716835133071	1
0	75347	11830.003068396087	0
0	75351	11830.208901238633	1
0	75352	11830.434202605915	0
0	75356	11830.521136585331	1
0	75357	11830.998040764556	0
0	75465	11860.174998635761	1
0	75466	11860.538438359884	0
0	75470	11860.950835784696	1
0	75471	11861.46818144657	0
0	75477	11861.982422709679	1
0	75478	11862.146812825606	0
0	75485	11862.873249972147	1
0	75486	11863.819878497582	0
0	75530	11871.587653535393	1
0	75533	11871.958414778804	0
0	75537	11872.042117578791	1
0	75538	11872.654035929676	0
0	75542	11872.690322147894	1
0	75545	11873.591635298209	0
0	75549	11873.742425180599	1
0	75550	11874.144407328117	0
0	75554	11874.289443901623	1
0	75555	11874.686813356114	0
0	75559	11874.798822299518	1
0	75561	11874.903860349171	2
0	75564	11875.539471539242	1
0	75567	11876.299709263902	0
0	75571	11876.630671307271	1
0	75572	11877.200992071388	0
0	75576	11877.385407816397	1
0	75577	11877.673036161104	0
0	75581	11877.811216826148	1
0	75583	11878.009509573386	2
0	75586	11878.454502942173	1
0	75590	11879.001376032113	2
0	75591	11879.355388385283	1
0	75595	11879.391924750055	2
0	75597	11879.532061723778	3
0	75598	11880.164300865906	2
0	75602	11880.570421053866	3
0	75605	11880.930488180129	2
0	75609	11881.530673219519	3
0	75610	11881.811999944823	2
0	75616	11881.909107230309	3
0	75617	11882.634104475837	2
0	75621	11882.731692999	3
0	75622	11883.174682529496	2
0	75626	11883.442849665023	3
0	75627	11883.860693568822	2
0	75630	11884.288168671953	1
0	75634	11884.563391712283	2
0	75635	11885.268228015483	1
0	75638	11886.033515011047	0
0	75645	11887.057854571915	1
0	75647	11887.089703650125	2
0	75648	11887.252947771031	1
0	75652	11887.426236499234	2
0	75655	11888.237729214917	1
0	75659	11888.543980645471	2
0	75660	11889.082868202816	1
0	75664	11889.183231979372	2
0	75665	11889.711459276959	1
0	75668	11890.123971791932	0
0	75672	11890.918435587885	1
0	75673	11891.005831097293	0
0	75680	11892.25164717702	1
0	75681	11892.36414172388	0
0	75690	11893.010868528659	1
0	75691	11893.760927140381	0
0	75698	11894.70577688852	1
0	75703	11895.279188122874	0
0	75710	11896.431139064881	1
0	75711	11896.459129751561	0
0	75720	11897.012713522134	1
0	75721	11897.399500000657	0
0	75731	11899.324675640297	1
0	75732	11899.671606778813	0
0	75780	11908.801259936996	1
0	75781	11909.170678053481	0
0	75785	11909.4261325777	1
0	75788	11909.656536244658	0
0	75792	11909.702208005674	1
0	75793	11910.144465893564	0
0	75797	11910.802211734947	1
0	75800	11911.052892053557	0
0	75811	11912.318035500254	1
0	75812	11912.666445652686	0
0	75819	11914.057017112367	1
0	75820	11914.1393913956	0
0	75827	11914.826606713873	1
0	75828	11915.113680425297	0
0	75837	11916.402625895922	1
0	75840	11916.574586972326	0
0	75856	11918.110728051716	1
0	75857	11918.320111618901	0
0	75866	11919.084876660974	1
0	75867	11919.387632086233	0
0	75878	11920.158249544288	1
0	75879	11921.079823268729	0
0	75891	11922.477271007918	1
0	75892	11923.290731172462	0
0	75899	11924.245848214505	1
0	75900	11924.845091290551	0
0	75928	11928.882260753066	1
0	75929	11928.943244426198	0
0	75940	11930.146358767946	1
0	75941	11930.53262193004	0
0	75958	11932.959447393615	1
0	75959	11933.518125479169	0
0	75969	11935.463510655014	1
0	75970	11935.720919923731	0
0	75979	11937.06845294203	1
0	75980	11937.092304759533	0
0	75994	11938.716877306	1
0	75995	11939.440054000928	0
0	76015	11941.69975287838	1
0	76016	11942.115335042509	0
0	76025	11943.218435272713	1
0	76026	11943.667818833575	0
0	76035	11944.263427608877	1
0	76038	11944.752327848566	0
0	76047	11946.269698285542	1
0	76048	11946.295909792339	0
0	76055	11947.17839322011	1
0	76056	11947.574492419107	0
0	76260	11984.369468276659	1
0	76263	11984.552939914765	0
0	76270	11985.079083556456	1
0	76273	11985.931304012092	0
0	76280	11986.948727262347	1
0	76281	11986.9825541248	0
0	76315	11993.082527788535	1
0	76316	11993.386654457996	0
0	76320	11993.899461809691	1
0	76321	11993.912552822369	0
0	76330	11994.791256685717	1
0	76332	11994.932703419105	2
0	76333	11995.191162002587	1
0	76336	11996.005801498459	0
0	76345	11996.753607098992	1
0	76347	11996.825678716263	2
0	76349	11996.96967553065	3
0	76350	11997.207817133508	2
0	76353	11997.623416394127	1
0	76357	11997.721921335158	2
0	76360	11998.419000666208	1
0	76364	11998.485655046389	2
0	76366	11998.910256410046	3
0	76367	11999.005093928884	2
0	76370	11999.439465927371	1
0	76374	11999.657780601908	2
0	76376	11999.660764019249	3
0	76377	11999.888538352252	2
0	76381	12000.401420319739	3
0	76382	12000.605650091116	2
0	76386	12000.847100200961	3
0	76387	12001.369380462766	2
0	76391	12001.786657302838	3
0	76392	12002.081963783028	2
0	76396	12002.430560754379	3
0	76397	12002.602725558719	2
0	76401	12002.623120738854	3
0	76402	12003.322092545303	2
0	76405	12003.848614841225	1
0	76409	12004.197730803355	2
0	76411	12004.206473091521	3
0	76412	12004.625967418068	2
0	76416	12005.204920934231	3
0	76417	12005.332046959122	2
0	76420	12005.795101804977	1
0	76424	12005.854111647232	2
0	76425	12006.641196823531	1
0	76428	12007.431316803434	0
0	76442	12009.398331085418	1
0	76444	12009.446797973763	2
0	76445	12009.551109448207	1
0	76448	12009.968211983742	0
0	76452	12010.304324474019	1
0	76455	12010.745515995838	0
0	76459	12010.771329676755	1
0	76460	12011.314139609311	0
0	76464	12011.343489705831	1
0	76465	12011.752646219164	0
0	76472	12012.618291100265	1
0	76474	12012.685016832509	2
0	76475	12012.877457972561	1
0	76480	12013.298338204754	0
0	76484	12013.651194082749	1
0	76485	12014.297678026083	0
0	76497	12016.102664505421	1
0	76498	12016.104612301654	0
0	76509	12016.690734320117	1
0	76510	12017.133747868418	0
0	76519	12018.533517750093	1
0	76520	12018.63525297762	0
0	76529	12019.753393592814	1
0	76530	12020.485046465128	0
0	76537	12021.16229177321	1
0	76538	12021.99685545642	0
0	76552	12023.847581706239	1
0	76553	12023.980426398796	0
0	76557	12024.493720288651	1
0	76558	12024.932789055622	0
0	76562	12025.191280277403	1
0	76565	12025.862416822129	0
0	76572	12026.343387814842	1
0	76574	12026.684365315411	2
0	76575	12026.964361201963	1
0	76578	12027.468039218002	0
0	76582	12027.65948710107	1
0	76583	12028.410159654348	0
0	76587	12028.621427377523	1
0	76590	12029.377801229424	0
0	76594	12029.610538919969	1
0	76595	12030.125866844404	0
0	76599	12030.572563666893	1
0	76600	12031.036079117694	0
0	76604	12031.230206246888	1
0	76605	12031.478628149713	0
0	76609	12031.923988779517	1
0	76610	12032.310187663921	0
0	76614	12033.156137994692	1
0	76616	12033.168329050332	2
0	76617	12033.293077255963	1
0	76621	12033.295257922141	2
0	76624	12034.245339398543	1
0	76628	12034.550985382318	2
0	76629	12035.155395498397	1
0	76633	12035.799231419646	2
0	76634	12035.804667646103	1
0	76638	12036.206697477799	2
0	76639	12036.440071046809	1
0	76642	12037.040410844367	0
0	76646	12037.099399651818	1
0	76647	12037.680449893642	0
0	76651	12037.990152943042	1
0	76652	12038.341055442011	0
0	76656	12038.359008059909	1
0	76657	12038.968333218889	0
0	76661	12039.081799758275	1
0	76662	12039.656708739875	0
0	76666	12039.928264772847	1
0	76667	12040.501522620712	0
0	76671	12040.661653125876	1
0	76672	12041.108392382125	0
0	76676	12041.113063156672	1
0	76677	12041.881771213506	0
0	76684	12043.258674166094	1
0	76685	12043.356216434334	0
0	76694	12044.490757307591	1
0	76695	12044.889288710794	0
0	76702	12045.858137542304	1
0	76703	12046.441882066047	0
0	76710	12047.222286167149	1
0	76711	12047.347018362386	0
0	76722	12048.301880391988	1
0	76725	12048.922475301884	0
0	76755	12063.905392465719	1
0	76756	12064.27377402982	0
0	76765	12065.255628310449	1
0	76766	12065.822647431932	0
0	76770	12066.038007581224	1
0	76771	12066.357498213715	0
0	76790	12075.197613814893	1
0	76792	12075.302534748976	2
0	76793	12075.682233996806	1
0	76796	12076.189294521627	0
0	76800	12076.39916541573	1
0	76801	12076.761672204291	0
0	76805	12076.948322477878	1
0	76806	12077.199079000461	0
0	76810	12077.39447477452	1
0	76811	12077.633158336277	0
0	76815	12077.776148692716	1
0	76817	12078.016366328576	2
0	76818	12078.556971591082	1
0	76821	12079.218152799201	0
0	76830	12080.078492572306	1
0	76831	12080.224739559623	0
0	76840	12081.175889985651	1
0	76843	12081.513490357096	0
0	76854	12082.462976470057	1
0	76855	12082.84453608681	0
0	76861	12083.380288530356	1
0	76862	12083.703872832502	0
0	76866	12083.751871657888	1
0	76867	12084.123876986219	0
0	76871	12084.192473243708	1
0	76873	12084.355569151487	2
0	76874	12084.812236936003	1
0	76877	12085.57566499811	0
0	76881	12085.656795375638	1
0	76882	12086.08742162919	0
0	76886	12086.185756440091	1
0	76887	12086.9180806476	0
0	76891	12086.988732378869	1
0	76892	12087.620744942253	0
0	76898	12088.337468483039	1
0	76899	12088.36387293775	0
0	76903	12088.652582814037	1
0	76904	12089.358675694823	0
0	76908	12089.590664880265	1
0	76909	12090.194127365885	0
0	76913	12090.605677891634	1
0	76914	12090.989087136028	0
0	76918	12091.119139592967	1
0	76919	12091.440571264675	0
0	76933	12093.092848274937	1
0	76934	12093.205468198969	0
0	76938	12093.468364772166	1
0	76940	12093.545260431129	2
0	76941	12093.672548603578	1
0	76949	12093.952024220832	2
0	76951	12094.159207313552	3
0	76952	12094.43948570223	2
0	76958	12095.302948025378	3
0	76959	12095.425249105212	2
0	76962	12096.046652149628	1
0	76966	12096.21612389195	2
0	76967	12096.716310345088	1
0	76971	12097.478152053114	2
0	76972	12097.499490186418	1
0	76976	12097.611028258441	2
0	76977	12098.122935410435	1
0	76981	12098.563247894598	2
0	76982	12098.651200254573	1
0	76986	12098.718886971916	2
0	76987	12099.356617270163	1
0	76991	12099.48363438622	2
0	76992	12099.962199833044	1
0	76995	12100.751791256699	0
0	77002	12102.087088052566	1
0	77003	12102.37922827912	0
0	77009	12102.935035501323	1
0	77010	12102.960179297705	0
0	77014	12103.162947737666	1
0	77015	12103.600278857895	0
0	77025	12105.709425187435	1
0	77026	12106.062072953754	0
0	77035	12106.601715597062	1
0	77038	12107.103024621154	0
0	77045	12107.618511665834	1
0	77047	12107.651209213345	2
0	77051	12108.131909340092	3
0	77053	12108.206114492867	4
0	77054	12108.329174983534	3
0	77057	12109.070938571296	2
0	77061	12109.091405224606	3
0	77062	12109.609879959454	2
0	77065	12110.469801461916	1
0	77069	12110.472548711867	2
0	77070	12111.29881418332	1
0	77074	12111.423510382749	2
0	77075	12111.925983066005	1
0	77079	12112.26468593656	2
0	77080	12112.65828159343	1
0	77084	12112.689444412408	2
0	77085	12113.47221177801	1
0	77089	12113.980012967085	2
0	77090	12114.386273401915	1
0	77093	12115.225159920039	0
0	77097	12115.248202137659	1
0	77099	12115.306703699622	2
0	77101	12115.615004909897	3
0	77102	12115.720066749243	2
0	77106	12116.254972977678	3
0	77107	12116.302713554664	2
0	77110	12116.785451117749	1
0	77114	12116.797834546192	2
0	77115	12117.380753455483	1
0	77119	12117.502842979062	2
0	77120	12118.171950594741	1
0	77124	12118.641853327014	2
0	77128	12118.784149648707	3
0	77129	12118.892775193588	2
0	77132	12119.847607394201	1
0	77136	12119.998253060259	2
0	77137	12120.282678848957	1
0	77141	12120.615721376121	2
0	77142	12121.136510229749	1
0	77145	12121.593711689753	0
0	77149	12122.059267351935	1
0	77150	12122.083985853647	0
0	77154	12122.395463020485	1
0	77155	12122.837663479834	0
0	77159	12122.848059982303	1
0	77160	12123.261312289848	0
0	77164	12123.290066460056	1
0	77165	12123.863714708374	0
0	77169	12124.206789750082	1
0	77170	12124.281851906176	0
0	77176	12124.502477233677	1
0	77177	12124.730898922715	0
0	77181	12124.882774309803	1
0	77182	12125.280137440502	0
0	77460	12167.900382739353	1
0	77461	12168.246596900536	0
0	77472	12170.067815777076	1
0	77473	12170.1149269363	0
0	77477	12170.341959376329	1
0	77478	12170.987476200992	0
0	77487	12171.530267970222	1
0	77490	12171.953223688025	0
0	77494	12172.098772858113	1
0	77497	12172.601843607016	0
0	77501	12172.613505503697	1
0	77502	12173.374320614487	0
0	77506	12173.633367067182	1
0	77507	12174.296820511539	0
0	77511	12174.457577711071	1
0	77512	12175.056602525255	0
0	77519	12176.092904107003	1
0	77520	12176.447851339039	0
0	77529	12177.448415376654	1
0	77530	12177.896199805392	0
0	77539	12178.895793538143	1
0	77540	12179.498718629833	0
0	77547	12180.561187803579	1
0	77549	12180.698696820454	2
0	77550	12180.97943044045	1
0	77553	12181.525560890147	0
0	77562	12182.470081955874	1
0	77563	12182.691842614356	0
0	77620	12204.443078901529	1
0	77623	12205.224016644778	0
0	77627	12205.486107359322	1
0	77628	12206.177289587744	0
0	77635	12206.666341099918	1
0	77636	12207.122912021047	0
0	77660	12210.623555876593	1
0	77663	12211.163318305628	0
0	77667	12211.18032608425	1
0	77668	12211.794604586603	0
0	77672	12212.148497912618	1
0	77673	12212.204415048266	0
0	77685	12213.905477772333	1
0	77686	12214.742210083799	0
0	77705	12218.303509375566	1
0	77706	12218.644334707109	0
0	77712	12219.14806537284	1
0	77713	12219.48527241091	0
0	77717	12219.751299602257	1
0	77718	12220.299786796959	0
0	77722	12220.526643259948	1
0	77723	12221.09341775284	0
0	77727	12221.340404079541	1
0	77728	12222.00054223582	0
0	77732	12222.117287497451	1
0	77733	12222.441685805682	0
0	77737	12222.781608675882	1
0	77738	12222.883663036002	0
0	77744	12223.247481601154	1
0	77745	12223.561102372341	0
0	77749	12223.58338379234	1
0	77751	12223.762144639484	2
0	77753	12224.177697990938	3
0	77754	12224.180836794133	2
0	77759	12224.90762934436	1
0	77762	12225.457194854579	0
0	77766	12225.889927521316	1
0	77767	12226.058785218121	0
0	77771	12226.754841182674	1
0	77772	12227.045758067285	0
0	77776	12227.361982099642	1
0	77777	12227.722253444027	0
0	77781	12227.825814468171	1
0	77782	12228.341120645618	0
0	77786	12228.563362237761	1
0	77787	12229.102477285759	0
0	77791	12229.379021980145	1
0	77792	12230.072822732739	0
0	77799	12230.90889397004	1
0	77800	12231.222158828266	0
0	77809	12232.247221028184	1
0	77810	12232.895739942724	0
0	77817	12233.554221767137	1
0	77820	12234.250327850953	0
0	77827	12234.820864948794	1
0	77828	12235.578200951666	0
0	77840	12239.645251682191	1
0	77841	12240.604252162294	0
0	77880	12250.264653657768	1
0	77881	12251.096389159869	0
0	77890	12251.722721086092	1
0	77891	12252.632531050063	0
0	77905	12255.580486730427	1
0	77906	12256.3443583273	0
0	77915	12257.456852308744	1
0	77916	12257.851857165735	0
0	77967	12273.847668122864	1
0	77970	12274.275191664685	0
0	77981	12274.921228813839	1
0	77983	12274.990647585578	2
0	77984	12275.196337888658	1
0	77990	12275.773150979376	2
0	77991	12275.870458123216	1
0	77994	12276.862620371382	0
0	77998	12276.973867352911	1
0	77999	12277.856426685711	0
0	78003	12278.254237211259	1
0	78004	12278.474618794851	0
0	78008	12278.605654850702	1
0	78009	12279.405960916623	0
0	78016	12280.701585535701	1
0	78017	12280.810261492187	0
0	78026	12281.92214994421	1
0	78028	12282.176328247835	2
0	78029	12282.389044470469	1
0	78033	12282.478254990789	2
0	78034	12283.056258973049	1
0	78038	12283.118044419587	2
0	78039	12283.495393011102	1
0	78043	12283.955525648847	2
0	78044	12284.164733924426	1
0	78048	12284.204144017515	2
0	78049	12285.05573975154	1
0	78053	12285.322937494749	2
0	78054	12285.982636045514	1
0	78058	12286.154071592559	2
0	78059	12286.531817902055	1
0	78063	12286.736255079293	2
0	78064	12287.409520750715	1
0	78068	12287.709358950238	2
0	78072	12288.012898232198	3
0	78073	12288.286311560579	2
0	78077	12288.310813279299	3
0	78078	12288.790735700669	2
0	78082	12289.3847194401	3
0	78083	12289.514690408658	2
0	78086	12290.250011466991	1
0	78090	12290.459626495429	2
0	78092	12290.575729731092	3
0	78093	12290.759432341892	2
0	78097	12290.932526054673	3
0	78098	12291.436849558808	2
0	78102	12291.770231193619	3
0	78103	12292.00185070833	2
0	78107	12292.528519191134	3
0	78108	12292.652435598697	2
0	78112	12292.935774288744	3
0	78113	12293.513395863993	2
0	78118	12294.427648593753	1
0	78122	12295.071635580419	2
0	78123	12295.259751863393	1
0	78127	12295.518634740653	2
0	78128	12295.884786756278	1
0	78132	12296.21187337437	2
0	78133	12296.497793938859	1
0	78137	12296.543052262182	2
0	78138	12297.371959540561	1
0	78142	12297.476710383009	2
0	78143	12298.278002173534	1
0	78147	12298.546916717638	2
0	78148	12298.79721007723	1
0	78152	12299.087058307631	2
0	78153	12299.620662706053	1
0	78156	12300.53942725713	0
0	78160	12300.726882674289	1
0	78161	12301.175863571499	0
0	78168	12301.854356280274	1
0	78169	12302.528898205362	0
0	78180	12303.497427197675	1
0	78181	12304.03540354449	0
0	78193	12305.828692382722	1
0	78194	12306.372223467973	0
0	78308	12322.846124685135	1
0	78309	12322.968559436021	0
0	78324	12324.516691089815	1
0	78325	12324.597219661284	0
0	78342	12326.778258914367	1
0	78345	12327.422763314783	0
0	78392	12333.7466942156	1
0	78393	12334.567925194497	0
0	78416	12339.451269184598	1
0	78417	12339.86968693457	0
0	78424	12340.38270441715	1
0	78427	12340.793674172772	0
0	78436	12341.404357650211	1
0	78437	12342.015608916463	0
0	78444	12343.030936071674	1
0	78445	12343.594016659152	0
0	78454	12344.785382333856	1
0	78457	12345.446434227456	0
0	78461	12345.744103146838	1
0	78466	12346.265696744141	0
0	78470	12346.35334540871	1
0	78471	12347.232846157891	0
0	78475	12347.246498650479	1
0	78477	12347.679689292868	2
0	78478	12347.716609659498	1
0	78482	12348.180340241139	2
0	78483	12348.223589357487	1
0	78488	12348.744959715367	0
0	78492	12349.377819605572	1
0	78493	12349.513367795557	0
0	78500	12350.321287144369	1
0	78502	12350.515830427572	2
0	78504	12350.83238793464	3
0	78505	12351.124122694539	2
0	78512	12351.587018312313	1
0	78515	12352.053147909729	0
0	78522	12352.688423275709	1
0	78524	12353.218032306769	2
0	78525	12353.305173976239	1
0	78530	12353.805061304089	0
0	78540	12355.643680919416	1
0	78543	12355.840304886628	0
0	78554	12356.948056194271	1
0	78555	12357.25451666525	0
0	78561	12357.517620570472	1
0	78562	12357.669609179333	0
0	78566	12357.828653410125	1
0	78567	12358.369877970344	0
0	78571	12358.623948037918	1
0	78572	12358.833848862522	0
0	78576	12359.288636475319	1
0	78577	12359.623497122186	0
0	78581	12359.684830050057	1
0	78582	12360.415314248609	0
0	78586	12360.476258786343	1
0	78587	12360.969603366251	0
0	78597	12362.094807832708	1
0	78600	12362.854598876866	0
0	78612	12364.207667718483	1
0	78613	12364.600297246487	0
0	78622	12365.50205485341	1
0	78623	12365.906272278712	0
0	78632	12367.117102953168	1
0	78635	12367.883431505258	0
0	78648	12369.640746854635	1
0	78649	12370.201850473215	0
0	78660	12371.052887383083	1
0	78661	12371.638294086732	0
0	78672	12372.886005149522	1
0	78675	12373.454531480965	0
0	78684	12374.397841642076	1
0	78685	12374.529284843697	0
0	78740	12382.614478608026	1
0	78741	12382.698049432771	0
0	78754	12383.949487413335	1
0	78755	12384.147503231592	0
0	78804	12391.442259374621	1
0	78807	12392.072404603368	0
0	78822	12393.246418007678	1
0	78825	12393.771774235634	0
0	78832	12394.831689783163	1
0	78837	12395.10962551626	0
0	78849	12397.284241699874	1
0	78850	12397.804349039202	0
0	78857	12398.774457620346	1
0	78860	12399.666808899338	0
0	78867	12400.487760291802	1
0	78868	12401.051224387236	0
0	78950	12411.335775778491	1
0	78951	12411.495160204998	0
0	78960	12412.428663096113	1
0	78961	12413.047358128603	0
0	78972	12413.889493226054	1
0	78973	12414.823189138423	0
0	78979	12415.07558898814	1
0	78980	12415.674282646121	0
0	78984	12415.942127701828	1
0	78985	12416.604083438579	0
0	78994	12417.347480663139	1
0	78997	12417.939465749579	0
0	79097	12434.63501310324	1
0	79100	12435.048087865199	0
0	79112	12436.754246369458	1
0	79117	12437.562091681865	0
0	79129	12438.897650583093	1
0	79132	12439.491764938032	0
0	79162	12445.690588400942	1
0	79163	12445.751267489212	0
0	79174	12446.67210517692	1
0	79175	12446.70220975804	0
0	79184	12447.426342650476	1
0	79189	12447.968445295075	0
0	79196	12449.017454875691	1
0	79197	12449.594273118654	0
0	79247	12459.419087402595	1
0	79248	12459.562199790219	0
0	79260	12460.900468620948	1
0	79261	12461.841172017625	0
0	79365	12483.589958069442	1
0	79366	12484.150657530184	0
0	79390	12488.150952852667	1
0	79391	12488.463501250706	0
0	79410	12492.485116819957	1
0	79411	12493.185586620928	0
0	79417	12493.736583245169	1
0	79418	12494.01294153851	0
0	79425	12495.162600866123	1
0	79426	12495.574003879042	0
0	79435	12496.153097923517	1
0	79436	12497.011481338009	0
0	79445	12497.93638344846	1
0	79446	12498.630510801511	0
0	79470	12501.322805746534	1
0	79471	12501.674599388384	0
0	79570	12529.225239858655	1
0	79571	12529.674872356278	0
0	79651	12541.590833134797	1
0	79652	12542.124494784964	0
0	79663	12543.111883030195	1
0	79664	12543.318030303378	0
0	79694	12547.69374303272	1
0	79697	12548.133359634259	0
0	79709	12550.102770277326	1
0	79710	12550.254090370319	0
0	79720	12551.855942647874	1
0	79721	12552.018692225857	0
0	79730	12552.884044869121	1
0	79733	12553.79365192163	0
0	79737	12553.970120983355	1
0	79738	12554.280865794003	0
0	79782	12559.591317219933	1
0	79783	12559.882300839062	0
0	79789	12560.241720654837	1
0	79790	12560.573606149807	0
0	79794	12561.169169273258	1
0	79797	12561.391539024237	0
0	79804	12562.176775504679	1
0	79805	12562.956764170902	0
0	79814	12564.027257823578	1
0	79815	12564.111504362712	0
0	79827	12565.410661580618	1
0	79828	12566.118164574171	0
0	79841	12566.917683680327	1
0	79842	12567.343840909612	0
0	79849	12568.072299281483	1
0	79850	12568.803748268823	0
0	79857	12569.681556584304	1
0	79858	12570.067801317389	0
0	79869	12570.858368804421	1
0	79870	12571.414958734533	0
0	79877	12571.951379355216	1
0	79878	12572.489933191894	0
0	79910	12579.395174674488	1
0	79911	12580.037137992533	0
0	79920	12581.145523354971	1
0	79922	12581.248277382053	2
0	79923	12581.704393957812	1
0	79926	12582.21534940356	0
0	79935	12583.854732263885	1
0	79936	12583.923525097877	0
0	79942	12584.252220218446	1
0	79945	12584.665554306613	0
0	79949	12584.707048553733	1
0	79950	12585.569445807676	0
0	80025	12603.374696376638	1
0	80026	12603.379929028285	0
0	80037	12604.781757730438	1
0	80039	12604.917627028797	2
0	80040	12604.933963280191	1
0	80045	12605.6375684316	0
0	80049	12605.94209683574	1
0	80050	12606.253604353146	0
0	80057	12606.755780907105	1
0	80058	12607.572491721037	0
0	80067	12608.390134445301	1
0	80068	12608.784398970447	0
0	80095	12614.797506602821	1
0	80096	12615.305260000978	0
0	80102	12615.91576506005	1
0	80103	12615.977125374502	0
0	80110	12616.891334429038	1
0	80111	12617.198452343879	0
0	80120	12618.517668346962	1
0	80121	12618.549285046901	0
0	80140	12621.566715104153	1
0	80141	12621.722584007704	0
0	80185	12629.016562044705	1
0	80186	12629.379126360067	0
0	80192	12630.141156340524	1
0	80193	12630.313054998019	0
0	80200	12630.973871781738	1
0	80202	12630.978459747249	2
0	80203	12631.656527106078	1
0	80207	12631.725419070893	2
0	80210	12632.637302424652	1
0	80214	12632.681948666622	2
0	80217	12633.410737259859	1
0	80221	12633.724335555259	2
0	80222	12634.120795064499	1
0	80226	12634.252550135057	2
0	80227	12635.115841606013	1
0	80231	12635.191439451085	2
0	80232	12635.776809390341	1
0	80235	12636.571297169509	0
0	80239	12636.593163394161	1
0	80240	12637.216366789243	0
0	80244	12637.363937665184	1
0	80245	12637.712152290842	0
0	80249	12637.953511353161	1
0	80250	12638.413502630111	0
0	80254	12639.129074035429	1
0	80255	12639.295653347982	0
0	80272	12641.304982237752	1
0	80273	12641.611356075698	0
0	80282	12642.617580300305	1
0	80287	12643.277088662826	0
0	80294	12644.388041860536	1
0	80295	12644.715814029176	0
0	80304	12645.999555329867	1
0	80305	12646.004813294329	0
0	80312	12646.706799886818	1
0	80318	12647.266385226195	2
0	80319	12647.448473368149	1
0	80322	12648.408307796374	0
0	80326	12648.552042435481	1
0	80329	12649.133194928087	0
0	80370	12657.786765878016	1
0	80371	12657.975964625934	0
0	80387	12659.710025522965	1
0	80389	12659.894290201522	2
0	80392	12660.527722407375	1
0	80397	12661.106400341131	0
0	80401	12661.329558163972	1
0	80402	12661.706481005168	0
0	80411	12662.308689980437	1
0	80412	12662.776982773943	0
0	80469	12671.164169235525	1
0	80470	12671.628137913672	0
0	80481	12672.541633586513	1
0	80482	12673.041115201125	0
0	80580	12688.042414852362	1
0	80583	12688.67298529407	0
0	80592	12689.672481062115	1
0	80594	12689.969608605495	2
0	80595	12690.087599246744	1
0	80602	12690.944406094756	0
0	80608	12691.263429062033	1
0	80609	12691.474629879631	0
0	80616	12692.224861434151	1
0	80617	12692.684318195079	0
0	80621	12693.072364188883	1
0	80622	12693.169069840648	0
0	80626	12693.861023913388	1
0	80627	12693.86886589218	0
0	80631	12694.107972603222	1
0	80634	12694.828397731325	0
0	80638	12694.843447577572	1
0	80639	12695.446979148435	0
0	80643	12695.501016689658	1
0	80644	12695.869386209669	0
0	80648	12695.919350646045	1
0	80649	12696.768862022441	0
0	80656	12697.930649061129	1
0	80657	12698.4533832053	0
0	80742	12712.026470295568	1
0	80743	12712.181643473074	0
0	80752	12713.545697215356	1
0	80753	12713.725326805186	0
0	80764	12714.803112202874	1
0	80765	12714.888247083217	0
0	80779	12716.78763632636	1
0	80780	12716.951485804232	0
0	80865	12731.311438523038	1
0	80866	12731.727372931765	0
0	80875	12732.888587730012	1
0	80876	12733.022392619291	0
0	80880	12733.088788521182	1
0	80881	12733.598507501447	0
0	80890	12734.440858485742	1
0	80891	12734.75173802571	0
0	80895	12735.079238386466	1
0	80898	12735.402541732784	0
0	80902	12735.601633370505	1
0	80906	12735.767864018261	2
0	80909	12736.198802748272	1
0	80912	12736.92595680188	0
0	80924	12738.571440673057	1
0	80926	12738.861218563421	2
0	80927	12739.403864075054	1
0	80930	12740.175278861398	0
0	80934	12740.398042997722	1
0	80935	12741.105974144159	0
0	80939	12741.327608227727	1
0	80940	12741.741499168655	0
0	80947	12742.211243506803	1
0	80949	12742.625983302831	2
0	80950	12742.808974951502	1
0	80955	12743.748229521137	0
0	80962	12744.383734679987	1
0	80964	12744.729719199343	2
0	80966	12744.952787441153	3
0	80967	12745.122639096338	2
0	80972	12745.879195327075	1
0	80976	12745.880136701774	2
0	80977	12746.702425056087	1
0	80982	12747.62856509159	0
0	80989	12748.523187723609	1
0	80990	12748.590055002641	0
0	80994	12748.956115526476	1
0	80997	12749.385079768855	0
0	81004	12750.630788803787	1
0	81005	12751.082083123918	0
0	81024	12753.389958245158	1
0	81027	12753.957112459042	0
0	81125	12772.110597709694	1
0	81126	12772.493807282622	0
0	81135	12773.006618531864	1
0	81136	12773.882465672414	0
0	81235	12804.435567632683	1
0	81236	12804.561963479067	0
0	81285	12826.558127827692	1
0	81286	12827.160984220383	0
0	81295	12828.155628990032	1
0	81296	12828.302526888517	0
0	81330	12838.403886578672	1
0	81331	12838.74826361927	0
0	81335	12838.840297072704	1
0	81336	12839.538857911097	0
0	81340	12839.830345833713	1
0	81341	12840.198589519214	0
0	81365	12844.885282935813	1
0	81366	12845.742711151686	0
0	81415	12866.357839208834	1
0	81416	12866.9143376186	0
0	81420	12867.026176929562	1
0	81421	12867.677473967147	0
0	81430	12868.284295573355	1
0	81433	12868.81765150422	0
0	81445	12870.894031794715	1
0	81446	12871.001031980153	0
0	81452	12871.29985630199	1
0	81453	12871.922650461692	0
0	81457	12872.030960190187	1
0	81460	12872.656937282441	0
0	81467	12873.581632993075	1
0	81468	12873.810777601229	0
0	81475	12874.746741036462	1
0	81476	12875.414759641515	0
0	81485	12876.478561690782	1
0	81488	12877.325094330685	0
0	81510	12882.299062069596	1
0	81511	12882.389052547521	0
0	81577	12897.953466659557	1
0	81578	12898.401952930227	0
0	81587	12899.544353999754	1
0	81588	12900.014938956186	0
0	81595	12900.598324960245	1
0	81598	12900.992487309047	0
0	81665	12916.266542619109	1
0	81666	12916.434366100608	0
0	81679	12917.940572583166	1
0	81680	12918.248202392506	0
0	81689	12919.364241650907	1
0	81690	12919.803038417874	0
0	81699	12920.962863755623	1
0	81700	12921.282737844763	0
0	81707	12922.008000246411	1
0	81708	12922.549006725009	0
0	81765	12930.816866099834	1
0	81766	12931.328081297005	0
0	81780	12933.399203035017	1
0	81781	12933.762717907291	0
0	82075	12996.530476816576	1
0	82078	12997.409075109973	0
0	82087	12997.961140135762	1
0	82088	12998.833246487365	0
0	82097	12999.542770591479	1
0	82100	13000.299875531937	0
0	82107	13001.350706478128	1
0	82108	13001.722619182323	0
0	82115	13002.683448996779	1
0	82116	13002.994813607107	0
0	82167	13009.110108204431	1
0	82168	13009.860106596895	0
0	82177	13010.457960809691	1
0	82180	13011.085303768967	0
0	82187	13011.773642659853	1
0	82192	13012.417138255746	0
0	82201	13013.305560026357	1
0	82202	13013.613946929839	0
0	82208	13014.089669532762	1
0	82209	13014.399218193055	0
0	82216	13015.031739382674	1
0	82218	13015.418970849745	2
0	82219	13015.53074547796	1
0	82224	13016.290558668025	0
0	82228	13016.430650322535	1
0	82229	13017.16851522027	0
0	82233	13017.465615752126	1
0	82234	13017.81901194978	0
0	82238	13017.844321554961	1
0	82241	13018.461866141422	0
0	82248	13019.5942619282	1
0	82250	13019.922745075814	2
0	82251	13020.042555797039	1
0	82255	13020.21117390623	2
0	82256	13020.951444273055	1
0	82260	13021.284086230302	2
0	82261	13021.691857517217	1
0	82265	13021.90714661159	2
0	82268	13022.635988531713	1
0	82272	13023.044242177452	2
0	82273	13023.22453691334	1
0	82277	13023.249263676155	2
0	82278	13023.877012626394	1
0	82281	13024.560659581782	0
0	82285	13024.734633928175	1
0	82286	13025.048890406159	0
0	82290	13025.078316625341	1
0	82291	13026.002500051991	0
0	82295	13026.045258153231	1
0	82297	13026.125275978246	2
0	82299	13026.617418649215	3
0	82300	13026.740668839575	2
0	82304	13027.161311394867	3
0	82305	13027.310508398558	2
0	82309	13027.428640787248	3
0	82310	13028.195275601125	2
0	82315	13029.088985169385	1
0	82319	13029.58723284582	2
0	82320	13029.892343213814	1
0	82324	13030.149601295829	2
0	82326	13030.221304473481	3
0	82328	13030.541092665858	4
0	82329	13030.855857355925	3
0	82333	13030.947924071058	4
0	82334	13031.367741780574	3
0	82338	13032.039653602077	4
0	82339	13032.335582826924	3
0	82342	13032.884883654662	2
0	82345	13033.677522883876	1
0	82348	13034.218190061473	0
0	82352	13034.466052960575	1
0	82354	13034.632730210762	2
0	82355	13034.760627033361	1
0	82360	13035.612902854183	0
0	82364	13035.853390495506	1
0	82365	13036.285037291548	0
0	82369	13036.322501498779	1
0	82370	13037.052250559241	0
0	82377	13037.84819688144	1
0	82378	13038.390713575328	0
0	82389	13039.558440811322	1
0	82391	13039.812856135187	2
0	82392	13040.1120253892	1
0	82399	13040.577260584323	0
0	82406	13041.583015257408	1
0	82407	13041.916468969531	0
0	82411	13042.079836411789	1
0	82412	13042.641629655411	0
0	82419	13043.231586592515	1
0	82420	13043.722218728097	0
0	82427	13044.74072869604	1
0	82428	13044.762642930293	0
0	82439	13045.830575372841	1
0	82441	13045.97489267374	2
0	82442	13046.239851460497	1
0	82449	13046.916507354875	0
0	82453	13046.936062098186	1
0	82454	13047.345736857674	0
0	82458	13047.374953949867	1
0	82459	13048.101569336357	0
0	82469	13049.269418382696	1
0	82472	13049.483029192065	0
0	82481	13050.349563301107	1
0	82482	13051.000987710509	0
0	82509	13054.908874994642	1
0	82512	13055.369806943074	0
0	82521	13056.133181905009	1
0	82522	13056.418039613249	0
0	82533	13057.255255132523	1
0	82534	13058.227471197149	0
0	82543	13058.963834327174	1
0	82544	13059.733773908097	0
0	82551	13060.52234816129	1
0	82552	13061.38326764664	0
0	82561	13062.811152096988	1
0	82563	13062.868114004278	2
0	82564	13063.042086033834	1
0	82569	13063.5725908649	0
0	82573	13063.617342708632	1
0	82574	13064.048602460589	0
0	82578	13064.081680009697	1
0	82579	13064.526513208899	0
0	82583	13064.600097253692	1
0	82586	13064.930216730883	0
0	82593	13065.918890834751	1
0	82594	13066.509712017685	0
0	82603	13067.60375321544	1
0	82604	13068.177911305319	0
0	82611	13069.306127185627	1
0	82612	13069.975912070166	0
0	82619	13070.531404084229	1
0	82620	13071.193925706328	0
0	82629	13072.072891954531	1
0	82633	13072.231428574936	2
0	82634	13072.599663010084	1
0	82637	13073.400188401372	0
0	82641	13073.519442653645	1
0	82644	13074.399948303013	0
0	82648	13074.484079058152	1
0	82649	13075.349737984485	0
0	82657	13076.184449657952	1
0	82658	13076.274546777069	0
0	82662	13076.798059704122	1
0	82663	13077.002631478834	0
0	82667	13077.153047522479	1
0	82668	13077.5500976784	0
0	82675	13078.942171408966	1
0	82676	13078.973447837712	0
0	82680	13079.033546058236	1
0	82681	13079.430581022644	0
0	82685	13079.43256491515	1
0	82688	13080.317433071913	0
0	82694	13080.803235406675	1
0	82695	13081.097410462968	0
0	82699	13081.157688231194	1
0	82700	13081.610344546646	0
0	82704	13081.7519423255	1
0	82705	13082.243395950677	0
0	82714	13083.232293947031	1
0	82715	13083.570776860448	0
0	82722	13084.280218123363	1
0	82724	13084.399653368426	2
0	82727	13085.216918763783	1
0	82732	13085.692881842641	0
0	82739	13086.541571227036	1
0	82741	13087.015426875668	2
0	82742	13087.037944372961	1
0	82745	13087.455955195132	0
0	82749	13087.470223031255	1
0	82752	13088.328276795878	0
0	82756	13088.349041640966	1
0	82757	13089.043851810166	0
0	82761	13089.618746720055	1
0	82762	13089.741230159982	0
0	82766	13089.901964834345	1
0	82767	13090.632620044502	0
0	82774	13092.032868248986	1
0	82775	13092.115131193523	0
0	82787	13093.747450817286	1
0	82790	13094.257912397275	0
0	82799	13095.455527700001	1
0	82800	13095.62202731956	0
0	82812	13097.402020112304	1
0	82815	13097.930146503245	0
0	82827	13099.991045945375	1
0	82830	13100.290716728318	0
0	82839	13101.038896759267	1
0	82840	13101.479020036041	0
0	82849	13102.509272966318	1
0	82850	13103.044791022718	0
0	82918	13112.521654515321	1
0	82919	13112.597829222523	0
0	82996	13124.752186518249	1
0	83001	13125.379994236148	0
0	83010	13126.723349942865	1
0	83011	13127.130643191823	0
0	83020	13127.927338417409	1
0	83021	13128.315857534233	0
0	83076	13136.8683684892	1
0	83077	13136.959310605872	0
0	83086	13138.580016965127	1
0	83087	13138.734399854421	0
0	83094	13139.513934457157	1
0	83095	13139.935030199989	0
0	83159	13150.477776849065	1
0	83160	13151.146943277144	0
0	83171	13152.840350558123	1
0	83172	13152.898034311994	0
0	83179	13153.806266384952	1
0	83180	13154.512417669664	0
0	83184	13154.55711413276	1
0	83187	13155.327592494781	0
0	83196	13156.101233217269	1
0	83199	13156.557610471942	0
0	83203	13157.326523577092	1
0	83204	13157.41369688448	0
0	83208	13158.008900271442	1
0	83209	13158.191762997652	0
0	83213	13158.326709568912	1
0	83214	13158.704582472913	0
0	83218	13158.719581008607	1
0	83219	13159.339299226854	0
0	83223	13159.539483479337	1
0	83224	13160.218590557225	0
0	83233	13161.82211954684	1
0	83234	13161.910932514373	0
0	83240	13162.145910350719	1
0	83241	13162.466904334001	0
0	83248	13163.77501206328	1
0	83249	13163.966672229509	0
0	83253	13163.975800369013	1
0	83254	13164.371393445994	0
0	83260	13164.709270028321	1
0	83261	13165.149252129414	0
0	83265	13165.171087903355	1
0	83266	13165.73987279774	0
0	83270	13165.83942302425	1
0	83273	13166.682183843314	0
0	83277	13167.053804096587	1
0	83278	13167.261797302517	0
0	83290	13168.627746219662	1
0	83293	13169.129701921738	0
0	83300	13169.911906121171	1
0	83301	13170.322456722728	0
0	83310	13171.869184090118	1
0	83311	13171.896993107696	0
0	83320	13172.87598258921	1
0	83321	13173.589742617982	0
0	83339	13176.692727000377	1
0	83340	13176.715611583575	0
0	83353	13178.090900247923	1
0	83354	13178.424904579505	0
0	83358	13178.505711443522	1
0	83362	13179.113888278001	2
0	83363	13179.357426719157	1
0	83366	13179.901338258501	0
0	83370	13180.091107265645	1
0	83371	13180.339098982489	0
0	83375	13180.44371104593	1
0	83378	13180.902829122845	0
0	83382	13180.924572702452	1
0	83385	13181.890872460766	0
0	83389	13182.052815956358	1
0	83390	13182.570286399568	0
0	83394	13182.616874374371	1
0	83395	13183.137307290337	0
0	83399	13183.257688645947	1
0	83402	13183.985537693021	0
0	83406	13184.378610381988	1
0	83407	13184.399638235406	0
0	83411	13184.403182605951	1
0	83412	13185.397303254553	0
0	83416	13185.405767324957	1
0	83417	13186.182362882118	0
0	83421	13186.47959862748	1
0	83422	13186.783201468573	0
0	83426	13186.918042870512	1
0	83427	13187.572273100657	0
0	83431	13187.752426500296	1
0	83432	13188.090739006573	0
0	83439	13188.657168836086	1
0	83440	13189.143237664248	0
0	83449	13189.928626822695	1
0	83450	13190.300916061387	0
0	83462	13191.405327593349	1
0	83463	13192.221633965359	0
0	83472	13192.973699138635	1
0	83473	13193.682137289061	0
0	83489	13195.605225506612	1
0	83493	13195.830552123972	2
0	83494	13196.301653700763	1
0	83500	13196.784591489866	2
0	83501	13197.180650141531	1
0	83505	13197.251456188069	2
0	83506	13198.05251245268	1
0	83509	13198.85958747973	0
0	83513	13199.236571311711	1
0	83514	13199.781607292521	0
0	83518	13199.918444067485	1
0	83519	13200.21577031242	0
0	83523	13200.463236189336	1
0	83524	13200.653738976897	0
0	83528	13200.951259803016	1
0	83529	13201.104096836199	0
0	83536	13201.873002805172	1
0	83537	13202.492825585671	0
0	83544	13203.426120693691	1
0	83545	13203.858869681482	0
0	83554	13204.80116820761	1
0	83555	13205.072492650312	0
0	83569	13206.832405638105	1
0	83570	13207.685108664979	0
0	83787	13239.160512153432	1
0	83788	13239.463473475374	0
0	83801	13240.306444384421	1
0	83802	13240.852421939674	0
0	83816	13242.306237010825	1
0	83817	13242.557947889086	0
0	83826	13243.052978542761	1
0	83827	13243.677393677993	0
0	83831	13244.142894975268	1
0	83832	13244.39247207276	0
0	83839	13245.328631326803	1
0	83841	13245.346416568868	2
0	83842	13245.992625715793	1
0	83846	13246.329382947161	2
0	83847	13246.739763262845	1
0	83851	13246.827221287582	2
0	83852	13247.335678932513	1
0	83856	13247.735277115673	2
0	83857	13248.084714211733	1
0	83860	13249.028045291756	0
0	83864	13249.158975878369	1
0	83867	13249.873354605515	0
[...]
9	168121	26936.335910219524	3.383291511795
9	168130	26937.122301162371	3.67304777779
9	168166	26942.261858597734	2.045148618846
9	168197	26946.868448821886	48.567206832874
9	168233	26952.336041741086	0.787779201427
9	168241	26953.715325101711	8.114029347315
9	168251	26954.955060535915	21.730477231387
9	168264	26956.853627372732	28.83638800185
9	168299	26962.854085084809	9.285430773341
9	168307	26964.510206549116	10.801698378003
9	168327	26967.650263786608	4.071065107837
9	168332	26968.200331922959	10.076939003374
9	168384	26975.616549817531	4.326010667822
9	168387	26976.302324415243	12.494321780155
9	168402	26978.962988376256	2.399204577994
9	168433	26983.964584514463	6.422695701212
9	168441	26985.248312285042	6.371751895693
9	168444	26986.057460639405	3.398706171202
9	168455	26987.761750377122	3.312512979192
9	168467	26990.732308359085	2.381105225075
9	168477	26991.826137116658	9.339613163904
9	168502	26994.486807217323	20.816879770071
9	168538	26998.759984580023	12.061659742331
9	168586	27006.386963234624	15.926639896211
9	168589	27007.375302647907	8.239184872777
9	168666	27017.791245446788	5.390196908706
9	168826	27038.751988563703	8.046683810621
9	168933	27055.537882016011	4.544042621834
9	168938	27056.03084091313	7.234363361251
9	168944	27057.578178546035	1.297275043107
9	168980	27062.599962291184	4.350828938496
9	168983	27063.227673443609	1.340180586487
9	169053	27074.53727933212	13.792995646068
9	169058	27075.295720536511	0.758441204391
9	169074	27078.284329475013	22.644148188163
9	169080	27079.470561255298	39.276360219057
9	169083	27080.111547205241	11.302200442054
9	169088	27080.658487206807	7.132331258013
9	169136	27086.669875267583	6.344385485532
9	169139	27087.162705263185	12.630349824909
9	169160	27090.782327937536	4.065945030266
9	169232	27100.091854007556	26.887864578418
9	169240	27101.470039555816	8.357053190112
9	169273	27106.626362296858	10.250487841091
9	169296	27110.474459045439	8.916058663934
9	169315	27112.51770971074	0.728774066502
9	169333	27115.676173167828	4.645657374517
9	169394	27125.825598907432	7.705349699649
9	169397	27126.332844772337	17.412501265269
9	169451	27133.482304987872	0.683558120765
9	169491	27139.004659528891	31.652624983156
9	169546	27147.218235922604	4.926392695885
9	169669	27163.452783528549	8.823166219251
9	169674	27164.342196306513	5.864756776005
9	169689	27166.464655631009	8.736533117235
9	169755	27176.266890484596	9.767199306211
9	169767	27177.900968133791	0.828908635071
9	169841	27194.788897392203	0.635769463563
9	169852	27196.772240302808	0.668959909026
9	170016	27218.737558973726	2.094594425082
9	170067	27226.455311516074	0.489111529943
9	170074	27227.454041832087	0.998730316013
9	170122	27239.021307980513	0.542763347551
9	170137	27241.887485511495	0.823443144839
9	170219	27268.083377026558	2.122979801378
9	170256	27273.294908424338	2.808996075728
9	170332	27284.012471814977	2.738298665208
9	170417	27295.52442681145	15.346787020942
9	170471	27302.631633863441	0.474454444973
9	170615	27322.961803481244	0.915842691297
9	170659	27329.862901834473	7.644905337562
9	170673	27331.471385889389	4.847181412494
9	170701	27335.860251985519	3.126075170845
9	170740	27340.925665093708	6.389256551137
9	170747	27341.874354880751	0.948689787043
9	170755	27343.185794392211	18.149642985209
9	170818	27352.106251663977	0.759636894194
9	170836	27355.254221221507	13.204937301547
9	170877	27362.331027088175	14.499339078131
9	170885	27363.708062196477	13.255365234195
9	170909	27366.975711972096	8.057568560932
9	170939	27371.639586440303	0.420560271339
9	170954	27373.586882360249	13.216566328873
9	170962	27374.935100769035	2.624976127084
9	171039	27395.212246920591	0.996918952372
9	171086	27401.151597077881	2.31911624416
9	171112	27406.243442537326	3.121557331647
9	171382	27444.64292862659	0.460766897816
9	171456	27454.57755240129	0.779205584573
9	171488	27458.886640559478	0.748917985521
9	171586	27472.413031035118	0.594585141586
9	171687	27484.32304896765	7.970995669122
9	172047	27536.402286098537	2.61331052289
9	172065	27538.807023664157	0.521123662964
9	172080	27540.933048015333	0.776357706403
9	172085	27541.566661970097	1.747697238031
9	172108	27544.98357221858	4.900432647382
9	172133	27548.101791827207	4.708398504693
9	172163	27552.079397865678	2.858279823677
9	172178	27554.578285413249	1.626474126378
9	172222	27560.315794830643	5.242636851258
9	172231	27562.588979483828	5.802835983563
9	172263	27566.554439107062	5.010916250266
9	172288	27569.115371429375	2.607548517153
9	172315	27573.140918118613	0.777895909268
9	172331	27575.484456848925	5.046219434074
9	172368	27580.982252646856	2.20416837988
9	172568	27609.630946160678	0.571701451391
9	172608	27616.772566695056	0.864730250742
9	172660	27624.835434351732	5.629659179346
9	172696	27629.317069898323	2.466200839396
9	172744	27636.676274093389	5.138040878523
9	172830	27647.588988228896	14.340003166248
9	172882	27654.089888928002	0.417553197779
9	172976	27668.413723065529	5.422504188158
9	172979	27669.138898897089	9.104883462707
9	173001	27672.188110354646	5.7963094305
9	173055	27679.862288926645	18.354660691475
9	173062	27680.510253470215	5.106504019584
9	173078	27682.053094882203	0.876219630102
9	173089	27684.016226336185	0.462941029668
9	173092	27684.468628428795	0.45240209261
9	173110	27687.191696743913	6.314733516566
9	173153	27692.259480004539	3.887959151314
9	173156	27692.98674984436	3.765422922279
9	173169	27695.143623286965	2.740894848432
9	173180	27697.45396373576	3.995603785767
9	173185	27698.161234776224	17.45709175471
9	173193	27699.371109032458	3.885254336957
9	173196	27699.856885830885	8.423277116645
9	173233	27706.345460591198	0.664345534844
9	173244	27707.996193284786	17.074919757228
9	173273	27711.237569349783	12.09304024486
9	173312	27716.525133960239	15.55356990927
9	173414	27730.797804182127	3.30755830024
9	173433	27734.304387437843	12.644072582284
9	173458	27738.142672801216	26.693163338276
9	173468	27739.321315292048	18.771563823384
9	173603	27757.711105856961	0.87173585142
9	173611	27758.967736878768	15.571307720539
9	173716	27773.315793433422	2.215805676082
9	173851	27789.930544191608	11.704391990163
9	173871	27792.46700299383	3.458309665725
9	173882	27795.065821206624	20.313619660639
9	173898	27797.948267195148	0.9714623712
9	173904	27799.529357289902	0.992286316957
9	173928	27803.865119362396	8.579107532652
9	173949	27807.713249745598	4.137279746554
9	173977	27811.769065212814	10.154928768958
9	174129	27831.226739464289	9.733071722871
9	174215	27843.198357848413	2.235288603166
9	174284	27851.678136339514	3.226033888778
9	174303	27855.406419466027	6.656150266643
9	174379	27865.66692910973	5.358893595432
9	174511	27885.703495762599	13.729067568573
9	174559	27892.046710765837	3.433369701914
9	174592	27896.91147202436	3.319101791746
9	174612	27898.997958813618	4.764798453994
9	174684	27907.920999494903	5.179547727538
9	174704	27910.703582473016	1.504172893356
9	174731	27914.57868208956	0.828241910553
9	174744	27917.179666796336	0.962321355799
9	174790	27923.916979086408	10.755212288072
9	174827	27929.393644134104	10.446058116716
9	174908	27941.936394540788	3.584084384328
9	174917	27944.390130288768	12.510275496125
9	174945	27947.573945731213	3.890401215447
9	175183	27979.527830828225	11.783169320286
9	175186	27980.116631116776	1.9662548601
9	175197	27982.447333283314	24.209091945632
9	175213	27984.963880124792	19.424281668324
9	175275	27993.351158744666	1.344755829526
9	175282	27994.092636213928	3.742835256502
9	175316	27997.716307086369	1.711952092657
9	175327	27999.273560910497	0.531502016308
9	175379	28006.663289099711	0.617390072066
9	175414	28011.187023155869	20.78960406981
9	175495	28022.729629552329	3.504629926512
9	175623	28040.33878200954	11.097212046806
9	175694	28050.557685643681	17.806824233993
9	175713	28053.847756147305	0.554278879287
9	175718	28054.266363529921	0.418607382616
9	175738	28056.920512688638	10.372822564281
9	175764	28061.837432222827	5.115069757492
9	175776	28063.341710701925	4.214337513727
9	175779	28064.224950073255	11.814771857872
9	175787	28065.536539093839	8.114837331876
9	175800	28067.782779784282	16.46140998615
9	175821	28071.366242709444	6.465717183169
9	175969	28090.071101258123	8.413184120726
9	176034	28099.539613042152	0.602550115762
9	176177	28120.805569212262	18.345831794503
9	176238	28128.597747489606	1.61780670558
9	176243	28129.449417051702	1.91424182847
9	176248	28130.188377984735	1.630224220559
9	176278	28134.457505323905	3.051931886047
9	176294	28135.762826581513	20.747359974318
9	176302	28137.000685104755	6.360034106925
9	176331	28142.140749884518	21.104684314968
9	176356	28145.225835068552	6.294807569023
9	176365	28147.713415600575	7.402507728626
9	176372	28148.895372049188	7.765536605435
9	176389	28151.236572722535	10.534588583444
9	176489	28165.399761266357	3.159606236116
9	176521	28169.941713343004	4.935749917066
9	176591	28178.604935250666	0.415134962555
9	176608	28180.092182587043	15.172628279933
9	176614	28181.724302751294	8.18417279175
9	176747	28200.052996289873	0.654426829284
9	176752	28200.916466154813	0.86346986494
9	176812	28209.466942263259	0.447609993303
9	176827	28210.961010029125	1.704845172158
9	176849	28214.475407354492	13.882892384299
9	176885	28219.573645954166	0.974089227663
9	176911	28223.909181719045	3.585235283417
9	176921	28225.31948078643	2.482301662396
9	176985	28234.06629927969	9.000123334802
9	177097	28250.755742879169	7.042624298055
9	177109	28253.470044009671	14.788036325093
9	177120	28257.510334883521	14.723511797178
9	177200	28269.005729307467	3.579424706623
9	177210	28270.590762241511	4.840619668371
9	177218	28271.826895358787	5.652606662542
9	177511	28310.725876658503	0.680748846428
9	177516	28311.597058054293	7.419855652038
9	177549	28315.770722938841	4.696549524073
9	177846	28356.667035173252	0.519129156973
9	177871	28360.26394931879	4.241304949191
9	177897	28364.195713059279	4.03227752898
9	177952	28371.819611797064	5.270561742795
9	177955	28372.240335495538	13.479329085613
9	177990	28376.999465732509	6.461779096228
9	178024	28381.656890534795	0.621290162252
9	178029	28382.591494833072	16.178011734749
9	178035	28383.798919834056	10.597060309472
9	178040	28384.271037574996	1.276230365217
9	178086	28390.584135603253	0.806429463625
9	178094	28392.328938047635	7.028902896218
9	178138	28398.813484662912	8.99447728009
9	178146	28399.722711952171	12.043730576524
9	178160	28400.877789239679	2.214029950799
9	178163	28401.427897131257	8.696063705855
9	178225	28410.951518164481	18.035865859571
9	178254	28414.20704926541	0.638311255584
9	178268	28416.401102465483	2.149637519185
9	178273	28416.925050523038	10.056912152345
9	178291	28419.608109476277	3.289773377785
9	178325	28423.514304947014	3.610027326467
9	178353	28426.982487822277	4.836742697121
9	178400	28432.767685844004	17.595968897042
9	178410	28434.258627832681	0.762066546269
9	178448	28439.425706375576	0.699904252402
9	178468	28442.073634127155	16.229411770413
9	178474	28443.208899418172	16.728814016784
9	178497	28446.652968980326	2.069443970159
9	178599	28461.142416825008	2.450914526094
9	178684	28473.288702442777	10.352077136041
9	178717	28477.624815014425	6.690293079901
9	178791	28487.210340346396	3.403648435137
9	178807	28489.740545566706	3.963941371603
9	178831	28492.754437592579	0.612686910201
9	178836	28493.179693834949	4.659867517279
9	178907	28503.409302774631	2.543770917718
9	178949	28510.801114828838	0.434897478018
9	178974	28514.503164038469	10.852981654592
9	179127	28534.023361559479	0.488911111094
9	179223	28546.323036971303	16.479024933202
9	179251	28550.888573133047	8.798086077951
9	179293	28557.538722407199	59.112208226696
9	179395	28571.622142548893	7.48941114505
9	179411	28574.478252997609	0.883391641872
9	179434	28578.417651665943	13.784411284657
9	179452	28580.93169762473	0.475270518521
9	179460	28582.692737426035	7.2683636411
9	179519	28594.356265537428	3.512012371666
9	179782	28630.721322794738	2.465847838075
9	179909	28648.327930873926	0.689480261551
9	179922	28650.292330109203	10.058983637724
9	179942	28653.303745385786	10.087231023524
9	179948	28654.366582104298	30.829150132347
9	179972	28657.858860856542	2.489234755519
9	179987	28659.800321831661	10.754625691597
9	180015	28664.227436460326	0.441582609341
9	180036	28666.745387677269	2.587163649158
9	180060	28669.482605086804	13.399089295801
9	180120	28677.027445094964	1.709730491935
9	180128	28678.691835646776	0.827267665463
9	180144	28681.45257452091	0.943223347502
9	180147	28681.96103245274	13.988847793729
9	180150	28682.955916646708	9.758311774788
9	180180	28692.725148231684	0.716924248543
9	180249	28710.74854444327	0.430647431221
9	180272	28714.572842829517	0.768572613737
9	180307	28719.874546677191	5.557573394533
9	180315	28721.314121445099	11.963638401298
9	180320	28723.513816747515	0.868413271569
9	180339	28730.215779746557	0.42555736769
9	180342	28730.734559645551	1.130052394441
9	180345	28731.35113954898	1.512098572156
9	180357	28736.581761377445	1.085218861361
9	180415	28749.165358094101	0.630309605831
9	180506	28762.080581692698	7.051937207158
9	180557	28769.795245756858	0.686626540357
9	180570	28772.315972690016	0.916229550913
9	180602	28778.169926854143	8.190791532626
9	180617	28780.403109940341	7.760888788757
9	180629	28782.217708357902	4.873867704635
9	180646	28784.158321712504	0.571092226868
9	180693	28790.727943805151	2.826850616824
9	180701	28792.101577717077	0.921132427687
9	180719	28794.605021834105	0.602596013108
9	180767	28801.961674786834	6.600623716658
9	180774	28802.448823373821	11.254440451675
9	180787	28804.834963791175	3.372010186131
9	180812	28809.479067801509	1.48163507269
9	180847	28814.127965511762	26.902023105258
9	181098	28855.036006329632	0.645068068104
9	181126	28859.026873232661	2.122414910296
9	181142	28860.155226041194	12.976157099829
9	181172	28864.915862172195	0.545473779552
9	181229	28873.411907662874	6.578278341709
9	181830	28952.007717606475	3.9623646785
9	181863	28956.814685381952	15.292458099745
9	181871	28958.391906877051	7.509174147436
9	181884	28960.579884016843	0.830213957513
9	181916	28965.546436090631	0.478076803731
9	181933	28967.446452466961	12.897609631446
9	182019	28977.705551283859	0.469334527478
9	182032	28979.505802012148	0.663201517938
9	182049	28981.706532597454	3.432478791895
9	182097	28988.289342955039	2.090677930951
9	182129	28991.896138586668	5.339255462694
9	182137	28992.972175039403	4.2948506426
9	182153	28995.761748545297	5.146684031185
9	182156	28996.317003812368	3.786212899375
9	182181	29001.172692024901	4.739295137965
9	182184	29001.835345183785	2.662615794151
9	182192	29003.062556078059	6.824067547368
9	182219	29006.179802374781	12.101087165074
9	182233	29007.859506820847	7.480665869713
9	182241	29009.412174722792	0.902676045895
9	182298	29017.26722136094	0.80130755431
9	182314	29019.316499100725	6.405632443614
9	182326	29020.179702266173	3.424696922025
9	182361	29026.538124880281	3.815804329832
9	182383	29029.64062992995	1.803252333177
9	182425	29035.001587512291	23.71100065661
9	182435	29036.743510904948	7.282589219873
9	182475	29041.940942888839	0.50697549223
9	182508	29047.271933470612	3.188681636208
9	182550	29052.985649376867	0.952377331862
9	182558	29054.046454265893	9.035179091158
9	182681	29070.834468837914	7.813396425091
9	182705	29075.566920827464	6.100693836036
9	182778	29085.218294529487	5.114860462498
9	182839	29094.382850196859	9.318933228569
9	182882	29098.813970734313	0.643953795778
9	182896	29101.132068062801	1.393699621866
9	182899	29101.998193617253	5.494678265324
9	182912	29104.32069658697	3.945841962746
9	182924	29105.740204883641	36.64310676754
9	182929	29106.20672086975	6.627453715927
9	182975	29115.947295790603	21.417992355633
9	183032	29122.359513605893	3.037192790225
9	183080	29130.600261754497	3.029515686227
9	183248	29152.732467368327	26.070197348933
9	183437	29178.995364178147	0.455420443742
9	183696	29214.398716999906	0.750182798924
9	183733	29219.876625552719	8.357718343552
9	183736	29220.310259174548	29.678184310862
9	183749	29221.931884943965	1.647710098105
9	183752	29222.605065272973	7.91934927748
9	183769	29227.472157737829	5.539128567176
9	183795	29231.993196755817	1.968008331631
9	183805	29234.141146239752	14.237681796403
9	183815	29236.911478068183	14.720495958513
9	183897	29259.779100901452	0.944574430725
9	184015	29279.686380952046	18.944387351099
9	184042	29285.062169188749	14.208916278377
9	184167	29308.54801833813	18.666889911978
9	184172	29309.059472512984	5.41822254285
9	184217	29318.472113511247	3.190602792403
9	184254	29328.370636129822	6.27763145603
9	184272	29330.925660337671	2.80155720409
9	184307	29348.743631009086	0.735282621998
9	184325	29352.63483847814	6.383190392878
9	184369	29362.417709995068	0.694765211036
9	184411	29371.529291575899	12.10960366884
9	184419	29372.983994150007	2.413740906548
9	184494	29386.103772528771	8.263347989117
9	184515	29389.375579037588	8.469476931756
9	184582	29406.544766897142	14.848213044846
9	184589	29407.496868072955	8.09140530888
9	184629	29415.761018713847	4.381316680884
9	184641	29417.343274351493	3.556454963563
9	184796	29439.461850522322	34.376392517402
9	184841	29446.079307916903	2.107149198891
9	184921	29459.234742879713	10.123825249279
9	184957	29464.880762234641	13.694601377068
9	184980	29468.885634403386	17.682687896523
9	184985	29478.185459123163	0.742865614966
9	185005	29491.569940636745	1.794824081048
9	185057	29516.59766068751	8.303898901355
9	185274	29552.288891687673	6.602868975259
9	185284	29553.702167216093	4.347851527046
9	185332	29559.847082317583	3.446290975966
9	185423	29572.014472281191	0.861994302971
9	185429	29573.153640455104	14.127898315015
9	185484	29581.620038329069	2.551826947984
9	185489	29582.308407411496	0.688369082427
9	185497	29583.400802009231	2.309373153664
9	185500	29583.895853062491	0.49505105326
9	185505	29584.858597481629	10.464880022719
9	185545	29596.090302832758	8.597370455334
9	185557	29599.120621676298	2.483116307948
9	185565	29600.765190301049	1.644568624751
9	185747	29634.009427255875	0.842787908344
9	185782	29638.445316749224	1.681610931044
9	185802	29643.644965510069	8.720120254762
9	185822	29647.425582975721	22.222287347803
9	185944	29667.118634743704	0.69212663807
9	186019	29690.292327693522	2.495523817252
9	186139	29711.846741840459	4.833262368548
9	186157	29716.646202728518	12.037572819168
9	186170	29719.113517605414	6.428760255779
9	186175	29720.222269434485	2.782329916265
9	186185	29722.877283160245	2.012854266941
9	186200	29731.918315680923	7.777712814961
9	186269	29758.744096652786	1.920723111863
9	186312	29765.579970953842	4.589168502276
9	186419	29779.785496531748	7.439460744355
9	186427	29781.200498380879	3.288481465499
9	186541	29798.539985566879	0.87356859562
9	186552	29800.409238091683	8.582141653169
9	186599	29808.759952903843	11.777255403388
9	186664	29818.678022534365	0.508610141464
9	186725	29830.926405144603	7.949634491107
9	186742	29833.329131126712	6.85881225744
9	186747	29833.908142037718	1.859880849841
9	186822	29844.190244186838	5.808093105493
9	186825	29845.075434206408	2.459566631236
9	186895	29855.255771359364	3.528828708137
9	186901	29856.93430234192	9.152298607493
9	186931	29861.054528374487	3.097628600865
9	186946	29863.139948704635	5.270023549982
9	186954	29864.25882758897	10.312156654553
9	186984	29868.087045544402	3.331830667869
9	187016	29872.519271158862	14.718256384169
9	187130	29887.910789130504	0.777478827583
9	187140	29889.292633226529	4.733817891684
9	187195	29897.282308759603	6.951118104183
9	187330	29916.548164307342	9.169617215687
9	187368	29922.725664441956	8.085239427675
9	187398	29926.913680826889	6.282905831843
9	187455	29934.535094301466	3.770531826837
9	187477	29938.263754810131	9.375350691149
9	187572	29950.863244998939	0.923087885743
9	187580	29952.320019505191	7.183109261572
9	187590	29953.903206305643	9.116447951259
9	187605	29956.200557845616	0.720050552441
9	187667	29967.337010980834	10.932369372486
9	187745	29976.827359131042	9.356425425022
9	187812	29990.53020061621	4.701039444678
9	187844	29995.567577719162	0.904470246332

