version 2
run First_exit_5-8-20191114-11:42:25-8839
attr configname First_exit_5
attr datetime 20191114-11:42:25
attr experiment First_exit_5
attr inifile omnetpp.ini
attr iterationvars ""
attr iterationvarsf ""
attr measurement ""
attr network ResponseTimeNetwork
attr processid 8839
attr repetition 8
attr replication #8
attr resultdir results
attr runnumber 8
attr seedset 8
param **.Source.interArrivalTime exponential(4s)
param **.jobPriority bernoulli(0.4)
param **.PS.serviceTimeU1 "uniform(0.4s, 1.0s)"
param **.PS.serviceTimeU2 "uniform(1s, 1.2s)"
param **.SS1.serviceTime exponential(0.4s)
param **.SS2.serviceTime exponential(0.8s)
param **.PS.exitProbability bernoulli(0.5)

vector 0 ResponseTimeNetwork.sink lifeTimeU2:vector ETV
attr interpolationmode none
attr title "lifetime of arrived jobs U2, vector"
attr unit s
vector 1 ResponseTimeNetwork.sink totalServiceTimeU2:vector ETV
attr interpolationmode none
attr title "the total time spent  by arrived jobs U2, vector"
attr unit s
vector 2 ResponseTimeNetwork.sink lifeTime:vector ETV
attr interpolationmode none
attr title "lifetime of arrived jobs, vector"
attr unit s
vector 3 ResponseTimeNetwork.sink totalServiceTime:vector ETV
attr interpolationmode none
attr title "the total time spent  by arrived jobs, vector"
attr unit s
vector 4 ResponseTimeNetwork.QueueU1 queueLength:vector ETV
attr interpolationmode sample-hold
attr title "queue length, vector"
vector 5 ResponseTimeNetwork.sink lifeTimeU1:vector ETV
attr interpolationmode none
attr title "lifetime of arrived jobs U1, vector"
attr unit s
vector 6 ResponseTimeNetwork.sink totalServiceTimeU1:vector ETV
attr interpolationmode none
attr title "the total time spent  by arrived jobs U1, vector"
attr unit s
vector 7 ResponseTimeNetwork.QueueU2 queueLength:vector ETV
attr interpolationmode sample-hold
attr title "queue length, vector"
vector 8 ResponseTimeNetwork.SS2 queueLength:vector ETV
attr interpolationmode sample-hold
attr title "queue length, vector"
vector 9 ResponseTimeNetwork.SS1 queueLength:vector ETV
attr interpolationmode sample-hold
attr title "queue length, vector"
0	24870	10008.062164538148	3.793580088319
0	24900	10018.420153118202	0.765833567875
0	24910	10030.87065212293	3.12121434394
0	24915	10036.037801349604	0.728007149184
0	24930	10046.652222522365	0.593673660465
0	24950	10056.835757987685	3.456497032837
0	24955	10060.08092929869	0.666842078418
0	24960	10063.143749818447	0.535148183024
0	24965	10078.826975046358	0.648111073067
0	24980	10087.095033750852	0.654195415415
0	25010	10105.396971040918	0.903949133074
0	25025	10119.284913999444	3.340788029077
0	25040	10137.335094140102	3.420941145401
0	25067	10147.221028611544	0.740824185875
0	25080	10149.63428710977	9.016027906973
0	25085	10150.947863627495	0.988345029997
0	25130	10166.868354916048	2.014069699635
0	25135	10167.705044600419	0.527010124363
0	25145	10170.762652656711	1.63381108796
0	25160	10175.410326722303	4.118262899418
0	25172	10181.018255228015	4.851661615439
0	25175	10181.72972277545	0.71616931674
0	25195	10191.668395639288	1.111893372477
0	25210	10201.138598167671	1.872092386952
0	25225	10219.313402612337	0.981426732987
0	25232	10226.046014542868	0.854156844923
0	25255	10231.366505496283	1.604922412833
0	25270	10236.382871642921	2.198414802915
0	25275	10238.002264700463	0.761021762714
0	25302	10242.98491393996	2.493682047408
0	25330	10252.442311383057	2.500341828418
0	25357	10268.684465448539	2.133033705332
0	25377	10272.073122484026	0.618043541582
0	25410	10278.292183652443	4.964010794416
0	25415	10283.877387125175	0.667354983836
0	25425	10290.927842300657	1.760501722397
0	25436	10294.883628322903	0.663083947357
0	25469	10300.764309068502	0.915105182864
0	25477	10301.744745003071	3.562490428412
0	25480	10302.363028293906	8.141884908298
0	25505	10309.008806421841	2.787191654197
0	25530	10314.230908847817	4.40172589943
0	25535	10314.869512371522	2.455956071058
0	25545	10318.711668687726	0.428387283999
0	25572	10344.635535352584	0.821974885844
0	25595	10349.783527847363	3.19089628918
0	25610	10355.687623199076	3.448984410323
0	25620	10360.045272161812	3.271953302052
0	25651	10369.93625852458	2.161274375232
0	25661	10370.881290565261	2.660174900127
0	25683	10373.569607970134	2.948142266114
0	25706	10378.000705162126	9.620980147174
0	25714	10379.417311465244	5.981917164506
0	25722	10380.693780724907	3.353129685095
0	25735	10388.822416865387	2.147833255137
0	25740	10399.75813608435	0.603047115682
0	25765	10405.959020943415	4.965957194967
0	25797	10414.428799310987	5.513982898133
0	25807	10416.158272603971	4.200605505361
0	25817	10417.417909328339	0.768014162506
0	25880	10434.763524344716	5.824402178619
0	25890	10439.994673741877	10.986455980293
0	25912	10450.660616658561	2.41214950816
0	25967	10460.3373720362	5.076982756204
0	25975	10463.154456007984	5.315484132314
0	25992	10471.361763068702	0.717720768787
0	25997	10471.983926587267	4.665215991625
0	26005	10473.570495764486	1.47423928329
0	26010	10479.924981835632	0.553483099863
0	26035	10497.078307646265	5.287292171312
0	26057	10505.074531230626	3.553739444975
0	26060	10505.936859796212	3.215195988578
0	26112	10525.955616167181	2.868415204364
0	26135	10531.903206619778	10.640513897106
0	26140	10536.911501590671	0.455396294082
0	26145	10539.992435074733	0.581730551086
0	26199	10553.033215810345	4.389542316079
0	26205	10554.097312518335	6.61261185147
0	26225	10560.656389176036	0.852199293433
0	26240	10562.513441033831	5.123384457289
0	26245	10564.990822285015	5.371247530441
0	26255	10576.978933190185	1.129476049398
0	26290	10595.176642348002	2.266594294263
0	26300	10602.074003195027	0.44813820729
0	26322	10609.96540046019	0.638018990075
0	26325	10610.727867456074	3.686804134451
0	26334	10613.501182554215	0.811735620582
0	26360	10617.084304216924	3.376495134239
0	26372	10628.074668462684	0.660032757169
0	26375	10628.561669445194	2.100429433119
0	26405	10648.434810611919	2.540782539598
0	26410	10648.951399954214	0.488550353423
0	26471	10662.668827125956	4.755589247529
0	26494	10666.687208876912	3.481286666349
0	26500	10668.194995851223	13.746786655297
0	26515	10673.302913163141	14.604839347966
0	26525	10678.44884262712	1.429153940515
0	26557	10688.964781912432	2.88533905002
0	26582	10693.006851624061	5.429133815523
0	26585	10693.412926430876	5.954991728858
0	26595	10698.680784297034	1.980728300469
0	26600	10701.049560517432	0.516991307726
0	26610	10706.260554396593	3.375518259875
0	26624	10717.803173663517	2.86806229269
0	26680	10729.033954922506	11.916043218556
0	26699	10750.952314001587	2.692892443672
0	26707	10752.581595538216	2.286722498667
0	26710	10753.500006987652	1.958232473873
0	26730	10765.05770542909	2.392363290484
0	26735	10766.437139526894	2.899588593155
0	26750	10778.971610562492	2.518188569134
0	26772	10795.21556871142	0.698115517804
0	26817	10805.063412699086	10.104343761265
0	26822	10805.850116753794	4.750339048993
0	26827	10806.702137815749	4.056833993625
0	26830	10807.531087275577	1.100291777779
0	26850	10813.907432672913	5.655292974571
0	26875	10818.528895594933	2.158964195842
0	26885	10828.663069146087	2.391966373971
0	26892	10835.239394093127	0.898613027437
0	26900	10836.358509708487	1.278072461768
0	26917	10840.198604418693	0.992794215115
0	26922	10840.79089154348	2.676644786215
0	26930	10843.277900720055	4.374381468916
0	26970	10870.743393734839	0.663370940508
0	26980	10879.548854187344	1.529339316816
0	26985	10883.698046671023	0.876979670627
0	27000	10889.021002856413	2.591453204117
0	27017	10904.574101335835	0.720194230694
0	27020	10905.288687803969	1.259391920001
0	27030	10909.164191861428	3.319194759386
0	27035	10911.214306413572	0.450680688443
0	27065	10918.215923750693	4.669560106069
0	27085	10926.625809366758	3.638136999501
0	27107	10943.267085953464	4.536965831958
0	27120	10947.418759805429	5.864845418802
0	27142	10952.561895048954	0.813174551203
0	27155	10956.953946814795	0.745744636655
0	27165	10963.032752116953	2.029515100008
0	27170	10968.971661090572	0.602319260268
0	27177	10971.825768398011	0.815266130446
0	27185	10973.885499744967	0.765175200254
0	27205	10981.953448980633	6.343858537006
0	27219	10984.414245836893	13.331260923602
0	27235	10987.001293999879	3.146357774099
0	27255	11002.934263718735	0.786013072822
0	27260	11004.212007766763	0.795003913855
0	27310	11022.509469277296	0.785506413562
0	27315	11026.365910997977	0.526037161844
0	27320	11030.151030015043	0.793616598099
0	27325	11037.758750511208	0.713994199364
0	27355	11046.872772226409	0.863713294547
0	27362	11048.098853743087	0.890324461507
0	27367	11048.74427841074	8.425758951258
0	27370	11049.256965828279	4.410388541881
0	27382	11050.778290645598	0.654719818672
0	27392	11052.326508700202	2.667361036363
0	27400	11053.980943261217	3.681081026243
0	27410	11064.074624552958	1.463519672331
0	27425	11073.697035820764	0.767518726457
0	27432	11079.552963881278	0.739303071145
0	27437	11080.493307717228	1.445928516375
0	27457	11083.318757707585	2.776596141562
0	27465	11084.755543097097	2.651547620614
0	27475	11086.506343671909	1.606684522671
0	27480	11088.038252602073	0.838914287789
0	27490	11089.27961436016	0.968496479152
0	27522	11093.953726357776	5.80909037441
0	27540	11098.405983491522	8.064894237053
0	27572	11124.209230059488	6.357584781061
0	27582	11125.12150129238	0.402097190032
0	27615	11133.526626775829	2.562728450337
0	27625	11141.463091171369	3.847829304917
0	27630	11151.73835888144	0.874640237307
0	27652	11162.558974323846	3.433170974773
0	27670	11170.838265796757	3.537316939487
0	27677	11180.085938566584	0.471963951597
0	27680	11180.985392373647	0.902364022067
0	27702	11194.112267230222	9.568970066106
0	27715	11200.24543913189	10.981657486714
0	27732	11213.534288622614	0.916486459037
0	27740	11215.821887633993	3.604642187766
0	27765	11223.06449104164	3.794549323976
0	27770	11224.178856249035	0.54162931894
0	27775	11226.319625750605	0.609852470458
0	27780	11230.054765984984	0.400291009201
0	27785	11233.19228110236	0.68251718618
0	27790	11250.205912534787	0.518155369256
0	27815	11260.50550457492	0.59190416974
0	27832	11270.784308470541	1.923407914102
0	27855	11280.550658552288	0.906620544521
0	27875	11291.508054172167	1.257948563006
0	27890	11295.800267957307	0.988179593859
0	27907	11300.10414204704	2.258467207476
0	27925	11304.491953162494	0.592700148793
0	27940	11325.216635652026	0.710443853447
0	27965	11341.094415579898	2.208633145664
0	27975	11357.753084440209	1.981473262185
0	27985	11365.704045821816	2.153259406628
0	27995	11378.489350769443	0.596685414203
0	28026	11390.719853728663	0.963957104453
0	28042	11393.381917695308	4.840391396546
0	28045	11393.910649757765	3.606356361909
0	28055	11399.578286017964	4.186907214786
0	28107	11421.818048595165	3.851585731933
0	28115	11424.353130284734	0.801291002287
0	28135	11433.61290608137	3.936952401687
0	28155	11438.89980407422	1.806309064253
0	28165	11444.489033797151	0.977092043497
0	28170	11445.45908669189	3.495375718318
0	28180	11451.65644055631	2.627681817195
0	28215	11465.689200453956	3.892450938068
0	28242	11477.738629761018	4.628200895263
0	28245	11478.589796133718	3.18645876843
0	28290	11499.881918057705	0.75937048099
0	28315	11503.319246259916	3.186984880673
0	28320	11504.658175155469	0.768336127978
0	28325	11513.011610601348	0.637666817009
0	28335	11520.63628893718	0.836006243341
0	28380	11530.353456673799	8.036457604618
0	28397	11533.274618171324	4.405654172455
0	28417	11536.121187108009	3.009845396822
0	28440	11544.681584626238	0.754148838622
0	28470	11552.08169971196	6.083314035067
0	28477	11561.175433054955	0.590057443269
0	28495	11569.838691549898	0.823987676995
0	28502	11575.236679272381	0.47017993601
0	28515	11582.683908964439	0.461180901527
0	28525	11585.85218192059	4.806104313914
0	28535	11592.274545200156	2.298401748309
0	28540	11593.566091529442	0.62388056023
0	28580	11601.816003771534	4.499966882509
0	28605	11607.015418434093	0.941860659933
0	28610	11609.374861092731	0.779631215101
0	28630	11617.896491857284	4.44685001435
0	28642	11621.155445099817	1.431843283982
0	28669	11625.323569613519	5.802023356084
0	28677	11626.364442965026	4.718067571603
0	28695	11630.064410824674	8.504130039943
0	28722	11641.524068215837	0.934507740708
0	28767	11648.202203226879	6.524026354102
0	28782	11651.126617035448	10.066702815864
0	28822	11667.845161284143	3.359772870986
0	28840	11671.256541574643	0.668333269563
0	28845	11672.487673950398	0.914278393472
0	28885	11684.396741874775	5.355225160905
0	28900	11698.356165270465	3.432516667252
0	28905	11701.262315711028	4.165309237334
0	28910	11705.54510091745	0.748016681708
0	28940	11725.095800059234	0.415996061312
0	28945	11730.367272550843	0.951349485479
0	28950	11732.598608784105	0.612111946428
0	28957	11743.97333761196	0.565928367246
0	28960	11744.468038883231	0.889759911689
0	28989	11752.419808654867	3.367582303763
0	28992	11753.073129517313	3.587544677515
0	28995	11753.650246507542	4.806110407785
0	29005	11756.74685625152	0.478282049857
0	29030	11764.816863045621	2.260708568909
0	29040	11777.008460641883	2.890928864232
0	29082	11786.975595375441	3.768614127249
0	29085	11787.575934193714	5.380717272921
0	29095	11802.246284935645	1.845901094653
0	29107	11816.36769444513	1.885621468663
0	29132	11822.121109579605	2.81048601898
0	29135	11822.581208415291	6.651225159421
0	29152	11833.608299171676	1.438711146303
0	29162	11835.46863977195	1.490994551991
0	29165	11836.110096767389	2.000457410381
0	29175	11839.359704348417	2.350590554769
0	29182	11841.152574914668	0.841867847368
0	29185	11841.763026478581	1.044071927716
0	29250	11866.364043014547	4.196102817508
0	29275	11879.892242467368	0.714630182413
0	29295	11887.655314437093	3.157119506546
0	29325	11899.176114802585	0.6380629241
0	29369	11913.077651385347	5.885782117955
0	29372	11913.647618869216	4.263837292986
0	29375	11914.394459995291	7.121253145836
0	29397	11923.97187189069	1.200634585522
0	29417	11927.637820120121	3.607520846511
0	29422	11928.278820380487	4.889738358178
0	29425	11928.737176755688	0.709227334931
0	29450	11934.319568686389	5.51948008469
0	29475	11939.765492726167	0.949057756043
0	29495	11948.365688095648	2.960573744836
0	29500	11949.803334049309	4.909906524327
0	29517	11955.293166563064	4.199746174293
0	29520	11956.279331135526	2.897967452316
0	29545	11965.917539057409	0.802033710293
0	29555	11968.398023579604	7.512425991998
0	29562	11969.483107269877	0.981939118169
0	29569	11970.234012694187	9.283027529332
0	29572	11971.047431932479	8.249391202626
0	29575	11971.648564320706	5.437801352509
0	29617	11982.946536407476	10.962533906197
0	29642	11987.094742919988	2.709711917231
0	29645	11987.750377312041	0.820500561586
0	29660	12000.386960381104	2.689995619213
0	29665	12009.649463020408	0.934877281357
0	29697	12032.090547598065	2.272715869546
0	29710	12034.369674606952	3.221283524238
0	29725	12040.116582256387	0.501874431083
0	29730	12040.68834438884	8.547252843904
0	29745	12045.398220522741	4.036133749102
0	29762	12055.498733684426	2.872010352395
0	29780	12061.789514582959	1.630665064549
0	29799	12067.808956941348	0.980596154321
0	29804	12068.7584926207	1.866871242238
0	29817	12071.137375614272	1.571764522857
0	29825	12072.188558561254	4.063447453754
0	29847	12075.945411717725	12.20756512293
0	29857	12079.996343100513	0.634310088586
0	29860	12080.41475071779	0.688144010748
0	29865	12084.548420235079	0.566883433424
0	29885	12104.887186210553	2.737839764214
0	29915	12121.561876212686	1.557706777106
0	29925	12125.317542202109	0.863719794992
0	29930	12127.558793336123	0.439907930931
0	29940	12133.965237507394	0.595455402322
0	29965	12138.209989894324	3.342885325941
0	29997	12144.028624664167	4.450204566559
0	30012	12147.661629525056	7.540716428412
0	30017	12148.273253712334	1.151125827573
0	30030	12155.30150744554	0.663893465837
0	30059	12162.187482229536	4.187633217129
0	30090	12167.24339298239	9.248581590364
0	30110	12172.872640333483	1.053160665141
0	30120	12176.640364687249	5.173473739058
0	30140	12180.042067136486	1.40066375257
0	30145	12189.718102206219	0.711837318726
0	30162	12201.527727133444	2.561694121314
0	30165	12202.397551668564	1.619929243697
0	30180	12205.849709034577	3.112188221446
0	30195	12211.04796459356	2.639575160695
0	30210	12225.430409875716	1.585225831518
0	30229	12228.683085221412	1.055549982253
0	30259	12232.990598446259	5.8942767513
0	30277	12235.741476508778	11.548530755086
0	30280	12236.540793377569	6.760496183965
0	30285	12239.077529082529	0.566907967813
0	30325	12269.432663294259	0.865725857811
0	30330	12271.116427457867	0.958521675505
0	30365	12299.635020902135	2.544901491058
0	30370	12304.158916926183	0.871236867364
0	30377	12305.451170168539	0.821325947344
0	30400	12318.593977850377	1.258498408188
0	30415	12326.069489242195	4.698898133515
0	30430	12335.17992111429	0.682253234004
0	30440	12336.5182552572	2.303560189651
0	30460	12346.143479363025	4.172967438045
0	30470	12348.426978615545	2.196258438452
0	30497	12373.922410929028	0.860361913498
0	30500	12374.502249287266	0.732677851843
0	30517	12382.775115026762	2.669723415809
0	30547	12387.724190137141	7.223201770445
0	30562	12390.581649195567	6.049386090467
0	30590	12398.461908283098	2.916698197177
0	30605	12407.926883383321	4.846400968162
0	30622	12417.791967596847	1.348193787178
0	30630	12419.374150847372	0.676457022689
0	30637	12423.846948970446	0.925668360386
0	30672	12431.300558106432	2.200027588558
0	30685	12437.8824449737	0.560224163346
0	30705	12462.69967665859	5.076330708972
0	30775	12493.887562888854	3.371382127383
0	30780	12496.827295964165	0.848400045978
0	30790	12507.296959567508	1.33572230182
0	30802	12516.527358947695	2.675043905905
0	30817	12520.654309307142	0.700338209094
0	30825	12522.678725425901	6.870871501126
0	30830	12523.860480374403	0.82503058929
0	30835	12527.974164620552	0.723927372089
0	30850	12534.750827299236	0.768663796829
0	30860	12551.899712085683	0.894945607567
0	30882	12568.854988956425	1.947439578653
0	30885	12569.592336750703	1.521022683133
0	30890	12575.990722544965	0.892623499501
0	30912	12599.409349182438	2.338294906615
0	30915	12600.244825714365	2.254818195943
0	30935	12606.004294297171	2.941737036842
0	30945	12608.386528657179	1.64592030016
0	30955	12614.510774776295	1.776340504699
0	31000	12637.095697336617	4.728083014635
0	31037	12661.037263930074	0.746717831073
0	31044	12661.928351229427	1.519258622832
0	31050	12663.359434499776	2.052515553067
0	31055	12665.491318246396	4.450574441988
0	31065	12671.913972947539	0.825101589737
0	31070	12679.426192392757	0.698132596072
0	31085	12691.654398249562	3.445753357447
0	31115	12704.866006772514	0.81459501675
0	31140	12718.723673210429	2.308342096957
0	31145	12720.577973241697	0.922590516601
0	31157	12724.916992522716	0.631750335992
0	31190	12736.81793529198	0.811470949836
0	31195	12748.413774870656	0.770001571486
0	31200	12752.086649269077	0.436673918739
0	31247	12762.935534775252	0.924940492043
0	31272	12770.887188882105	0.938235929648
0	31285	12774.172261024708	0.443965604389
0	31325	12796.850688651984	1.788529912826
0	31330	12798.430900183962	0.58234057175
0	31337	12804.586804819235	0.925163609721
0	31345	12815.468096138133	0.669945557835
0	31350	12823.936046042657	0.98093066304
0	31360	12839.226268011009	0.658471852913
0	31372	12842.050814062787	0.955212447047
0	31377	12842.509340565197	2.180637136001
0	31380	12843.108564571069	0.809200881899
0	31385	12844.721881298121	0.959638339607
0	31407	12847.637969214117	2.821531588369
0	31410	12848.341930892991	2.112931527053
0	31432	12853.837072832873	1.025481055826
0	31445	12856.222724677574	6.2165296672
0	31450	12859.495934425943	0.495863589644
0	31457	12862.838198172526	0.86343549788
0	31465	12864.525440454563	2.452654900055
0	31499	12871.894564455208	1.693658612771
0	31502	12872.807376069129	1.723317431778
0	31520	12878.014211795561	9.874185217898
0	31532	12879.434228020221	3.562359256828
0	31535	12880.165237026349	1.354303892769
0	31572	12885.365524915128	4.63404910185
0	31575	12885.835766640014	5.210798841368
0	31580	12893.83175964743	0.5544792125
0	31585	12894.854408101527	0.624103773246
0	31595	12897.511163035756	1.653029183438
0	31600	12904.206111907117	0.901092993701
0	31605	12906.088681952008	0.623061703611
0	31625	12921.10828517553	5.384204299197
0	31630	12923.16748708633	0.700618084893
0	31660	12929.708334061582	0.523124950333
0	31665	12936.226037606169	0.448900636239
0	31717	12944.289462528854	2.59720848878
0	31720	12945.164314309192	3.991333810155
0	31725	12946.837747981854	0.879220765643
0	31737	12952.105388654683	0.924701194232
0	31784	12964.461577463439	2.394737293664
0	31787	12965.43511610847	2.916538937269
0	31795	12967.199802400143	4.303397266732
0	31820	12977.198922486736	2.563606734044
0	31830	12993.483478282124	0.563078228058
0	31835	12999.789290363464	0.495110634202
0	31888	13007.877455219671	5.426481820932
0	31894	13009.012325472708	8.378929530221
0	31899	13009.669830045474	3.086702282573
0	31915	13013.97568450359	7.334978871992
0	31930	13021.616560193854	0.87293999996
0	31935	13032.027759229325	0.758988295542
0	31940	13033.603201553695	0.960566654382
0	31962	13047.103697450699	2.822144938724
0	31970	13049.018791172796	2.536528580902
0	31975	13053.691017154524	0.461686447216
0	32014	13061.206712681892	5.600806157434
0	32044	13065.496693344645	7.785815180928
0	32082	13074.57931397405	13.764433943973
0	32120	13081.964519167826	0.677337259566
0	32156	13086.324010944273	2.468635009841
0	32159	13086.783647948829	1.544508522788
0	32165	13088.033891803957	15.12935046438
0	32175	13090.252863070608	10.172446276484
0	32210	13107.283273563759	0.70416481276
0	32215	13111.579905537222	0.851242276421
0	32220	13115.841601173677	0.641789351031
0	32225	13119.397881691806	0.584859369416
0	32235	13125.518089404852	0.499800569145
0	32240	13131.864338476673	0.864776093327
0	32280	13151.656436596678	0.678015407501
0	32285	13156.311484748425	0.543527882313
0	32292	13159.657987065439	0.577180175669
0	32305	13161.869539409423	1.046379017756
0	32327	13166.617535516827	7.456389978896
0	32357	13172.299815301169	0.407090945775
0	32365	13174.14375945543	3.894290082489
0	32425	13219.393842149447	5.739839907963
0	32430	13223.822272932769	0.475223979121
0	32447	13232.260985428739	2.005516224132
0	32457	13233.824802442772	1.488380544962
0	32470	13237.552032198764	1.780515297095
0	32475	13240.694857186198	0.748806048278
0	32485	13243.366220786898	1.468100425311
0	32507	13271.492127496681	1.307040125194
0	32510	13272.404397795002	1.752424451013
0	32525	13282.250688099335	1.896383700576
0	32540	13287.07788265744	0.887121684337
0	32550	13291.067460704323	1.63180955664
0	32565	13301.291800020094	7.639476057259
0	32587	13313.654178002113	1.049250830178
0	32595	13314.77313552059	0.460370088182
0	32604	13321.497725230108	0.780122326873
0	32610	13322.936321843162	1.802959632074
0	32642	13334.054172361658	1.251150444102
0	32679	13339.367192916394	1.4186281607
0	32687	13340.944074195213	4.967849945045
0	32690	13341.860018152054	5.228439811579
0	32700	13363.412441146727	0.72922878447
0	32724	13367.955805989403	6.426382149147
0	32742	13370.19053388294	3.6851556057
0	32767	13373.877019004492	5.90217176453
0	32799	13378.194974973343	0.622798690407
0	32802	13378.937953723326	13.451060329443
0	32805	13379.560179742809	8.740517494821
0	32825	13384.85300692933	0.892115019598
0	32852	13394.172518582571	1.0108266657
0	32887	13408.635245100207	1.411871782895
0	32900	13412.052236175163	2.666014448253
0	32910	13422.172257580795	1.264322723278
0	32937	13436.310717760856	0.547975917067
0	32950	13440.721682727245	1.174582473855
0	33012	13451.076557323229	8.416834713825
0	33015	13451.944972389503	4.224191807387
0	33064	13462.11907701907	2.562230026344
0	33070	13463.057219164262	1.266868581887
0	33075	13463.864315833556	9.856458223701
0	33140	13485.702365087749	2.794265414892
0	33160	13507.921608622898	4.89875283701
0	33170	13511.580857562824	1.196206926911
0	33195	13522.940053819014	0.561410933686
0	33200	13523.497819655088	0.504072640091
0	33205	13527.593891797454	0.63613759228
0	33210	13528.149276896067	0.5522928664
0	33220	13530.266937520634	0.691693539654
0	33230	13533.247645255186	1.358058162341
0	33259	13537.908571043966	8.75996585198
0	33262	13538.424097959587	1.400970783622
0	33265	13539.150240226818	1.489688263427
0	33290	13555.295975084449	1.536225015866
0	33295	13556.960684856482	0.676306373626
0	33307	13563.057578583492	0.720472020325
0	33310	13563.979425288469	2.431983817276
0	33322	13566.60391711371	2.273494913098
0	33345	13573.538513535222	1.065659557943
0	33357	13575.60219084594	5.036956170764
0	33360	13576.270794110154	0.784513088769
0	33375	13606.91660871061	4.504921127667
0	33380	13611.568148129442	0.537392030796
0	33395	13629.654464182629	1.747385744902
0	33400	13630.365568411919	1.552415141614
0	33410	13652.481789269183	0.99858532222
0	33415	13653.374446048535	3.943143832191
0	33420	13655.698807128152	0.835468699876
0	33430	13683.164372779192	3.2133691957
0	33450	13699.039252660403	0.559639574774
0	33467	13707.718114313744	0.917856860124
0	33490	13711.493248117589	5.309843696314
0	33520	13732.542678407637	0.728700475348
0	33532	13734.822896112083	1.179044933349
0	33537	13735.753187437682	1.206425576756
0	33555	13744.048862498728	2.163157485275
0	33565	13746.545553405523	0.545893362956
0	33587	13749.450040288895	5.157019639768
0	33615	13754.16842313891	0.476100175641
0	33714	13768.389274807877	6.113439743588
0	33731	13770.617967596229	1.686011944608
0	33739	13771.861403472627	14.801583578574
0	33756	13774.184579899627	5.847784802077
0	33769	13775.996427229558	7.942413467157
0	33777	13777.628354130591	3.771292780268
0	33780	13778.212629282054	5.030949539588
0	33785	13783.023771197431	0.944696286693
0	33810	13809.679857074253	1.304077955336
0	33820	13814.253235433472	0.561630851915
0	33876	13826.099196237695	5.143351807123
0	33881	13826.83613263643	9.402975666682
0	33896	13828.81956240758	3.898607739643
0	33914	13831.858479266424	3.20850365668
0	33920	13833.547152773707	11.272872076052
0	33925	13840.512705192718	0.79752350864
0	33937	13852.167110346855	1.936004257506
0	33940	13852.865369673531	0.879224425464
0	33945	13859.087976963151	0.660694475891
0	34004	13867.175301686955	7.437079784601
0	34039	13872.566552602874	10.678325324023
0	34042	13873.416882621871	8.598796070132
0	34045	13874.025922468912	10.703008972247
0	34050	13878.789199738702	0.543665160844
0	34107	13889.900021707616	5.258645166881
0	34110	13890.601674441365	8.100234308749
0	34115	13891.60278784083	5.68410113192
0	34120	13893.036774192193	0.488063852116
0	34140	13896.395934004789	1.851642254655
0	34145	13904.931803084022	0.752859793976
0	34152	13914.520678559259	0.411216592835
0	34172	13918.207016173235	4.027392961844
0	34190	13926.607832296373	1.943741237867
0	34200	13932.285429272383	4.165741764789
0	34205	13936.693676638512	0.933853300987
0	34297	13953.481330646296	1.016567213902
0	34310	13956.512257581936	5.307606979649
0	34315	13957.595172952747	0.802483625151
0	34320	13960.525085883635	0.569262937829
0	34370	13969.953109405846	1.230187653814
0	34375	13970.740659442445	3.309548409181
0	34402	13993.692016737599	5.663337559824
0	34415	13996.004690411451	2.721176161541
0	34425	14000.698308333656	1.455561535532
0	34445	14007.708477105524	0.405430800328
0	34455	14010.777297270099	5.557742542278
0	34465	14019.716636401692	0.915355423046
0	34470	14022.616424129682	0.427708357805
0	34475	14023.575221124055	0.586106246244
0	34499	14035.207034942935	1.114232670224
0	34505	14036.504157120789	1.516714635197
0	34515	14038.212466518563	1.49632556369
0	34525	14046.744833969347	1.596648386527
0	34535	14048.843906265587	1.505904094317
0	34557	14053.127480307794	5.938007745769
0	34612	14064.142417424947	0.511361788819
0	34647	14090.183159974575	3.963860092216
0	34655	14093.652941593167	0.959831544431
0	34670	14110.867482140648	3.33806953256
0	34690	14116.939650313468	4.895043551187
0	34695	14118.127583866749	0.715866679791
0	34712	14122.423581062622	1.808208383837
0	34726	14123.925950075305	1.07318527432
0	34734	14125.016850856823	2.134586433416
0	34768	14129.94053308134	2.081484682541
0	34792	14133.851582447104	8.481293111941
0	34797	14134.538137423331	1.606676729179
0	34802	14135.288009437909	12.104840282828
0	34805	14136.049529384765	7.620507274014
0	34820	14140.678901348651	0.873508746596
0	34830	14144.619961420069	2.020036919401
0	34845	14156.518595568929	2.574234165691
0	34912	14177.020304160802	0.828820360298
0	34935	14186.72908847821	4.54399591621
0	34940	14189.203453824475	0.921212773677
0	34965	14193.719614027948	1.187372996463
0	34970	14194.527733256758	0.613171958504
0	34980	14201.095166941166	0.805957281264
0	35010	14206.820451124646	4.100356874009
0	35015	14207.878965545598	3.207960926903
0	35055	14217.604607081674	9.604408050459
0	35060	14220.498862989857	0.90843849075
0	35065	14228.699315202417	0.759489970747
0	35097	14241.015573877168	6.059238461785
0	35100	14241.950826161101	1.033665003658
0	35125	14251.998757153335	1.215860900926
0	35130	14257.708752106353	0.419651366398
0	35155	14271.139074120387	3.685277258617
0	35160	14273.451767521398	4.846570590132
0	35165	14290.907207433873	0.404060867522
0	35170	14296.402125153471	0.665194734093
0	35175	14300.894912678061	0.673235291662
0	35192	14307.474952974887	0.878077853052
0	35205	14309.783830793415	3.177408220319
0	35222	14329.293288644299	0.846984125091
0	35267	14355.889342255217	5.042209889792
0	35285	14362.40093672251	0.723879532376
0	35290	14373.070528533997	0.543972812733
0	35295	14382.251117454618	0.754767397232
0	35337	14395.893856918359	7.528496135875
0	35345	14397.933978612606	3.329365421378
0	35360	14405.262875325269	5.245035305168
0	35370	14407.823493470846	0.710183554282
0	35380	14410.74845714984	4.522807154279
0	35395	14427.336067999353	1.215148034603
0	35425	14441.38534148921	1.573118220226
0	35442	14454.99805100943	3.603165460327
0	35447	14455.450320389411	2.531409748415
0	35455	14462.857054712833	0.837721017282
0	35465	14472.347328543875	1.700899402973
0	35530	14491.845415134932	4.169689560175
0	35555	14499.224611150221	2.061506141499
0	35572	14516.537730440392	0.741436442914
0	35582	14518.18408049572	4.582177733007
0	35585	14518.743894884863	1.595122471339
0	35612	14532.878303110349	1.239871794204
0	35642	14537.712437015414	6.663215507287
0	35655	14540.528293428284	8.417472779277
0	35670	14543.143044569936	2.515012504865
0	35705	14556.635324952363	9.300328968851
0	35744	14569.413846000985	5.740246692083
0	35764	14572.985605805895	0.961433381971
0	35774	14574.730673185053	6.489705649292
0	35787	14576.928551723989	3.134200387551
0	35790	14577.352629738575	0.530748792848
0	35802	14585.525453221714	2.137711750687
0	35815	14587.836433200041	1.751965427365
0	35832	14592.703410165122	0.441032586619
0	35839	14593.66283351031	3.506842737406
0	35845	14594.917496566864	1.678643772047
0	35880	14606.862335593837	4.974664602684
0	35890	14621.459815563553	1.464575789071
0	35900	14625.705586627771	2.079470226463
0	35920	14636.544809144622	4.139117560265
0	35930	14639.22806994081	1.534395557748
0	35940	14655.498291421961	4.678178992286
0	35947	14656.992445391776	0.538633902371
0	35955	14660.598637908831	3.884867119805
0	35965	14663.541462396446	1.459182108323
0	35970	14669.586257070638	0.61926857098
0	36006	14677.872685864299	1.835862376588
0	36057	14684.355493043092	2.045382297739
0	36060	14684.785373030192	11.509977039302
0	36087	14702.795146182455	0.947210760135
0	36090	14703.373000965962	1.03833020043
0	36095	14704.224626597371	0.4790452132
0	36100	14715.174814250134	0.59756769822
0	36127	14729.054577872371	0.804096810566
0	36130	14729.496965217758	2.455517711291
0	36145	14733.701155086231	1.837089173198
0	36152	14735.73190078769	0.507244521426
0	36165	14738.501569340871	5.889414556541
0	36180	14748.016215634124	0.761557691684
0	36190	14753.670908213048	0.95485276687
0	36220	14769.903079378625	0.866143652557
0	36250	14784.11798781031	8.236671223751
0	36260	14793.627769299941	1.903184945749
0	36270	14799.594601550511	1.542704299322
0	36277	14800.795517245542	0.849886166072
0	36285	14803.555923533627	3.002670583962
0	36305	14812.624266179605	1.891834947761
0	36320	14819.478486392472	1.09918922148
0	36327	14822.701107921927	0.649721056316
0	36347	14829.812191380772	0.52063068999
0	36360	14832.33093177139	3.017989794904
0	36370	14834.958923555135	2.165342404963
0	36389	14837.945439090543	0.543789360948
0	36395	14839.335266730711	1.929209041212
0	36400	14841.686008026948	0.727910099458
0	36405	14843.202566397499	0.763863191288
0	36461	14860.644102316496	2.403231415045
0	36467	14861.945742762189	15.092015592134
0	36487	14865.042206942809	2.282475242352
0	36490	14865.531211960416	8.139626534842
0	36502	14882.917946058984	0.439312467538
0	36512	14884.300761517703	0.632712454446
0	36567	14893.515945756279	10.766368688041
0	36585	14896.315414548031	2.299895831667
0	36604	14904.596925873274	1.297616271368
0	36609	14905.130137866002	0.917414136732
0	36620	14907.571328596364	4.536361881858
0	36629	14912.987290706592	0.809688395076
0	36642	14915.337750294352	2.986171164903
0	36676	14920.279770001974	2.290667017799
0	36682	14921.668046394242	5.31800498271
0	36710	14928.485340675358	15.776688971231
0	36715	14931.998269878218	0.420855131326
0	36725	14941.81250757572	0.452988588649
0	36859	14978.621444712831	6.20601383896
0	36862	14979.481520611486	8.913359872465
0	36865	14979.93357064209	7.378342608483
0	36870	14981.014101657283	0.72515013013
0	36885	14986.010009826772	2.635461360118
0	36895	14988.60034770591	4.84169711584
0	36910	14995.911033025778	1.37717714083
0	36930	15008.489874707739	3.739795004692
0	36950	15017.088358817301	0.48825366199
0	36960	15034.865003540727	0.625438060751
0	36972	15037.593499432323	0.78993914344
0	36992	15040.404884194682	3.405046086254
0	37012	15043.112525195961	2.172939185555
0	37017	15043.522723222857	4.72583209055
0	37037	15048.345311544729	1.741342221591
0	37040	15048.906926282715	1.630130403629
0	37055	15055.973879394857	3.903315016806
0	37112	15070.460962321396	4.407407882663
0	37122	15072.889035641874	2.770652531474
0	37145	15077.533537241903	4.683097413937
0	37165	15087.06095127703	0.78982301997
0	37177	15096.077257716849	2.921164388257
0	37185	15099.266497502021	3.22147747467
0	37205	15106.883817900725	1.214841232201
0	37252	15120.271680725785	7.451764835937
0	37260	15122.904298467031	3.559015120269
0	37307	15147.279501310073	1.267104787005
0	37332	15151.131347241705	1.064736867297
0	37335	15151.80163651778	11.30191737817
0	37347	15155.352090260643	1.227072528594
0	37360	15174.110774004443	0.405099600321
0	37367	15179.636440771091	0.848009247286
0	37400	15185.390063739923	6.521129956251
0	37415	15191.511871775102	0.49632240315
0	37420	15194.574711583893	0.419141057972
0	37430	15206.237019896627	3.098617069084
0	37440	15223.17440723797	0.725833006995
0	37450	15229.08549436804	0.546335240547
0	37460	15235.817563673266	0.546492384607
0	37465	15237.84191325573	0.481065898947
0	37475	15240.799719150848	1.073727882741
0	37480	15241.943649159496	2.558319571208
0	37505	15248.689551896689	5.089853324623
0	37522	15254.256244643957	0.719369371235
0	37525	15255.00511460718	3.681168803565
0	37530	15261.376191463881	0.556918983907
0	37540	15266.440061535211	2.641761004183
0	37550	15273.406242196929	3.067949873051
0	37560	15283.930987135444	1.214593497955
0	37565	15285.623443163133	0.741373255104
0	37620	15297.994772604137	4.960171757954
0	37630	15309.578056922935	0.827855379367
0	37649	15317.933752443754	2.237400184292
0	37700	15356.606864993598	5.110356230186
0	37715	15360.802210290197	0.501018404355
0	37750	15395.234547895387	4.253795861576
0	37775	15406.497315513174	2.65729909943
0	37820	15416.466318831925	6.767504269118
0	37865	15455.427726854925	1.984197873658
0	37870	15456.641060317932	0.894522335287
0	37902	15464.874802325934	4.64860853028
0	37912	15466.216526308738	0.981035074787
0	37920	15468.025560977631	3.487534886355
0	37945	15484.203200961419	0.737227648217
0	37950	15488.573066309965	0.418810872035
0	37955	15493.023455660684	0.716536322189
0	37960	15494.469995559551	0.700957613438
0	37970	15498.545869389963	2.2756347148
0	37987	15502.690158730523	0.774790284901
0	37992	15503.149269905185	4.094425953195
0	37995	15503.679241006832	0.692782191668
0	38007	15507.108240656702	1.69558409076
0	38010	15508.056934221748	1.166307380607
0	38027	15520.866544365123	1.481695226326
0	38039	15522.060546714751	3.039424367248
0	38050	15524.501649525095	1.280590176416
0	38060	15526.781320006325	4.854317422317
0	38075	15536.440690406318	2.309265007091
0	38114	15542.649090026156	4.240787100123
0	38120	15544.087653097348	2.328278866504
0	38125	15545.767628872996	3.664571312656
0	38137	15557.382621394015	0.506116751721
0	38140	15558.1265106978	2.429111922322
0	38160	15566.886856646771	0.630549805192
0	38205	15602.092312510732	5.963743743391
0	38210	15604.451616797314	0.808242596965
0	38230	15630.120546049291	0.915427785053
0	38257	15640.966989679579	1.336150347852
0	38260	15641.451508279601	0.837140254233
0	38267	15654.338463808339	0.598508405779
0	38285	15660.038355432059	6.110350660757
0	38325	15671.153753280975	5.378489546339
0	38332	15672.211066524419	0.976306418469
0	38345	15675.553457658603	5.86281129424
0	38355	15678.329182839584	1.680254672607
0	38367	15685.268021134911	2.893024746782
0	38370	15685.85545137261	0.922778681104
0	38395	15696.590578907301	1.572402955386
0	38410	15715.516944293275	0.86256958805
0	38447	15741.955040695451	5.960304973074
0	38494	15757.76931847695	0.777971907565
0	38532	15764.413051441444	1.282964784387
0	38559	15768.048295112646	10.622802445633
0	38567	15768.852014985208	2.01023888468
0	38577	15770.277057646627	1.418772572001
0	38592	15773.661417420761	1.181869564449
0	38600	15774.743540159327	21.675992936953
0	38605	15775.425334565161	1.886830368833
0	38622	15786.49895893057	0.997303276043
0	38635	15788.670374380076	2.418785288049
0	38640	15789.961747881616	2.683468826725
0	38645	15798.003373689217	0.998574370984
0	38692	15808.060143567641	3.731877673558
0	38712	15810.271557193874	7.778061524578
0	38720	15811.534148136434	9.267576238354
0	38730	15816.338022899711	0.583092992008
0	38745	15819.164573943305	5.238794664394
0	38787	15835.492618833004	3.67472459249
0	38815	15846.281793418164	0.779941816162
0	38874	15860.531694520343	0.927767657723
0	38920	15869.432330012476	10.894695129601
0	38925	15874.177801972416	0.418830747902
0	38980	15902.954877554235	4.684957889113
0	38985	15911.488717725372	0.82932012435
0	39002	15914.71343751729	1.577525956129
0	39005	15915.310220746067	2.761295000416
0	39017	15918.459546613007	0.903744444122
0	39079	15928.120466020154	7.821981318656
0	39099	15931.093687679722	1.705980071855
0	39107	15932.816158937952	3.533709766335
0	39110	15933.2569621218	7.492384208529
0	39130	15950.459449935426	2.922119072995
0	39135	15951.486828029272	0.500244920794
0	39140	15957.509223436222	0.853425644012
0	39145	15965.353491050911	0.557616370823
0	39210	16006.306042364704	0.853200591169
0	39220	16011.470507917685	2.14116280297
0	39225	16015.670856504449	0.833665287029
0	39235	16021.77736318888	0.806579593848
0	39240	16025.989277899042	0.512504873239
0	39289	16051.285954094694	2.863780012006
0	39329	16060.199275680714	1.493301062048
0	39339	16061.30901823541	1.427924844752
0	39342	16062.150248860743	4.519358511499
0	39345	16062.858295605833	6.918027739058
0	39367	16073.093364760921	3.004193747906
0	39370	16073.927446064296	3.206751431042
0	39380	16079.082709843321	2.465970258554
0	39405	16089.626351313326	5.521292707541
0	39420	16100.147539346782	2.275973630238
0	39440	16114.057763758608	2.387131876275
0	39445	16118.560770646345	0.729817095445
0	39450	16126.946934258003	0.904552409519
0	39460	16131.597849421951	4.180679190777
0	39520	16148.794238597331	0.567663438944
0	39535	16154.388646105559	3.064287225403
0	39540	16162.111547294544	0.938188482774
0	39550	16165.410833256865	1.915811128131
0	39557	16168.821419237114	0.52514028186
0	39570	16171.771614912006	3.306591067439
0	39580	16181.590690254442	1.975452001246
0	39590	16184.001679671988	2.182151673294
0	39625	16194.590547523874	5.442839908519
0	39637	16196.920234637826	9.330412595534
0	39677	16204.003115268067	3.808796488448
0	39685	16205.37677128233	10.339411145648
0	39690	16208.248195705822	0.409241970675
0	39721	16216.217016533111	2.397688779697
0	39734	16219.069586709747	4.816371838025
0	39795	16231.999986050608	21.196636783788
0	39805	16235.798555619585	1.772198469869
0	39871	16245.919905176152	1.296733212602
0	39874	16246.57138421987	9.248389583236
0	39877	16247.475531084135	2.212470405219
0	39911	16253.156389383772	16.52724164986
0	39922	16255.126402239162	3.908742317285
0	39942	16259.617575615366	1.394949024335
0	39959	16262.065755964514	3.282340530702
0	39970	16264.427296606938	11.85845619104
0	39975	16275.779252296228	0.954001413612
0	39980	16280.711970258424	0.678975618631
0	39995	16287.15086548318	2.48519717423
0	40010	16298.700425543017	1.977629829535
0	40020	16300.642862765712	0.591500017462
0	40045	16328.503851954243	4.057208087872
0	40055	16331.140405834009	2.065014378919
0	40097	16343.238396713558	9.225005697042
0	40107	16344.771420344665	5.932033572912
0	40115	16348.869717565872	0.547252910445
0	40130	16352.501791807827	2.673513685519
0	40150	16360.218360765009	0.434992613876
0	40210	16380.42372621832	6.518182213426
0	40220	16382.184813245158	1.374356682974
0	40237	16387.434031012037	0.929089354645
0	40242	16388.268428967229	1.078581506641
0	40282	16398.350113844005	0.72171227592
0	40287	16398.834859524592	2.84527133531
0	40295	16400.23327993077	1.406092240855
0	40320	16404.667242871064	3.798168907753
0	40347	16409.795339583641	0.887151365064
0	40350	16410.494245005015	1.256606136866
0	40430	16421.825804836615	10.325437234147
0	40455	16426.983828643472	15.781899440297
0	40460	16427.914767913352	2.55087874222
0	40465	16429.564866615657	0.992027821159
0	40475	16433.85199916072	1.538914072763
0	40480	16434.660832386529	0.630629003979
0	40494	16436.937022249043	0.963453931416
0	40497	16437.393658981673	2.061620157491
0	40502	16437.863105802346	1.288947759324
0	40505	16438.718790713061	0.947622594289
0	40512	16441.074380008214	0.914937110059
0	40525	16444.369310522093	3.872868456323
0	40535	16454.160313683218	0.479869305591
0	40554	16457.403338051627	2.414442674768
0	40561	16457.935329560882	2.098577216159
0	40584	16461.903652512694	4.491677831341
0	40587	16462.888503106863	7.817968863487
0	40605	16466.191401902257	3.279783854843
0	40672	16476.89780798433	6.648707115688
0	40797	16494.989279735593	38.679690744097
0	40800	16495.768254818387	0.916080625957
0	40810	16498.578375744544	1.95876818851
0	40827	16523.831966952763	0.610328665935
0	40860	16545.244764550964	0.528607245861
0	40902	16555.64000116225	0.447605013794
0	40927	16559.672716639542	1.201893091172
0	40930	16560.094898902743	4.460119198167
0	40940	16562.751098762624	4.842529885478
0	40960	16566.070775218162	1.007785035594
0	40970	16567.526519285867	3.886461338432
0	40997	16573.159126009673	4.067040670179
0	41000	16573.80103578658	1.925449367892
0	41005	16587.73472626875	0.95936776856
0	41010	16592.823185022945	0.965253271908
0	41020	16601.545448206814	0.477696627844
0	41025	16603.581053210798	0.798890008079
0	41060	16634.972853634995	0.704341319576
0	41072	16645.630147188644	1.185776959776
0	41129	16655.177974985234	10.937732509196
0	41220	16667.96622645587	4.956620481885
0	41226	16669.510572969749	19.75330825113
0	41236	16671.018968169599	3.401663839052
0	41242	16672.524800583415	6.226445298645
0	41245	16673.026939471087	2.747210082899
0	41250	16673.972728090035	10.185781638903
0	41272	16678.77958416231	20.928169663536
0	41280	16680.57254374318	3.520350365889
0	41292	16690.450013460506	0.94403230669
0	41310	16695.249064981102	4.985063935316
0	41322	16699.180276711797	0.656743012327
0	41355	16706.003315479371	1.043260053093
0	41389	16712.882359054339	12.73711459435
0	41407	16716.675226148667	4.21325306565
0	41410	16717.499917348271	1.294057613648
0	41440	16728.569618332228	4.036051868004
0	41445	16729.683811121292	2.682971233917
0	41460	16740.533739559045	2.171933755231
0	41507	16754.822010733013	6.68537442798
0	41510	16755.307316234627	1.087374503878
0	41529	16766.082561275125	2.443666749034
0	41542	16768.002680176725	2.042250980757
0	41564	16771.209168704295	0.553865015553
0	41567	16772.113304206751	6.793291312681
0	41592	16777.896156553483	8.303588822171
0	41668	16789.237392897936	7.301620611491
0	41674	16790.485986886904	2.293814379459
0	41682	16791.906755678341	11.001425548952
0	41690	16793.820618579421	4.774259764281
0	41700	16796.47566448829	12.12032817787
0	41705	16797.150189079292	0.411796774343
0	41715	16804.13095782109	2.129339071026
0	41737	16814.076414936613	2.072173577081
0	41765	16818.398531806015	2.719085991728
0	41834	16830.532593161991	5.674500271975
0	41840	16831.814850312152	9.062263788656
0	41850	16844.438117324207	4.050761287352
0	41855	16845.271348197456	0.564378573187
0	41865	16847.519147785504	1.414620850469
0	41875	16849.94654722033	2.338275689015
0	41880	16852.385843113384	0.444135104492
0	41885	16857.3336395953	0.843988085818
0	41905	16870.225752700407	0.816220126115
0	41937	16877.591050864993	2.623120616935
0	41975	16888.379829073065	0.517702598684
0	41985	16891.710155268961	11.540234354555
0	41995	16897.30352403813	0.969468005188
0	42000	16903.278468284201	0.539509184007
0	42005	16908.735905074052	0.832381564472
0	42010	16910.958565225103	0.457156954752
0	42085	16946.291737298373	4.178133680271
0	42095	16953.081204953189	1.742326253224
0	42100	16954.305301111385	0.465880205482
0	42120	16962.858763306104	4.366206805413
0	42150	16976.524015118658	1.593984091455
0	42165	16996.123195431686	0.614023236185
0	42180	17002.673139476209	3.307593991214
0	42222	17011.004355590904	5.230603339198
0	42235	17012.671587548075	1.831006705785
0	42252	17015.611167975573	0.662266201367
0	42260	17021.566881331121	0.769232760556
0	42265	17025.598663360519	0.496490777144
0	42270	17028.074076749493	0.590682661859
0	42287	17030.855422387482	2.273165945304
0	42314	17036.929783025014	0.559085497027
0	42322	17038.687157526894	4.459405551699
0	42330	17040.550776911961	0.583592490293
0	42335	17046.150182228769	0.849749414483
0	42342	17052.056764358121	0.8958393801
0	42345	17052.734169571872	0.946998522618
0	42380	17064.415436319971	2.754690721632
0	42400	17073.782810999972	4.046246651676
0	42405	17081.995977042645	0.65102904127
0	42410	17083.103825747759	0.55153499064
0	42415	17083.827721807002	0.626944229938
0	42440	17091.88833906996	4.139212252206
0	42455	17100.132655640001	2.117377533817
0	42467	17104.964674146356	1.969762100657
0	42500	17110.866365483212	2.956488309767
0	42510	17128.485352833166	2.05526815905
0	42522	17132.652120386115	0.815975168988
0	42530	17135.40328551179	0.835642034141
0	42545	17158.340978618544	2.225082390707
0	42570	17172.435517287961	4.152189633012
0	42575	17173.649665863809	2.84349765386
0	42592	17178.246763954048	0.632088294299
0	42595	17179.220058169232	3.021472581814
0	42665	17209.855843452218	1.06355912464
0	42704	17226.399033704119	0.929651750204
0	42772	17236.859311219548	17.842725875118
0	42814	17246.402580623895	1.173361742698
0	42825	17248.270076195609	3.731050960239
0	42852	17253.007557853101	2.681593400799
0	42857	17253.444262604671	0.735702051385
0	42862	17254.312917199614	1.284416867375
0	42872	17255.534579262307	6.654101549165
0	42890	17258.804264339102	14.136088987383
0	42912	17262.255683631377	2.509631375589
0	42920	17265.59406838481	0.824638217594
0	42940	17292.231300452533	1.565462453239
0	42960	17306.115542897613	0.518630271684
0	42970	17312.534235022511	1.799249883437
0	42975	17313.925975510732	3.382648257033
0	42987	17333.303363187925	0.478565566055
0	43010	17337.853168870892	0.884397861548
0	43030	17345.77981923869	0.979283276666
0	43035	17355.996811164829	0.694333740557
0	43042	17366.683210505775	0.937431413913
0	43087	17383.304216752271	4.188061053252
0	43115	17397.974074007808	0.952245582454
0	43120	17400.95760861319	0.623446504632
0	43125	17401.980868776825	0.85115942047
0	43155	17422.514311278744	6.756231597449
0	43160	17428.570841630062	0.717970737815
0	43175	17435.887475871255	4.721937514786
0	43180	17439.266618103046	0.555891978228
0	43185	17446.782841851948	0.421553148702
0	43195	17450.358975928145	1.692056069673
0	43212	17457.476008000937	0.811315422657
0	43215	17458.452796896142	3.917553241167
0	43250	17483.187805938039	3.055960389209
0	43290	17499.883034290622	2.815021244539
0	43330	17511.033634329211	2.415152570583
0	43335	17512.255333418034	3.918655205386
0	43345	17525.919007145107	2.579622539016
0	43355	17537.429845539282	0.620438892534
0	43360	17544.073172384694	0.985806692578
0	43412	17574.656064197327	2.630060505583
0	43422	17577.224457181525	5.500259467107
0	43425	17578.117512992211	3.97071417198
0	43430	17581.320526758675	0.613173841918
0	43472	17588.050022361018	2.606206767354
0	43475	17588.767114881994	0.872550880486
0	43507	17608.405133246911	0.451832838589
0	43515	17609.822209789884	1.228345529973
0	43525	17612.450866551383	4.119814348893
0	43540	17624.54980274961	1.217165844003
0	43545	17626.199990790202	0.951026451401
0	43555	17630.270679907568	0.986489398032
0	43585	17636.652016819937	2.659054209397
0	43590	17637.708178127706	3.766901020667
0	43595	17644.243192675645	0.726650822861
0	43637	17656.216931844812	3.49842702728
0	43647	17657.951567493828	3.172225648965
0	43667	17661.904422470606	0.753604489611
0	43677	17664.794587977816	4.70524752063
0	43695	17668.920988851231	2.718150816057
0	43702	17674.61489421755	0.448998792237
0	43717	17678.918334286054	4.661178585692
0	43740	17683.808138160342	3.944663135743
0	43750	17689.534901361085	1.305541739827
0	43755	17690.513963667437	2.502726597788
0	43775	17706.977435311676	0.692784807459
0	43790	17710.062917690038	3.012393337993
0	43815	17714.413760985692	3.715621181077
0	43835	17720.513536215471	8.273290646642
0	43872	17744.090724536788	2.994495321358
0	43907	17762.040470741194	0.972805988323
0	43914	17762.484241240861	3.602133086833
0	43922	17764.356373178696	5.054308291227
0	43935	17767.063200141122	2.528916191301
0	43945	17772.686459876287	2.227759706576
0	43950	17774.996846911339	0.657117892522
0	44000	17797.687252528659	2.704242145777
0	44015	17802.784816111668	2.904803886401
0	44050	17819.198567068499	0.886960635707
0	44062	17824.037266680767	6.920137534316
0	44067	17825.030246706243	11.554116303134
0	44070	17825.909147177573	1.414455045817
0	44106	17834.202060971544	3.090191937418
0	44112	17836.09703629184	5.055891700906
0	44147	17842.960887595547	9.462875777772
0	44170	17845.875041660715	7.541965861861
0	44175	17847.173531319433	19.362279979499
0	44195	17853.846348300878	0.400219573313
0	44240	17884.819799592056	1.522694192762
0	44245	17891.741578895087	0.482763399184
0	44260	17897.441470756871	4.160600091802
0	44285	17902.864677164158	3.705837226907
0	44302	17911.650342646569	2.003704389061
0	44307	17912.543843228837	1.424100203766
0	44310	17913.030787174033	0.900278628022
0	44320	17916.416245069183	1.293027723435
0	44335	17932.339865476952	0.954018882476
0	44350	17949.64438951424	1.636867003859
0	44385	17963.558068612269	3.919201812741
0	44392	17964.751314892151	4.140653427709
0	44399	17965.257285791353	8.045737777947
0	44445	17971.632579876647	6.466567065263
0	44455	17973.550218475072	14.36242008009
0	44479	17981.797585392386	2.542418844555
0	44484	17982.530305324184	1.758992286157
0	44512	17986.68701502794	5.083776422991
0	44527	17988.831223112736	10.52133958221
0	44535	17990.356574188781	7.169036315184
0	44542	17993.039972107671	0.901096280385
0	44547	17993.490247476054	0.847238147666
0	44594	18000.576462488448	4.103886284714
0	44612	18003.07379780222	2.564075618415
0	44617	18003.62176747477	5.776592982659
0	44630	18005.665395278272	1.179277943247
0	44697	18031.103809595311	5.060897385718
0	44710	18034.770683669226	0.604042402981
0	44722	18040.926503250482	0.672605588054
0	44737	18043.961255988313	4.504207158032
0	44750	18046.514105123556	1.884645902022
0	44767	18052.074123783008	3.111390930167
0	44770	18052.684271877602	3.714127277928
0	44790	18058.817570213794	0.945795259532
0	44807	18061.357883002301	4.887368388448
0	44810	18062.204880990991	1.236785135477
0	44820	18088.311450866646	0.898585545411
0	44825	18089.782653746872	0.540746995807
0	44830	18090.64330346765	6.049219570501
0	44840	18099.575789398914	0.78406106336
0	44860	18118.409802298906	2.232110754889
0	44865	18119.800096436951	0.53259116374
0	44912	18137.192076798647	0.599892517831
0	44920	18139.448197128444	2.297745743627
0	44965	18151.350655242943	4.884902176174
0	44975	18155.72895820241	0.737309213495
0	44980	18160.684544641549	0.65135675678
0	44997	18166.692494106183	3.410132354905
0	45005	18168.255000313359	2.265100375342
0	45027	18173.500898990498	4.284664188459
0	45035	18175.093229906024	2.505598722847
0	45052	18182.959269998788	0.723092520144
0	45060	18184.386408973101	0.512828118121
0	45090	18193.581609440628	7.178301943519
0	45095	18194.924773145014	0.90891637993
0	45161	18217.889636455351	4.557181558242
0	45164	18218.561931277919	2.122335970647
0	45184	18221.217782909577	10.672313879963
0	45207	18224.570771900997	3.169965329838
0	45229	18227.773098217803	10.30681247937
0	45234	18228.728276433297	2.026501187074
0	45237	18229.246371995997	2.301541405248
0	45242	18229.915548221268	5.76445203505
0	45269	18233.315667836986	3.737517459877
0	45305	18241.576741402442	5.925736306164
0	45325	18247.697373554884	0.824416631363
0	45340	18254.357908121579	0.97225280758
0	45350	18260.292121757272	0.79812524505
0	45365	18265.514722598356	0.475280907471
0	45372	18267.053852667691	0.997440129472
0	45394	18269.951323780357	1.204062213637
0	45420	18275.32558132359	8.059034665723
0	45435	18279.263324630326	3.282842058961
0	45455	18289.914343853293	0.936417692793
0	45490	18296.415590554629	4.245537317434
0	45500	18301.680534590767	1.05580546135
0	45545	18316.076653584356	3.75945292595
0	45587	18339.781828724224	1.709489467281
0	45595	18341.517154509434	1.819684327898
0	45602	18342.522111768105	0.567296282249
0	45605	18342.953373878372	0.436259820063
0	45632	18355.359856385364	3.12149622274
0	45647	18359.166989359002	1.421946108117
0	45657	18360.732341307152	2.711354326363
0	45660	18361.291866959289	0.814568698348
0	45675	18368.069204459851	3.421835878888
0	45719	18377.799104840866	4.340921146275
0	45727	18379.238204700033	4.416873764501
0	45745	18384.057660917002	3.749617628501
0	45750	18384.591239326377	2.973110848978
0	45755	18390.423517803069	0.750023753429
0	45760	18391.031252638758	0.562738745613
0	45767	18395.747868528268	0.765145931905
0	45784	18398.304901730971	0.447803857503
0	45815	18405.152202027032	1.074330720691
0	45820	18408.6211267724	0.507131996052
0	45825	18413.745039703593	0.572650617128
0	45835	18418.896495954539	1.214366393226
0	45852	18435.404438019642	1.518270064714
0	45855	18435.830344816442	1.891992451002
0	45865	18437.137669863725	3.490239981078
0	45870	18446.61529045318	0.871716915583
0	45894	18450.034232032339	2.320474687294
0	45914	18452.448121655849	2.804100255802
0	45947	18457.370570948834	7.911108418174
0	45960	18464.268459330651	0.57542398381
0	46007	18501.086844182537	2.691910362739
0	46015	18503.361677470365	5.34646339544
0	46060	18516.824553822068	5.74850766898
0	46085	18535.177824240319	4.010334758882
0	46100	18537.560147803718	6.071548920319
0	46110	18539.603687394529	1.487572219629
0	46120	18544.490119995259	1.46332831331
0	46125	18555.95179516582	0.659098701086
0	46165	18569.408935321984	1.695240410732
0	46170	18572.573554908952	0.861700423388
0	46175	18575.597861563037	0.88324100594
0	46187	18582.118724098547	1.572932702312
0	46192	18582.736324673031	1.057288448918
0	46200	18584.354662946391	1.658337488318
0	46205	18590.365821444992	0.420715999836
0	46210	18592.856511404396	0.62965096035
0	46220	18599.464858003577	0.795433266088
0	46225	18604.220898589478	0.899662832031
0	46235	18610.321615117564	2.196167846918
0	46255	18625.462767540561	0.772890774254
0	46260	18627.595437612162	0.600829147315
0	46272	18631.115024691985	0.859321202291
0	46299	18635.397855052063	2.624453442007
0	46302	18636.154361049076	4.584693455411
0	46305	18637.042473750552	1.866609392036
0	46312	18643.425123377519	0.920086520119
0	46320	18644.467002382683	1.591717094331
0	46340	18654.947619444946	1.155936504776
0	46374	18659.828666611038	0.930246503581
0	46382	18661.266212152013	3.721497814734
0	46425	18667.169716888812	5.799627272088
0	46430	18671.240078641607	0.85709240716
0	46435	18680.615517825147	0.666165575571
0	46445	18691.613205169151	0.43526716074
0	46460	18698.630466728738	1.708102818423
0	46485	18725.207963774217	2.640918826303
0	46495	18735.623984136155	2.41342174938
0	46500	18737.973212612711	0.550720261829
0	46522	18758.020678658422	0.645191247715
0	46535	18761.871437201819	3.981692557667
0	46545	18770.050424523043	0.665475022001
0	46550	18781.495197792899	0.857617073925
0	46560	18784.847891845404	0.798706472619
0	46572	18788.638384682724	3.656144892835
0	46582	18789.936245546529	0.908552543535
0	46595	18808.44274911082	0.796328264754
0	46625	18822.298731661236	3.567199841539
0	46639	18826.124238429609	0.745891854865
0	46645	18827.373289068294	3.260182061567
0	46650	18828.60642883425	0.408319746749
0	46677	18844.128624854728	0.689482344183
0	46690	18857.005861211138	0.443298851233
0	46697	18865.085742469715	0.595520859957
0	46710	18878.068111607204	2.075789602562
0	46735	18883.440825343627	3.65104136285
0	46740	18885.524052256165	0.798725633509
0	46750	18889.539302394831	0.661801342247
0	46755	18890.664415808044	3.123588030825
0	46775	18915.254901786055	0.951081786212
0	46800	18924.339028675085	6.728044399602
0	46807	18937.783359225844	0.540986749809
0	46815	18939.620097940408	2.061715051242
0	46820	18946.400626854841	0.637046096008
0	46830	18964.255002122253	0.866073315358
0	46835	18964.967362607895	0.593469615187
0	46840	18972.082475528703	0.488573022978
0	46862	18976.05848914272	1.342938472018
0	46877	18979.130701208022	6.33071322283
0	46897	18982.703596742653	4.02576971445
0	46915	18985.751330282545	4.224863184234
0	46962	19001.877313911825	4.098390450842
0	46965	19002.769041146015	1.49883072531
0	46972	19004.198766091585	0.814826516528
0	46980	19014.252513606079	0.430693284282
0	47045	19028.669070976335	2.725333827794
0	47050	19030.714490516382	9.431881126076
0	47095	19047.427017771022	4.430028767703
0	47100	19056.509645700982	0.443357085204
0	47115	19062.300491282366	2.169003527991
0	47135	19074.231348496662	3.716948274139
0	47140	19075.690950882932	0.49534262293
0	47150	19086.295089214549	1.894147008141
0	47190	19103.848082473537	7.710834983935
0	47202	19110.92705055682	0.469726941502
0	47222	19114.348155345753	4.983272777168
0	47225	19114.757773595987	1.938426686218
0	47252	19125.721678774266	0.67152453335
0	47290	19131.973909923554	8.882286748173
0	47300	19145.23629497489	0.587047301792
0	47305	19149.650183958606	0.880597771797
0	47317	19151.34611133929	0.944229387921
0	47355	19158.722268143256	8.71252880008
0	47360	19161.377541388663	0.482907444146
0	47382	19167.527457858107	1.985594299436
0	47385	19168.00961907664	4.585673811939
0	47420	19177.177485003466	3.896413488804
0	47449	19181.83275768252	0.708224043908
0	47460	19185.510972603385	3.886828855838
0	47475	19201.627100477897	0.488736491045
0	47500	19207.536931688356	2.175989972629
0	47507	19209.816652239102	5.367718495179
0	47570	19227.600060532412	0.895447257068
0	47585	19234.190171746775	1.857977444322
0	47590	19236.462416310134	0.807072811294
0	47615	19251.051874132302	0.868991201976
0	47655	19276.121077399308	3.762018130032
0	47672	19280.128273206446	0.409821038228
0	47685	19282.614197496752	6.4261984189
0	47710	19289.252294190027	1.433535012634
0	47720	19296.952004966171	1.27185243939
0	47725	19306.209077920765	0.565940363146
0	47769	19331.602019845059	1.080389072014
0	47772	19332.276058095664	2.467853078432
0	47804	19336.978287633834	10.651977796146
0	47840	19346.758184218259	0.721964400355
0	47966	19367.069381487122	12.393056883571
0	47972	19368.075995783632	9.254008839862
0	47980	19370.341038161444	6.52165956369
0	47990	19377.193978774202	1.84277217946
0	48000	19380.865823565681	2.449134266983
0	48005	19383.881655697992	0.904641079297
0	48010	19391.311916791769	0.443600110384
0	48015	19411.350643500715	0.821782968519
0	48020	19414.900933274573	0.686189488927
0	48040	19421.909004975222	3.271893336136
0	48045	19426.915531640956	0.424804257741
0	48057	19430.015918805118	0.782380956204
0	48075	19434.937027497603	1.790881339599
0	48087	19444.138881130848	1.423486138987
0	48107	19448.52759795101	5.337405247773
0	48122	19453.977143719361	0.636918030027
0	48144	19466.807837127236	1.904501780357
0	48165	19475.653564564691	0.905798207317
0	48185	19487.724996968402	1.498257787922
0	48205	19492.160036737568	3.000418155489
0	48234	19502.329085210869	4.017003452731
0	48265	19507.736715011184	0.522417195281
0	48270	19508.382339997669	8.85773285706
0	48285	19519.903631871526	2.674289458992
0	48302	19527.929821282893	3.240581919901
0	48307	19528.474050255807	2.873836377545
0	48322	19530.750822006946	2.40705739298
0	48325	19531.631065746571	0.987275334036
0	48360	19537.707663942225	8.618095473339
0	48370	19561.815357212912	0.845927414438
0	48385	19565.452162248762	3.39429100497
0	48400	19570.442011290146	2.119318616004
0	48405	19578.006944657218	0.671913592098
0	48415	19581.042667328163	0.527011389611
0	48420	19582.004035798137	2.112203907847
0	48472	19599.474288053585	1.983135591832
0	48475	19600.071282169649	7.2296203043
0	48485	19605.441185034251	0.402650464792
0	48520	19612.040387943479	0.6071639542
0	48529	19613.215419034982	7.248334554086
0	48540	19615.096493130034	0.798031852022
0	48547	19616.910998507982	0.542900820402
0	48552	19617.580862423565	0.803347557827
0	48565	19619.515056482765	12.758580169827
0	48615	19635.286764844285	12.117910710827
0	48629	19650.61711354858	0.781791092688
0	48655	19663.227417101711	0.566052823421
0	48672	19668.143277271433	3.499190471482
0	48675	19668.564029140366	1.106717610388
0	48709	19677.941296983058	3.164982092185
0	48712	19678.462870860672	4.245154961105
0	48720	19680.423007864578	4.584697393308
0	48747	19689.371685547317	1.562401050944
0	48762	19691.20860480059	1.810421800502
0	48790	19701.751495544863	12.568906230585
0	48802	19706.424487707601	0.985898158764
0	48805	19706.934067431721	1.307599366332
0	48810	19709.755554709423	0.964710731711
0	48820	19726.983645561687	0.774407117317
0	48825	19729.946296497651	0.981897786865
0	48852	19739.302263457898	4.751958830679
0	48875	19745.116294551392	7.04025651569
0	48890	19759.527964194757	0.684200852621
0	48895	19761.761359720308	5.280365177403
0	48917	19773.398364484449	1.842529834667
0	48937	19776.530018193997	2.063458583284
0	48967	19782.168838512913	1.391454474411
0	48984	19784.26455143403	1.548360815265
0	48990	19785.179145823109	4.42916523603
0	48995	19787.641589086832	0.513886973914
0	49022	19798.918547116837	2.932949252442
0	49025	19799.388616036216	0.933766636981
0	49056	19807.423480908544	1.233290787679
0	49059	19808.323236852762	1.373336229055
0	49062	19809.095001651876	1.925162522902
0	49075	19811.703151691959	4.479771407448
0	49090	19817.51298524816	0.564317721548
0	49095	19820.193518191628	0.753883979144
0	49110	19828.180107148663	3.268298602366
0	49120	19837.362550182415	3.184501872339
0	49135	19846.095721686596	0.543066045037
0	49145	19850.119476001042	3.596821321818
0	49165	19860.145626057597	2.813125012692
0	49185	19868.663257582114	1.860614757752
0	49190	19869.308320997003	1.951101159419
0	49195	19878.501308237656	0.574217098299
0	49240	19890.67899198851	6.144354095814
0	49252	19896.806556644779	2.021256370254
0	49255	19897.594686998077	0.988608609958
0	49260	19901.646716297393	0.60776040121
0	49267	19904.132084766712	0.791334755439
0	49270	19905.127448996047	1.405795396734
0	49290	19911.915353725243	5.853413557038
0	49307	19916.468364250527	1.761203791909
0	49319	19917.976450687	0.487369407108
0	49322	19918.425017320742	0.56606713651
0	49335	19922.61129909369	6.310467769247
0	49340	19923.962548603897	0.672383564012
0	49345	19925.916599310738	0.895965907304
0	49355	19936.762275077879	2.602719591769
0	49360	19939.778979090268	0.449472662574
0	49372	19942.613775800931	1.31612960037
0	49405	19952.12768063077	4.709830791275
0	49410	19963.830166668642	0.909730220819
0	49445	19974.125154143206	7.867187556928
0	49467	19980.365340352012	2.687016381231
0	49477	19981.659208469559	1.19755908095
0	49480	19982.597744465061	4.707355748787
0	49495	19986.386943081322	0.494057330443
0	49505	19988.770721598491	0.753754858021
0	49515	19990.387430323271	6.59216791839
0	49525	19995.61030716753	2.04366786943
0	49530	19997.981620398789	0.822181613371
0	49535	20006.304470969121	0.675501128798
0	49540	20007.926005946617	0.965041070199
0	49602	20032.083631379399	9.556873592014
0	49612	20033.290549314636	11.709355034955
0	49617	20034.230724604204	4.055478489232
0	49620	20034.879481633948	8.49174150837
0	49625	20035.711031031857	0.458322975691
0	49635	20038.645586500737	1.935622771908
0	49655	20046.882655134083	0.681205903925
0	49665	20049.131771985444	1.562206932898
0	49675	20053.692184558261	2.435012643175
0	49680	20058.465036028524	0.973227467993
0	49720	20078.07044461239	0.870564111788
0	49735	20086.368782578476	2.715332629751
0	49750	20104.037903658233	0.455774449231
0	49775	20121.721040386709	3.104067651598
0	49790	20127.229507049071	0.815689137631
0	49795	20128.989350229002	0.684761255514
0	49812	20132.636441308287	7.497423013922
0	49820	20136.041726292425	0.911605029879
0	49832	20139.29705963083	1.060239228443
0	49860	20144.492279204298	4.659679402647
0	49880	20148.821261734908	1.350449943163
0	49896	20151.045000482297	4.147344591022
0	49910	20154.048634134645	4.686941187457
0	49920	20159.625620120535	1.696419229547
0	49942	20165.039888945426	1.591305003101
0	49950	20166.318322166585	0.46661348498
0	49967	20173.975809176964	1.13927211987
0	49970	20174.838277752883	2.340966397757
0	49975	20176.128731922953	0.478870317945
0	49980	20180.944291738011	0.462146337656
0	50002	20190.740862259174	1.189871156752
0	50019	20193.238289459284	1.069099292526
0	50025	20194.71289660535	1.838450421866
0	50045	20215.582948071474	0.769805652602
0	50055	20226.310444239783	2.953859159365
0	50065	20231.50893858876	2.643405045584
0	50075	20233.38437329359	1.304680521076
0	50080	20235.335528762216	0.547204774292
0	50166	20257.590194261421	2.930737124033
0	50202	20267.354857012809	1.284469883544
0	50205	20267.820795298175	1.905180675723
0	50210	20271.129310641372	0.587938146386
0	50215	20272.219903182999	0.683471767325
0	50270	20291.60798295178	4.313871428951
0	50290	20297.447685937175	4.93121276919
0	50356	20312.353679887891	6.197124192884
0	50359	20312.946855679933	8.42907003552
0	50362	20313.626478826009	4.280493873218
0	50365	20314.411256009141	8.82910953164
0	50375	20323.617273225672	2.19628150206
0	50380	20325.721159649139	0.433775187703
0	50385	20327.74586398823	0.820175413787
0	50420	20337.225564520704	4.581517353583
0	50460	20350.979048144378	1.189309141645
0	50467	20356.042353683867	0.441119700158
0	50475	20359.115340591644	3.106558695575
0	50520	20377.243967637846	0.637503356487
0	50530	20380.878926487775	2.943112248431
0	50555	20386.961428023878	1.23404922628
0	50560	20393.334667913889	0.945115494588
0	50610	20402.535796072647	6.949256156541
0	50620	20411.501492121505	0.723994716769
0	50625	20413.15165634036	0.444480754761
0	50635	20419.668532836798	1.63049237294
0	50660	20424.781254217443	2.069103106769
0	50665	20425.804003286768	3.924677470159
0	50686	20432.214557526813	0.564933290333
0	50694	20433.658611267333	1.50437606142
0	50697	20434.578502681193	2.367525119136
0	50705	20437.32900980083	0.484899703786
0	50720	20442.589487890888	10.850393355354
0	50742	20451.004978436971	2.477431160149
0	50745	20451.498748125223	3.326279515773
0	50782	20459.47680279839	6.16560576729
0	50795	20463.200131349376	8.492816183262
0	50817	20467.50786733599	2.123206657336
0	50830	20469.719336092143	5.730156406467
0	50865	20486.582696947751	0.998071719947
0	50875	20489.312865690799	1.708806327896
0	50890	20500.832734308609	0.717895204993
0	50895	20507.969049068294	0.432633554051
0	50937	20530.286402163515	2.290321063344
0	50952	20542.754237585334	0.880887896428
0	50975	20550.990324729304	0.537098971521
0	50990	20562.663773710284	3.293743387196
0	51000	20581.47229585333	0.422246099217
0	51010	20584.591218242838	2.382850567151
0	51015	20588.240377582503	0.640894989111
0	51045	20594.898370728213	0.558267816808
0	51065	20600.833019665997	8.750545315139
0	51080	20604.257016849857	1.042571435831
0	51090	20606.199198037615	1.495693522031
0	51095	20607.767996698984	0.746024322603
0	51105	20610.298334528798	1.403215675742
0	51120	20626.10719012592	3.92420536736
0	51147	20631.15397268351	1.578390673932
0	51152	20632.060358459305	5.855918937731
0	51165	20634.934954707936	5.559240519119
0	51180	20655.692130201168	0.759905494656
0	51185	20658.55097517133	0.921763354493
0	51235	20675.494359102975	8.188862305489
0	51255	20689.677695738754	3.280614027668
0	51275	20709.427137158826	0.977277666889
0	51287	20712.646541313716	1.991945840806
0	51290	20713.635446585371	1.398853204734
0	51297	20725.025586696413	0.858175497409
0	51307	20726.498229938537	1.034700603937
0	51310	20727.260173429107	1.580766721845
0	51345	20737.939356022224	3.737659641238
0	51350	20739.25047252324	6.973866525844
0	51355	20744.149598933024	0.654530287255
0	51360	20748.839218639361	0.414677098021
0	51385	20758.086678295214	2.30514432216
0	51390	20759.020558542405	0.706781220902
0	51410	20768.565211085168	2.826412015388
0	51417	20769.7770799499	4.787625176631
0	51435	20775.047893119444	1.414702670681
0	51455	20793.570860360968	4.136141394634
0	51507	20807.606332748892	11.292098962228
0	51528	20810.566759717858	13.081877872553
0	51534	20811.954469977387	15.839731214283
0	51544	20813.504127816086	3.150429760698
0	51547	20814.415457001862	9.948613054362
0	51562	20817.262517699744	0.781128127733
0	51565	20817.961727497219	16.609974628001
0	51582	20825.701468420443	0.594829548942
0	51590	20827.074134719475	4.20005155471
0	51612	20836.863035125813	4.393139485803
0	51617	20837.811175117145	1.251313796234
0	51620	20838.749841026558	1.409635758496
0	51640	20846.760113282015	0.693892072514
0	51645	20847.581527716046	4.204745689661
0	51665	20856.422303640844	4.12761776422
0	51677	20867.698424704921	1.472615027185
0	51680	20868.203654044437	2.278546230169
0	51685	20873.425093325718	0.95251785852
0	51719	20880.628689948629	0.663897967618
0	51730	20883.101582853084	7.306417771815
0	51747	20890.185695772187	2.781437650284
0	51760	20899.284972786366	1.660657497228
0	51765	20900.733561363802	0.501506576873
0	51785	20907.235590868783	5.033976572701
0	51800	20916.09492202422	3.827863255676
0	51820	20919.835482852488	1.136349940636
0	51825	20920.64823406166	0.509459662158
0	51865	20928.876666877562	1.388124096033
0	51872	20929.618020848326	0.586593759386
0	51880	20932.728887803776	7.781772033798
0	51885	20936.97810013468	0.948673977656
0	51892	20945.779705534676	0.502928546211
0	51902	20947.27444878182	1.133148660727
0	51915	20948.970858216691	2.636290965696
0	51920	20960.70415454174	0.584253028966
0	51959	20971.106329451043	9.168277193677
0	51962	20971.955576819701	1.549047760112
0	51965	20972.555752582436	1.474960588994
0	51970	20973.534978226143	0.495737870457
0	51977	20977.294163940061	0.562941670092
0	52025	20989.753314192008	8.796612381167
0	52037	21010.709019132393	0.512357527483
0	52042	21011.566956489455	1.16200352173
0	52045	21012.519741277505	1.508515375793
0	52050	21018.176989693424	0.85991825643
0	52075	21023.606242950302	1.481555480827
0	52107	21043.170874860086	0.430105648888
0	52172	21066.826072920206	4.3686847177
0	52175	21067.366000752755	7.10594142784
0	52185	21069.615007024681	1.310321169188
0	52212	21082.229989936643	2.545669941228
0	52230	21088.16018812269	0.484821712971
0	52240	21099.853656775392	1.440480395681
0	52309	21117.369406965104	5.609690813787
0	52317	21119.206643729805	4.076369632828
0	52325	21121.301586915576	2.616461789803
0	52355	21129.186827018364	7.214476125305
0	52360	21130.814247455356	2.89592539473
0	52379	21136.907449027091	0.925364415813
0	52387	21138.186928990796	2.135246612655
0	52439	21148.215296526209	1.613869109419
0	52447	21149.36576023428	1.864091565948
0	52479	21154.346467166414	2.517907665994
0	52489	21155.549783655463	4.097472822257
0	52497	21156.744721521179	1.41683221276
0	52500	21157.652480358465	17.102736828073
0	52520	21170.303850434261	2.66965506301
0	52537	21174.763348593894	6.279821816344
0	52565	21180.037201197364	1.123417056176
0	52570	21181.233411177784	8.852239139523
0	52605	21193.78751243122	8.50449063269
0	52630	21204.28681244852	0.427822050778
0	52652	21219.268141502392	1.025055387171
0	52677	21223.137841248126	0.77431349
0	52680	21223.93169499625	7.777115851206
0	52685	21234.784250266091	0.825652605295
0	52705	21245.240649288309	0.561555907503
0	52725	21260.575896393526	2.308550337492
0	52730	21261.35237349815	2.176429610712
0	52754	21265.534826602758	0.683301309869
0	52789	21271.176768355042	3.200556016464
0	52814	21273.891532762366	12.152200189445
0	52832	21278.75457780479	16.972920135972
0	52840	21281.477351332252	13.015791555592
0	52845	21294.313831956376	0.499488375941
0	52860	21302.475497078216	1.788084691085
0	52880	21310.967327441339	0.539696007688
0	52885	21313.969277234555	0.474215059774
0	52925	21326.828686202514	8.079957673639
0	52930	21327.787188403136	4.667606571634
0	52935	21330.316560929641	0.859441993618
0	52955	21339.282111812045	4.24117534372
0	52975	21348.574582244753	3.391512493898
0	52980	21354.58899942557	0.445805713208
0	53019	21366.423140336087	8.871938800301
0	53050	21373.095364050919	10.498934518032
0	53055	21373.770737612315	2.18532258728
0	53060	21377.723954862988	0.685367087601
0	53080	21386.333092654545	6.059815798961
0	53097	21390.47359090303	2.92606610396
0	53102	21391.450663545913	1.271657490603
0	53110	21395.187018462676	4.15169780938
0	53120	21400.307155580789	1.393051254841
0	53130	21408.032114198289	2.450179372815
0	53142	21417.960454143887	1.917720690796
0	53157	21420.051006828447	2.495847381832
0	53162	21420.897570516088	0.950225865813
0	53205	21429.022501068019	7.497410646614
0	53235	21444.967869484592	6.502923954408
0	53245	21450.251119730195	2.175468977508
0	53255	21455.213121308989	0.507076512798
0	53262	21456.483557138123	0.511345032277
0	53265	21457.2257928092	2.904266154719
0	53280	21460.665107265837	3.090261921343
0	53302	21465.16010507128	0.943060562201
0	53317	21469.119218742255	4.498072157932
0	53360	21484.811051774595	2.999302490822
0	53375	21488.533850874037	3.321601748828
0	53400	21502.851697626188	1.85874302347
0	53424	21519.289746338652	2.692700655385
0	53434	21520.794203940696	2.106091417748
0	53440	21522.07887346238	1.46445174268
0	53450	21525.892269096507	6.060575218654
0	53514	21538.14705178295	3.634374812241
0	53547	21542.824604721925	1.844655631075
0	53574	21547.383308442536	9.498015693942
0	53582	21549.195124422241	10.190802158939
0	53587	21550.141930795642	1.001418116719
0	53592	21550.931128159766	18.522534250655
0	53635	21557.475532236971	0.476965847565
0	53640	21558.483968411419	11.697325845385
0	53716	21569.69519014436	16.448902088633
0	53731	21572.248379524176	32.32816252458
0	53734	21573.14435174431	19.835290598822
0	53739	21573.796316123691	2.999780398965
0	53742	21574.601949316433	23.77620013824
0	53770	21579.058601459085	5.798133850967
0	53782	21583.803475234664	0.792913374724
0	53805	21587.612695795358	5.505179744967
0	53825	21597.743971111299	5.191936963428
0	53911	21613.710630240599	7.695068839735
0	53921	21615.000300944392	7.695986506483
0	53934	21616.818778107577	13.40121413814
0	53937	21617.501970550493	7.4020231582
0	53955	21622.781878302182	5.994625064235
0	53960	21625.014088628322	0.862669029133
0	53965	21628.454475619095	0.908775846288
0	53980	21633.122265124868	1.085519799077
0	54009	21637.691062918612	1.368767649483
0	54015	21639.033015992799	1.62124923113
0	54044	21644.446261095661	1.474047321374
0	54047	21645.383248351547	5.870008370688
0	54055	21646.746940941053	6.156712693322
0	54072	21653.051764384022	0.563666216191
0	54085	21657.984709529946	5.411769653262
0	54090	21660.131044169903	0.867981719086
0	54097	21664.600520297862	0.98200629591
0	54162	21683.675726066108	0.984410132281
0	54214	21695.570940056692	13.693460006278
0	54220	21697.286995766281	7.264648174314
0	54249	21703.939633471357	1.048698828636
0	54267	21706.613205617289	4.046069803013
0	54270	21707.587566161849	4.565091717031
0	54345	21739.062794876496	8.497598571987
0	54370	21765.933809106261	3.809980031136
0	54395	21773.189218620839	0.818281033893
0	54402	21780.648258767095	0.933321536565
0	54412	21783.919830583087	0.779469621647
0	54420	21786.366362462114	0.496229069261
0	54435	21792.602337666094	0.741755870823
0	54467	21797.973020978219	10.057758761817
0	54485	21801.430694177141	2.730724355443
0	54537	21809.354150105385	4.547131622024
0	54565	21820.557742498674	4.088029748328
0	54580	21830.889050055694	0.843843719829
0	54602	21839.183103070834	4.27658900419
0	54630	21847.739819226528	7.137381647044
0	54640	21858.494028782262	1.081269247659
0	54645	21859.178533547183	2.278564214215
0	54655	21865.558133308117	2.827966673386
0	54662	21868.011260077221	0.816781418864
0	54665	21868.524936685621	0.567974233877
0	54692	21873.595813222618	2.220494334202
0	54707	21876.529652466417	5.769841682687
0	54722	21878.431804112743	8.943575510031
0	54730	21879.981741636272	7.771702395839
0	54745	21885.184133735531	0.74272097908
0	54750	21886.616981925434	0.439343775064
0	54762	21888.637791115303	1.370487197978
0	54820	21902.441348308054	2.736506807449
0	54842	21905.209865905324	9.854915899689
0	54845	21905.620191643646	2.796531036751
0	54867	21919.70222680382	0.965897666197
0	54870	21920.342670418923	3.623328712437
0	54915	21926.711273391375	5.042981007798
0	54955	21936.148814814832	6.111439557226
0	54980	21941.801614341329	20.812592280455
0	54992	21955.093276646385	0.803309471456
0	55020	21959.453850202561	5.391830764659
0	55047	21968.508578070056	0.53679753202
0	55055	21972.658025677775	0.872638102807
0	55065	21975.178875682697	1.272099964252
0	55085	21980.414424607618	5.080113022738
0	55090	21988.926936329224	0.694175679656
0	55129	21994.750191640994	1.994082642514
0	55139	21995.812701251126	3.828305158635
0	55147	21997.265273784568	2.305633794379
0	55150	21998.168786640839	2.054468945137
0	55157	21998.972706566127	0.562161536468
0	55160	21999.873534215176	1.093373125351
0	55165	22009.671272499515	0.411202389421
0	55192	22021.664390597793	1.014975476459
0	55210	22024.782647598479	4.675395883403
0	55225	22027.558985946396	1.268939360059
0	55230	22028.888036263951	8.080552100099
0	55235	22029.890354740489	0.765130704781
0	55240	22037.36775801352	0.583343257336
0	55255	22044.96841149392	1.796331894331
0	55260	22052.042275025145	0.964447441883
0	55267	22056.939590148108	0.574014365626
0	55270	22057.654935892338	0.935882050632
0	55280	22061.516858825804	3.409347279162
0	55304	22077.216303242468	0.888068294964
0	55320	22080.42966443732	4.665154915658
0	55327	22086.866232296958	0.880569192441
0	55337	22088.317267348239	1.227744183914
0	55340	22089.11397772496	2.367405843362
0	55357	22099.058435130847	2.709958471823
0	55360	22099.607599563507	3.099718692586
0	55365	22102.298164363031	0.430077805882
0	55375	22110.59883215312	0.424847000279
0	55382	22114.968345326016	0.767925894866
0	55397	22118.135452180323	1.036371805305
0	55400	22118.908437127494	4.108457923651
0	55407	22130.810549228523	0.94440241172
0	55432	22136.003424334486	6.048879855931
0	55435	22136.465004494281	3.115209973263
0	55440	22137.526142450228	0.924409258971
0	55445	22139.608804863731	0.595507673547
0	55455	22144.516604171339	3.506348995241
0	55460	22147.135556130003	0.798208661471
0	55475	22153.553603822549	1.853867202415
0	55480	22156.95093200613	0.794018299272
0	55494	22162.204884173623	1.013708393478
0	55504	22163.260418538419	1.411272726412
0	55547	22173.719628848145	1.119166012335
0	55576	22177.422834111899	4.463820976226
0	55584	22178.625087934882	2.362875490223
0	55615	22184.001631821842	11.564995805594
0	55620	22185.472732996053	5.038800799855
0	55645	22210.695967225217	0.444449541252
0	55700	22219.548990308193	2.898136457666
[...]
8	26484	10664.932152449865	1
8	26486	10665.357539394258	0
8	26570	10690.530031719167	1
8	26571	10690.678468659949	0
8	26575	10691.550986626056	1
8	26576	10692.230098175878	0
8	26912	10839.429841226462	1
8	26914	10839.817478775724	0
8	27190	10976.130305330393	1
8	27191	10976.256260543557	0
8	27195	10976.983206474789	1
8	27201	10981.020228538481	0
8	27350	11045.828237343211	1
8	27359	11047.344725659112	0
8	27695	11189.892606291528	1
8	27696	11193.173198078623	0
8	28235	11476.409740069342	1
8	28236	11477.179849379096	0
8	28375	11529.590696681231	1
8	28376	11529.928734800666	0
8	28730	11642.786064015257	1
8	28731	11642.991093677234	0
8	28737	11643.807344772386	1
8	28744	11644.722996316373	0
8	29075	11785.482216988976	1
8	29076	11786.237611699255	0
8	29410	11925.902919141533	1
8	29411	11926.836691737094	0
8	29510	11954.159861934481	1
8	29511	11954.29567015959	0
8	29534	11962.866401814107	1
8	29540	11964.560912028091	2
8	29550	11966.870328032508	3
8	29551	11967.661673547382	2
8	29559	11969.142457573827	1
8	29564	11969.971145363429	0
8	29980	12141.445222283382	1
8	29981	12141.539926675254	0
8	30205	12224.767491902861	1
8	30206	12224.908685415675	0
8	30222	12227.950138153449	1
8	30224	12228.268765321334	0
8	30239	12229.984519986517	1
8	30241	12230.557348929792	0
8	30267	12234.35224754772	1
8	30269	12234.48841690075	0
8	30510	12381.662236446309	1
8	30511	12382.025174901397	0
8	31515	12876.805530143524	1
8	31516	12877.133277939063	0
8	31550	12882.381388792357	1
8	31551	12882.50955952754	0
8	31772	12963.303378286781	1
8	31774	12963.689246510282	0
8	32002	13059.512470738681	1
8	32004	13059.831075948388	0
8	32075	13073.462785611479	1
8	32076	13073.988695990867	0
8	32115	13081.10105070303	1
8	32121	13082.472133355666	0
8	32125	13082.880150630543	1
8	32129	13083.118166413584	0
8	32149	13085.610437920596	1
8	32151	13086.051445794933	0
8	32672	13338.620597488348	1
8	32674	13338.775317541382	0
8	32757	13372.633313655901	1
8	32760	13373.160460864335	2
8	32761	13373.259961203501	1
8	32764	13373.448175633361	0
8	32785	13376.89297239768	1
8	32786	13376.953187525889	0
8	33050	13460.345566505653	1
8	33051	13460.763289537656	0
8	33055	13461.179819824875	1
8	33056	13461.307699219838	0
8	33700	13766.332549725661	1
8	33701	13766.817311224618	0
8	33717	13768.920201482249	1
8	33722	13769.886420115826	2
8	33724	13770.214048924667	1
8	33728	13770.602252294188	0
8	33989	13865.206279394124	1
8	33992	13865.714226874058	2
8	33994	13865.747146885858	1
8	33997	13866.424481309765	2
8	34001	13867.106458166185	1
8	34013	13868.095239555259	0
8	34094	13887.2650612219	1
8	34099	13887.962369548005	0
8	34784	14132.821280982196	1
8	34794	14134.025672522609	0
8	35150	14269.267923317624	1
8	35151	14270.363081557486	0
8	35435	14453.619836704532	1
8	35436	14454.586247760766	0
8	35615	14533.431209370709	1
8	35616	14534.238001903662	0
8	35620	14534.674852108772	1
8	35624	14535.393705101455	0
8	36452	14859.712103369513	1
8	36454	14860.241478835884	0
8	36880	14984.661632418597	1
8	36881	14985.144836106716	0
8	36985	15039.568952846951	1
8	36986	15039.693724476413	0
8	38500	15759.677380811915	1
8	38501	15759.784673301866	0
8	38505	15760.700110798552	1
8	38506	15761.494403014883	0
8	38527	15764.008094632152	1
8	38534	15764.887269246767	0
8	38630	15787.82080991988	1
8	38631	15788.227342332923	0
8	38662	15804.040491296231	1
8	38694	15808.361354495212	0
8	39092	15930.172903602115	1
8	39094	15930.301481430257	0
8	39315	16058.592224677271	1
8	39324	16059.600638034204	0
8	39615	16189.61524533458	1
8	39616	16193.30800742036	0
8	39630	16195.674815894855	1
8	39631	16196.020943776776	0
8	39815	16238.185935053212	1
8	39821	16238.749177957812	0
8	39835	16241.137108543749	1
8	39836	16241.490279813153	0
8	39850	16243.365407248536	1
8	39851	16243.417123948081	0
8	39855	16243.969391763626	1
8	39856	16244.503213465352	0
8	39862	16245.003463083225	1
8	39864	16245.01385395037	0
8	39950	16261.189217976156	1
8	39951	16261.200067105262	0
8	40080	16340.435562927596	1
8	40081	16341.134125794005	0
8	40577	16461.178426643966	1
8	40579	16461.232795915577	0
8	40595	16463.933823637472	1
8	40596	16464.377666442437	0
8	40600	16464.811394054038	1
8	40601	16465.622499576534	0
8	41095	16650.735717282247	1
8	41096	16651.037342928185	0
8	41177	16662.4355835587	1
8	41184	16663.360492950771	0
8	41239	16671.595525662203	1
8	41246	16673.23052579891	0
8	41265	16677.720740192182	1
8	41266	16677.8437471441	0
8	41555	16770.515046517435	1
8	41559	16770.84429853072	0
8	41685	16792.860206336513	1
8	41686	16793.204323723145	0
8	41812	16827.440294836141	1
8	41814	16827.51426530468	0
8	42820	17247.509554321093	1
8	42821	17247.6121037858	0
8	42830	17249.700839278661	1
8	42834	17250.872024890523	0
8	42837	17251.11272394366	1
8	42839	17251.391740609356	0
8	42847	17252.543198382737	1
8	42859	17254.015720161292	0
8	42865	17254.885800482169	1
8	42866	17254.943405562855	0
8	43400	17573.08422060778	1
8	43401	17573.41389808161	0
8	43415	17575.49451452121	1
8	43416	17576.487362179859	0
8	43900	17760.913831249924	1
8	43904	17761.449496186316	0
8	44045	17817.909947549881	1
8	44051	17822.120216212068	0
8	44055	17822.775184798399	1
8	44056	17823.042878977657	0
8	44115	17836.949594630715	1
8	44119	17839.099128735242	0
8	44122	17839.316013917785	1
8	44124	17839.412484629969	0
8	44132	17840.693735677182	1
8	44135	17841.248133484499	2
8	44136	17841.673276179519	1
8	44139	17841.681415217961	0
8	44154	17843.378715272436	1
8	44156	17843.559119187766	0
8	44362	17959.70410830483	1
8	44365	17960.329913728332	2
8	44370	17961.022845331278	3
8	44371	17961.717539625607	2
8	44374	17962.342022528503	1
8	44377	17962.447903067611	2
8	44380	17962.969103811674	3
8	44381	17962.997112457738	2
8	44386	17963.905812129655	1
8	44389	17964.338061861555	0
8	44417	17967.708436029075	1
8	44419	17968.218561567202	0
8	44425	17968.732281582706	1
8	44426	17969.013229762903	0
8	44430	17969.48620348461	1
8	44431	17969.492034859049	0
8	44465	17980.086186580818	1
8	44466	17980.161327849064	0
8	44492	17983.823331072336	1
8	44496	17984.125245194869	0
8	44499	17984.805558578126	1
8	44503	17985.318881383418	0
8	44520	17988.295373897874	1
8	44521	17988.317633593567	0
8	44760	18050.591327630667	1
8	44761	18051.217927743419	0
8	45172	18219.94088642892	1
8	45174	18220.207778049129	0
8	45707	18376.532463926495	1
8	45709	18376.728373904699	0
8	45740	18382.057773745888	1
8	45741	18383.523042646977	0
8	45900	18451.081135695608	1
8	45901	18451.33091596968	0
8	46075	18533.15089421165	1
8	46076	18533.861861892605	0
8	46285	18633.375714091599	1
8	46286	18633.384889170018	0
8	46290	18634.222088382256	1
8	46291	18634.494718631254	0
8	47490	19206.072611171475	1
8	47491	19206.244128558282	0
8	47495	19206.666089480985	1
8	47496	19206.992124821636	0
8	48295	19526.542668558416	1
8	48296	19527.473670567514	0
8	48315	19529.984116630431	1
8	48316	19530.281440430868	0
8	48465	19598.743669741248	1
8	48466	19598.904557461299	0
8	48500	19608.123163605544	1
8	48501	19608.200391754621	0
8	48505	19609.164133755138	1
8	48506	19609.466888324496	0
8	48515	19610.820442378194	1
8	48521	19612.544101591358	0
8	48845	19738.518242197668	1
8	48846	19738.589460861182	0
8	49565	20025.2029841151	1
8	49566	20025.870188484518	0
8	49572	20026.414134557163	1
8	49575	20026.836027695276	2
8	49576	20026.876777601195	1
8	49580	20027.406122296256	2
8	49594	20030.813298742726	1
8	49597	20031.429158529974	2
8	49599	20032.054471246116	1
8	49604	20032.131959408457	0
8	50317	20306.77038801482	1
8	50322	20307.301364443051	2
8	50331	20309.135179008485	1
8	50336	20309.986643274252	0
8	50339	20310.017799172026	1
8	50341	20310.424016449429	0
8	50344	20310.793254753609	1
8	50346	20310.854659071839	0
8	50655	20423.807151567764	1
8	50656	20424.171500164499	0
8	50755	20455.477872152818	1
8	50756	20455.683339962579	0
8	51142	20630.418339486316	1
8	51144	20631.125074496454	0
8	51340	20736.752884925244	1
8	51341	20737.512868504541	0
8	51405	20767.378257896616	1
8	51406	20767.884143627093	0
8	51472	20797.93808945327	1
8	51475	20798.913792699649	2
8	51476	20800.811162660098	1
8	51479	20800.860725575399	0
8	51484	20801.545939966491	1
8	51487	20802.013892661654	2
8	51490	20802.828360879481	3
8	51491	20803.493648918636	2
8	51495	20804.080446130002	3
8	51500	20805.423899057472	4
8	51501	20806.613825013764	3
8	51504	20806.771274493056	2
8	51510	20808.56711327396	3
8	51511	20808.739788859358	2
8	51514	20808.749390208896	1
8	51516	20808.974408244389	0
8	51519	20809.639313364422	1
8	51521	20809.889770465242	0
8	52165	21065.690074048504	1
8	52166	21066.106809236388	0
8	52350	21128.700368992887	1
8	52351	21128.733228223138	0
8	52515	21168.98033499415	1
8	52516	21169.536254412966	0
8	52527	21173.291864738492	1
8	52531	21173.898754635691	0
8	52720	21259.765543461307	1
8	52721	21259.809979607602	0
8	52745	21263.510685191621	1
8	52751	21265.316249010157	0
8	52784	21270.199158534285	1
8	52786	21270.352811018401	0
8	52802	21272.882215114747	1
8	52804	21273.037639627196	0
8	52822	21275.669142554951	1
8	52826	21278.208541572993	0
8	52910	21323.829686561668	1
8	52911	21324.026132321598	0
8	52920	21325.205224084536	1
8	52921	21326.088141397118	0
8	53045	21372.272171633945	1
8	53046	21372.376653093824	0
8	53536	21541.412586304264	1
8	53539	21541.920288462376	2
8	53541	21542.041497777521	1
8	53544	21542.353699484885	2
8	53550	21543.555592475178	3
8	53551	21544.123905415916	2
8	53555	21544.779622335489	3
8	53556	21545.521817317273	2
8	53559	21545.889482188807	1
8	53562	21546.078654348798	2
8	53564	21546.106904046463	1
8	53569	21546.81713903732	2
8	53571	21547.07303286804	1
8	53577	21548.3665780832	2
8	53584	21549.506652700779	1
8	53594	21551.495736827967	0
8	53597	21551.766141903349	1
8	53602	21552.431695950632	2
8	53614	21553.760701524639	3
8	53624	21555.261118341364	4
8	53636	21557.894831186985	3
8	53641	21560.81700260386	2
8	53644	21561.224427885999	1
8	53649	21561.606108885055	2
8	53651	21561.698665290442	1
8	53659	21562.962334432622	2
8	53661	21563.156753836577	1
8	53669	21564.429240043816	2
8	53673	21564.83206607131	1
8	53678	21565.298907385747	0
8	54025	21641.059961960833	1
8	54026	21641.892307498618	0
8	54037	21643.653645461365	1
8	54039	21643.882730628453	0
8	54185	21690.998267812012	1
8	54186	21691.044893260106	0
8	54190	21691.915609064085	1
8	54191	21692.056618820797	0
8	54195	21692.999745352487	1
8	54196	21693.016746441261	0
8	54200	21693.500554300877	1
8	54201	21693.855851607676	0
8	54205	21694.711394213791	1
8	54206	21694.739326909759	0
8	54260	21706.005160294079	1
8	54261	21706.035574219744	0
8	54689	21872.981687648284	1
8	54695	21874.212743972537	2
8	54696	21874.971437633715	1
8	54699	21875.267241406794	0
8	54702	21875.701425781592	1
8	54704	21876.251982997497	0
8	54810	21900.933566271257	1
8	54811	21901.004701575599	0
8	54947	21932.007663938687	1
8	54951	21935.697897136738	0
8	55195	22022.078470112218	1
8	55196	22022.089148115578	0
8	55200	22023.073486385333	1
8	55201	22023.304560867364	0
8	55205	22023.717020157252	1
8	55206	22024.1197272343	0
8	55425	22134.771682492628	1
8	55426	22135.26998885568	0
8	55685	22217.326145069788	1
8	55689	22217.815204217355	0
8	55692	22218.10408182558	1
8	55695	22218.573704241396	2
8	55696	22218.878105212355	1
8	55701	22220.204028220488	0
8	55980	22332.235636581201	1
8	55981	22332.377033252092	0
8	56155	22382.362802858808	1
8	56159	22382.822039737055	0
8	56167	22384.226568513469	1
8	56170	22385.187986045296	2
8	56171	22387.381434305984	1
8	56174	22387.622233122183	0
8	56297	22451.005039685094	1
8	56299	22451.18504409145	0
8	56490	22526.057208023431	1
8	56491	22529.689694836493	0
8	56695	22590.279364266871	1
8	56700	22590.785109494517	2
8	56709	22592.436053552235	1
8	56718	22593.104731796653	0
8	56721	22593.440504128105	1
8	56723	22594.035431031601	0
8	56782	22603.140623375208	1
8	56789	22603.982024770327	0
8	56940	22662.609033665039	1
8	56944	22664.242055629822	0
8	56950	22665.536722554166	1
8	56951	22666.787053122554	0
8	57130	22715.35571608552	1
8	57134	22716.264318511094	0
8	57142	22717.742669558793	1
8	57144	22717.784971049036	0
8	57152	22719.065103730688	1
8	57154	22719.390193513371	0
8	57162	22719.990244044679	1
8	57179	22722.340480756175	0
8	57350	22797.349343786477	1
8	57351	22797.88840773915	0
8	57542	22894.428071489333	1
8	57544	22895.09646160146	0
8	57987	23060.950458819653	1
8	57990	23061.378843499675	2
8	57999	23064.160528742686	3
8	58001	23064.58692325485	2
8	58007	23065.578567232262	3
8	58009	23065.927566899876	2
8	58014	23066.27392215465	1
8	58016	23066.52229681993	0
8	58019	23066.656684557698	1
8	58025	23068.139152417263	2
8	58026	23069.333271736849	1
8	58029	23069.405339551131	0
8	58041	23070.552660767186	1
8	58043	23070.773690387046	0
8	58285	23164.128382875854	1
8	58289	23164.836009856122	0
8	58292	23165.291925243863	1
8	58294	23165.633172006289	0
8	58702	23302.863238746549	1
8	58704	23303.510145273439	0
8	58707	23303.600378603551	1
8	58711	23305.365800349747	0
8	58750	23313.298557686641	1
8	58754	23314.937291993674	0
8	58792	23319.235061204472	1
8	58794	23319.770317089388	0
8	59262	23521.283063789363	1
8	59264	23521.943168172613	0
8	59267	23522.242584157594	1
8	59271	23522.816435701073	0
8	59330	23538.228648382298	1
8	59334	23538.440844631533	0
8	60955	24234.488585718263	1
8	60956	24235.496935072957	0
8	61535	24510.294039613467	1
8	61544	24512.009628485742	0
8	61922	24647.531431412487	1
8	61924	24647.65646047639	0
8	61927	24648.151595455571	1
8	61931	24649.076264740639	0
8	61997	24684.084178522811	1
8	61999	24684.456491074188	0
8	62017	24687.072497380408	1
8	62021	24688.159119719982	0
8	62027	24688.912863296939	1
8	62029	24689.531270671942	0
8	62032	24689.608849992108	1
8	62034	24690.252363896631	0
8	62037	24690.530434010894	1
8	62039	24690.715965394159	0
8	62750	24945.444244075431	1
8	62751	24946.213496708551	0
8	62770	24949.202060501284	1
8	62771	24949.669575529471	0
8	63195	25104.118046759084	1
8	63196	25104.910778607252	0
8	63200	25105.422310337621	1
8	63201	25105.5163645953	0
8	63205	25106.129008802638	1
8	63206	25106.408246240279	0
8	63210	25106.815613108248	1
8	63211	25108.512847262135	0
8	63215	25108.922587685732	1
8	63216	25108.971155016374	0
8	63225	25109.872649829666	1
8	63226	25111.432837755895	0
8	63230	25112.256865719949	1
8	63231	25112.70297738089	0
8	63297	25124.618642896782	1
8	63300	25125.020839147917	2
8	63301	25126.531106199025	1
8	63305	25127.423895876742	2
8	63306	25127.694415364412	1
8	63310	25128.148979269571	2
8	63311	25128.199296137487	1
8	63316	25128.561330786466	0
8	63332	25130.97758988117	1
8	63334	25131.350742765326	0
8	63345	25133.10318836866	1
8	63346	25135.218244236494	0
8	63465	25159.564578434234	1
8	63466	25161.124974344869	0
8	63470	25161.872245693638	1
8	63471	25162.424816906845	0
8	63485	25165.60754991296	1
8	63486	25165.676511044624	0
8	63490	25166.448245636896	1
8	63491	25166.763277760239	0
8	63724	25252.929609879486	1
8	63726	25253.133474317678	0
8	63735	25255.220324093623	1
8	63736	25255.427564580083	0
8	63910	25383.52855629125	1
8	63911	25383.860296603088	0
8	64465	25661.64898964411	1
8	64474	25663.69818698342	0
8	64900	25813.161331154475	1
8	64901	25813.547267936599	0
8	65245	25891.656127943494	1
8	65246	25892.412092513113	0
8	65275	25904.708631689063	1
8	65276	25905.614147372328	0
8	65585	26078.247137877196	1
8	65586	26078.557880799269	0
8	65660	26100.194596065721	1
8	65661	26102.309050126521	0
8	66130	26292.946188029439	1
8	66131	26293.690966908826	0
8	66140	26294.614184476395	1
8	66141	26295.462906639373	0
8	66262	26321.508875030565	1
8	66266	26322.798014071329	0
8	66854	26550.413765629866	1
8	66856	26550.856838396648	0
8	66862	26551.881505223662	1
8	66864	26552.06930001924	0
8	67124	26680.257186591708	1
8	67126	26680.549003793388	0
8	67136	26682.147247788393	1
8	67146	26683.584992627276	0
8	67149	26683.875016875835	1
8	67152	26684.692611085893	2
8	67155	26685.658909015627	3
8	67156	26685.881610998107	2
8	67159	26685.997558284516	1
8	67169	26688.089377336472	0
8	67455	26792.199083144175	1
8	67456	26792.322293002543	0
8	67545	26819.582791842668	1
8	67546	26819.762087507262	0
8	67565	26823.521681297821	1
8	67566	26823.83367883003	0
8	67682	26901.031788695962	1
8	67685	26901.750194774461	2
8	67686	26902.144897539875	1
8	67690	26902.560722286402	2
8	67703	26903.528942926156	1
8	67713	26904.539885418401	2
8	67715	26904.716549032677	1
8	67720	26905.383633241146	0
8	67731	26906.991569403563	1
8	67733	26907.368769601901	0
8	67742	26908.997792059001	1
8	67744	26909.072692948615	0
8	67865	26953.113820220694	1
8	67866	26953.21060811713	0
8	68437	27228.472092446763	1
8	68439	27228.555380130282	0
8	68565	27294.50037567486	1
8	68566	27295.082002724919	0
8	68570	27295.638964164003	1
8	68571	27298.145140267565	0
8	68575	27298.698691427643	1
8	68579	27299.453263175702	0
8	68614	27303.545646867506	1
8	68621	27304.186009281022	0
8	68990	27484.204143631599	1
8	68999	27486.143101624176	0
8	69005	27486.558479313616	1
8	69006	27487.136134389322	0
8	70495	28178.471077875126	1
8	70496	28179.597608938134	0
8	70740	28311.794415061189	1
8	70741	28312.373736064418	0
8	70745	28312.786320349297	1
8	70746	28312.835075896281	0
8	71045	28450.501811713752	1
8	71046	28451.222819436647	0
8	71050	28452.013051528696	1
8	71051	28452.537529448934	0
8	71300	28577.154289546519	1
8	71301	28577.894288370854	0
8	71550	28696.890993020951	1
8	71551	28698.117196462554	0
8	71852	28808.316491356472	1
8	71855	28809.169509719758	2
8	71856	28809.405994788474	1
8	71861	28810.510046430951	0
8	72075	28898.301484025629	1
8	72076	28898.878255902978	0
8	72095	28901.472164644854	1
8	72096	28903.17835938897	0
8	73417	29448.913705395593	1
8	73421	29449.426425371809	0
8	73662	29557.609418244401	1
8	73664	29558.075511474739	0
8	73940	29669.596301933801	1
8	73941	29669.666452467733	0
8	74005	29712.255819410819	1
8	74006	29713.344482136338	0
8	74070	29725.324807158245	1
8	74071	29725.758207799817	0
8	74077	29726.705171229408	1
8	74084	29728.91353010214	0
8	74225	29779.684488742107	1
8	74226	29780.687540744486	0
8	74360	29843.645871168388	1
8	74365	29844.806144689001	2
8	74366	29844.896404358543	1
8	74371	29845.630361140306	0
8	74390	29848.019955602867	1
8	74391	29848.245321017793	0
9	25825	10419.160002768496	1
9	25826	10419.289526970134	0
9	27290	11019.110557167894	1
9	27291	11019.336315872172	0
9	30755	12488.873150916806	1
9	30756	12488.900193775384	0
9	31690	12939.757993187042	1
9	31691	12940.478125530818	0
9	32190	13092.5855331122	1
9	32191	13092.597820251779	0
9	33095	13474.58542695881	1
9	33096	13475.031306911641	0
9	33110	13476.840706619397	1
9	33111	13476.950496041734	0
9	33600	13751.982514910337	1
9	33601	13752.202693965185	0
9	33610	13753.218380262322	1
9	33616	13754.285574592028	0
9	34590	14060.655252559414	1
9	34591	14060.733123063164	0
9	38687	15807.366674012477	1
9	38689	15808.022290967946	0
9	39904	16252.492368138196	1
9	39908	16253.110226963368	0
9	40167	16374.279784833192	1
9	40179	16376.12202382157	0
9	40747	16487.894891149977	1
9	40749	16487.989166983117	0
9	44560	17995.849179546484	1
9	44561	17996.324793257065	0
9	45275	18234.523968852463	1
9	45276	18234.714795707801	0
9	50154	20256.200133718757	1
9	50157	20256.780765474841	2
9	50159	20256.994870372617	1
9	50161	20257.036592459258	0
9	52072	21022.942128233932	1
9	52076	21023.763443437285	0
9	54500	21803.661627167944	1
9	54501	21804.032379383117	0
9	54505	21804.758651678113	1
9	54509	21804.859003818919	0
9	57652	22940.470357692539	1
9	57656	22941.51760298272	0
9	58175	23132.135146696279	1
9	58176	23132.159551076518	0
9	60435	24005.163548639487	1
9	60436	24006.630916670935	0
9	61106	24302.587629395457	1
9	61108	24302.858588788437	0
9	62590	24865.785173607675	1
9	62591	24866.50915299639	0
9	63127	25086.86279670542	1
9	63129	25086.951512614147	0
9	63375	25142.703436979876	1
9	63376	25142.837959106705	0
9	65525	26038.348597528897	1
9	65526	26038.525333599377	0
9	65827	26149.855774337589	1
9	65829	26149.971520286191	0
9	70976	28440.576267070211	1
9	70980	28441.067570685828	0
9	71003	28443.459454308803	1
9	71007	28443.703051190173	0
9	71804	28791.407218436445	1
9	71806	28791.562095865788	0
9	71987	28857.16153562435	1
9	71989	28857.556353611153	0

