version 2
run First_exit_8-15-20191017-13:43:38-1881
attr configname First_exit_8
attr datetime 20191017-13:43:38
attr experiment First_exit_8
attr inifile omnetpp.ini
attr iterationvars ""
attr iterationvarsf ""
attr measurement ""
attr network ResponseTimeNetwork
attr processid 1881
attr repetition 15
attr replication #15
attr resultdir results
attr runnumber 15
attr seedset 15
param **.Source.interArrivalTime exponential(4s)
param **.jobPriority bernoulli(0.4)
param **.PS.serviceTimeU1 "uniform(0.4s, 1.0s)"
param **.PS.serviceTimeU2 "uniform(1s, 1.2s)"
param **.SS1.serviceTime exponential(0.4s)
param **.SS2.serviceTime exponential(0.8s)
param **.PS.exitProbability bernoulli(0.8)

vector 0 ResponseTimeNetwork.SS1 queueLength:vector ETV
attr interpolationmode sample-hold
attr title "queue length, vector"
vector 1 ResponseTimeNetwork.SS2 queueLength:vector ETV
attr interpolationmode sample-hold
attr title "queue length, vector"
vector 2 ResponseTimeNetwork.QueueU1 queueLength:vector ETV
attr interpolationmode sample-hold
attr title "queue length, vector"
vector 3 ResponseTimeNetwork.QueueU2 queueLength:vector ETV
attr interpolationmode sample-hold
attr title "queue length, vector"
vector 4 ResponseTimeNetwork.sink lifeTimeU1:vector ETV
attr interpolationmode none
attr title "lifetime of arrived jobs U1, vector"
attr unit s
vector 5 ResponseTimeNetwork.sink lifeTime:vector ETV
attr interpolationmode none
attr title "lifetime of arrived jobs, vector"
attr unit s
vector 6 ResponseTimeNetwork.sink lifeTimeU2:vector ETV
attr interpolationmode none
attr title "lifetime of arrived jobs U2, vector"
attr unit s
3	0	0	0
3	20	15.564644477041	1
3	21	16.179609564794	0
3	25	16.370325837265	1
3	26	16.729548969222	0
3	32	17.149135018833	1
3	36	18.670793793546	0
3	40	19.286359793071	1
3	41	19.324228203678	0
3	57	20.758648069885	1
3	59	20.998618500437	2
3	66	22.142014320628	3
3	101	27.561280456629	4
3	102	27.703122005868	3
3	111	28.768106564583	4
3	112	28.950731447968	3
3	120	30.042244821577	2
3	131	31.593221108551	3
3	136	31.832300363018	4
3	169	36.607368926432	5
3	224	43.845283623061	6
3	231	45.700431778538	5
3	284	53.143984691823	4
3	300	55.362189002602	5
3	319	58.279102231633	4
3	333	60.144450064796	5
3	334	60.175884856028	4
3	350	62.158832368559	5
3	369	64.629621958152	4
3	372	65.270395056649	3
3	376	65.983684211184	4
3	377	65.992873800478	3
3	380	66.407636648721	2
3	383	67.217449458341	1
3	387	67.269393118715	2
3	388	67.675176236664	1
3	392	68.097399645061	2
3	394	68.13053583231	3
3	395	68.470883854457	2
3	404	69.77318234575	3
3	405	69.917850909547	2
3	409	70.296652840039	3
3	410	70.73249592127	2
3	414	71.092959744251	3
3	415	71.539366106621	2
3	419	71.919058760847	3
3	420	72.004908330717	2
3	424	72.048929204083	3
3	425	72.623920201302	2
3	429	73.265436489161	3
3	430	73.408884376172	2
3	433	73.878117387906	1
3	436	74.37383883542	0
3	450	76.513564809097	1
3	451	77.220693447488	0
3	455	77.277281417003	1
3	457	77.562528709115	2
3	458	78.048923134292	1
3	461	78.823072364834	0
3	465	79.366763752875	1
3	466	79.659023395461	0
3	480	83.767099298692	1
3	481	83.769370919694	0
3	490	85.38463857059	1
3	491	85.96992282703	0
3	505	93.283027014513	1
3	506	93.742330668811	0
3	520	96.303185536309	1
3	521	96.733438694616	0
3	525	96.986826131248	1
3	527	97.1951667682	2
3	528	97.253603717498	1
3	532	97.350192688313	2
3	533	97.714589775959	1
3	537	97.943632116151	2
3	538	98.154458248103	1
3	541	98.60477238195	0
3	550	99.97094525658	1
3	551	100.290500229945	0
3	590	110.607381358545	1
3	591	110.749856161505	0
3	602	111.961458780194	1
3	619	114.263854453744	2
3	633	116.768447579435	1
3	642	118.136578177485	2
3	643	118.67229805206	1
3	651	119.938435763624	0
3	685	128.648850511474	1
3	686	128.983137358332	0
3	695	130.806939986837	1
3	699	130.995135541502	2
3	704	131.431014737061	3
3	705	131.855640117058	2
3	714	132.521379826512	3
3	715	133.305310573827	2
3	724	134.959023062413	3
3	725	135.170760545905	2
3	729	135.419512900634	3
3	736	136.932998540108	4
3	737	136.991439723948	3
3	756	139.553023043013	4
3	758	139.616028450877	5
3	759	140.252196012137	4
3	767	141.970232123488	3
3	771	142.162691866284	4
3	772	142.885025886099	3
3	783	144.193777989002	4
3	790	144.394098317605	5
3	799	146.127216899654	4
3	820	148.560974895771	5
3	844	153.138051164736	4
3	852	154.909832593407	3
3	856	155.490292332318	4
3	857	155.825144987255	3
3	863	156.055464675931	4
3	867	157.164154661987	3
3	873	157.273781847327	4
3	878	158.177017859711	5
3	879	158.695254086405	4
3	888	159.178490578438	5
3	889	159.882373429211	4
3	895	160.276847768165	5
3	900	160.868638115771	6
3	901	161.098371566488	5
3	904	161.624541092553	4
3	908	162.428587037771	5
3	909	162.433952588943	4
3	913	162.468599618745	5
3	914	163.203202495101	4
3	917	164.022228944005	3
3	920	164.579835344694	2
3	924	165.094658438737	3
3	925	165.44301736544	2
3	929	165.80342441547	3
3	930	166.214246477821	2
3	933	166.74419773168	1
3	936	167.392461971595	0
3	940	167.5486833261	1
3	941	167.793328736658	0
3	945	167.871943059455	1
3	946	168.225175950845	0
3	950	168.505712815526	1
3	952	168.722128252578	2
3	953	168.960803191579	1
3	956	169.802492232836	0
3	970	175.887216938978	1
3	971	176.144567029321	0
3	980	177.086949873909	1
3	981	177.134858198887	0
3	995	178.606857527907	1
3	997	178.633698022348	2
3	998	179.511965677659	1
3	1001	180.063051557825	0
3	1010	181.679536081537	1
3	1011	182.558152788887	0
3	1015	182.756564317122	1
3	1016	183.400997645138	0
3	1020	184.273829369575	1
3	1021	184.331569471127	0
3	1025	184.372502436632	1
3	1026	184.86087394367	0
3	1030	184.959219196047	1
3	1031	185.413652675469	0
3	1035	185.820110541061	1
3	1036	186.266336319605	0
3	1040	186.423094459	1
3	1042	186.703079312939	2
3	1043	187.033712853221	1
3	1047	187.347452639411	2
3	1048	187.523029547147	1
3	1051	188.115918523734	0
3	1065	190.572924952866	1
3	1067	190.87877432768	2
3	1068	191.29756664943	1
3	1072	191.699390083189	2
3	1074	191.787919376443	3
3	1075	191.988094554162	2
3	1084	192.800167507579	3
3	1086	193.077974747396	4
3	1087	193.212044765866	3
3	1090	193.780910323393	2
3	1096	194.088715062621	3
3	1101	195.035202338839	4
3	1102	195.19959096035	3
3	1108	195.560078060842	4
3	1112	196.460141668813	3
3	1116	196.886209194718	4
3	1117	196.905330745522	3
3	1126	198.263156994936	4
3	1127	198.538872890007	3
3	1130	199.426295071859	2
3	1133	199.998320159847	1
3	1137	200.848039900479	2
3	1138	200.978114158446	1
3	1142	201.518946854613	2
3	1143	201.69374989613	1
3	1146	202.385162990187	0
3	1155	203.516389297509	1
3	1156	203.73830907592	0
3	1165	204.939506297819	1
3	1166	205.570046397584	0
3	1172	206.067431957968	1
3	1179	206.957147795638	2
3	1184	207.035201407863	3
3	1185	207.903599538706	2
3	1188	208.613787564594	1
3	1204	210.332992890949	2
3	1208	211.171539684204	1
3	1217	212.173103816746	2
3	1218	212.8505580321	1
3	1227	214.411930283006	2
3	1228	214.421859895396	1
3	1236	216.023492218605	0
3	1245	216.947747910285	1
3	1247	217.31626857769	2
3	1248	217.413582478049	1
3	1257	218.126997942243	2
3	1258	218.571990281115	1
3	1267	219.35794058609	2
3	1268	219.52933915202	1
3	1276	220.778430038508	0
3	1290	222.734444754081	1
3	1292	222.73799783291	2
3	1293	223.02939347959	1
3	1296	223.949770913635	0
3	1300	224.284936390702	1
3	1301	224.57540440237	0
3	1305	224.843217777151	1
3	1306	224.983874932014	0
3	1315	226.483880104164	1
3	1317	226.873542284668	2
3	1318	227.147784961378	1
3	1322	227.402549466286	2
3	1323	227.800422898205	1
3	1327	227.839557609368	2
3	1328	228.760327529479	1
3	1331	229.722381214649	0
3	1335	229.725496926243	1
3	1336	230.436744046901	0
3	1340	230.752695443578	1
3	1341	230.849453220042	0
3	1350	232.277608481195	1
3	1351	232.619381314254	0
3	1355	232.748327620575	1
3	1356	233.416660395282	0
3	1385	244.372133745898	1
3	1386	245.044268020376	0
3	1400	247.340690119858	1
3	1401	247.707688170642	0
3	1415	250.247435720959	1
3	1416	250.377327178176	0
3	1420	251.113424725164	1
3	1421	251.161130682276	0
3	1430	251.89909399115	1
3	1432	252.174234666006	2
3	1433	252.763003297192	1
3	1437	253.058314097604	2
3	1438	253.721722291917	1
3	1442	254.121901448742	2
3	1444	254.448350383853	3
3	1445	254.645807829773	2
3	1449	254.813647487981	3
3	1450	255.183709497185	2
3	1454	255.556488394751	3
3	1455	256.171885796258	2
3	1458	256.781044425344	1
3	1461	257.709945422312	0
3	1465	258.024260958983	1
3	1467	258.497690790372	2
3	1468	258.60602894937	1
3	1471	259.248912726895	0
3	1475	259.472721091149	1
3	1476	260.005107182118	0
3	1485	261.303135181962	1
3	1486	261.693885151389	0
3	1495	262.630102945115	1
3	1496	262.730573692183	0
3	1500	262.833672136061	1
3	1501	263.600247416609	0
3	1515	266.411965169673	1
3	1516	266.8749248143	0
3	1520	267.240019328727	1
3	1521	267.748355394061	0
3	1525	267.952399088694	1
3	1526	268.556398911187	0
3	1530	268.781886579923	1
3	1531	269.256643238077	0
3	1535	269.982178874134	1
3	1536	270.120930206562	0
3	1540	270.446338430164	1
3	1541	270.878231328931	0
3	1547	271.416258165889	1
3	1552	271.924778989158	2
3	1554	272.458210662127	3
3	1555	272.519342604531	2
3	1563	273.660034606066	1
3	1571	274.649511127845	0
3	1590	276.867526569707	1
3	1592	277.085425741439	2
3	1593	277.293284204959	1
3	1602	278.235748386131	2
3	1603	278.331534940128	1
3	1612	279.328063839011	2
3	1614	279.460681944875	3
3	1641	282.209492115781	4
3	1647	283.191621773813	3
3	1653	283.507608043107	4
3	1657	284.390039928799	3
3	1668	285.340954748074	4
3	1677	286.884808547358	3
3	1680	287.568702156591	2
3	1686	288.137665019847	3
3	1690	288.864913787069	2
3	1699	290.502413366025	3
3	1700	290.677980983192	2
3	1709	291.230728208116	3
3	1723	292.710360646979	4
3	1737	294.660151451946	3
3	1748	295.766392206771	4
3	1750	295.911532908275	5
3	1809	304.122572382476	6
3	1843	308.250667497227	7
3	1877	312.709860750378	8
3	1953	321.844937238102	9
3	2077	339.308853956039	10
3	2081	339.73692190454	11
3	2106	343.468021169212	12
3	2134	347.159461043661	13
3	2158	351.012894731605	14
3	2165	351.856776621814	15
3	2174	354.056155727784	14
3	2180	354.4388204002	15
3	2182	354.507559853119	16
3	2186	355.658991246092	15
3	2200	357.443702198631	16
3	2201	357.971394485867	15
3	2209	359.500621363081	14
3	2215	359.964165991473	15
3	2220	360.304620259809	16
3	2221	361.068146000502	15
3	2229	362.411359836419	14
3	2235	363.406340935123	15
3	2239	364.01143251809	14
3	2248	365.21700056045	15
3	2249	365.395185778781	14
3	2257	366.599689002267	13
3	2261	367.323064148337	14
3	2262	367.451127245488	13
3	2270	368.483510345711	12
3	2274	368.629955000341	13
3	2275	369.265760453769	12
3	2279	369.311836267026	13
3	2281	369.78652820402	14
3	2282	369.862099888294	13
3	2291	371.227798158033	14
3	2292	371.750430720837	13
3	2300	373.083815868364	12
3	2303	373.567757634052	11
3	2307	373.762405536388	12
3	2308	374.058524691292	11
3	2311	374.917940542593	10
3	2314	375.341144146144	9
3	2318	375.604669548911	10
3	2319	375.746792673112	9
3	2323	376.050262465794	10
3	2325	376.175621816427	11
3	2326	376.495519643861	10
3	2330	376.592418649017	11
3	2332	376.777669328773	12
3	2333	376.900283916786	11
3	2342	377.507027889789	12
3	2344	378.064470617558	13
3	2345	378.145184640566	12
3	2364	381.327245584157	13
3	2365	381.57364150903	12
3	2373	383.236853930846	11
3	2381	384.227805810075	10
3	2387	384.571429688086	11
3	2392	385.623479002246	12
3	2393	385.691414674444	11
3	2401	387.177571931786	10
3	2407	387.588261237363	11
3	2409	387.699917283798	12
3	2414	388.03912373639	13
3	2415	388.563802385728	12
3	2419	389.08710390762	13
3	2420	389.111561826456	12
3	2424	389.664339272074	13
3	2425	389.911337740652	12
3	2429	390.246387287087	13
3	2430	390.909140005082	12
3	2433	391.644041678103	11
3	2437	391.78179314465	12
3	2438	392.272739966007	11
3	2442	392.683802811002	12
3	2443	393.242186575269	11
3	2449	393.796377942839	12
3	2453	394.640604612303	11
3	2459	395.359757000389	12
3	2461	395.491807244464	13
3	2465	396.286919884688	12
3	2476	396.919831206285	13
3	2480	398.163816010185	12
3	2494	399.69167829281	13
3	2495	400.161485094369	12
3	2504	401.436537377613	13
3	2545	407.06518384407	12
3	2578	411.156461458127	13
3	2591	413.333307091028	14
3	2598	414.13313589987	15
3	2605	415.510996951247	16
3	2606	415.565964412808	15
3	2609	416.44001433796	14
3	2617	417.763566648613	13
3	2631	419.164116433801	14
3	2633	419.470039768304	15
3	2634	419.567804243255	14
3	2638	419.679761265212	15
3	2645	420.647882453846	16
3	2647	420.961241547981	17
3	2648	421.2670959153	16
3	2651	421.68243982082	15
3	2657	421.906528034697	16
3	2661	422.9784300091	15
3	2667	423.773407456023	16
3	2672	424.513766910443	17
3	2673	424.602890515446	16
3	2682	425.512468659103	17
3	2683	426.137314725273	16
3	2686	426.844304739662	15
3	2692	427.641955349486	16
3	2697	428.235145462603	17
3	2698	428.419840365114	16
3	2702	429.173577977761	17
3	2704	429.206370177662	18
3	2705	429.345932711359	17
3	2708	429.922387649003	16
3	2711	430.906881438825	15
3	2714	431.903467454599	14
3	2717	432.507632755279	13
3	2721	432.707215962482	14
3	2722	433.165188697656	13
3	2726	433.651679039198	14
3	2727	433.714337027283	13
3	2731	434.077505582227	14
3	2732	434.2214438061	13
3	2736	434.982102130368	14
3	2737	435.090029953304	13
3	2746	435.938420077494	14
3	2748	436.306178143023	15
3	2749	436.625790801482	14
3	2753	436.840874963467	15
3	2759	438.082830741095	14
3	2768	439.710899685663	15
3	2770	439.748159645918	16
3	2771	439.949295041223	15
3	2777	440.107108979636	16
3	2782	440.984052597137	17
3	2783	441.116117091269	16
3	2786	441.618447992277	15
3	2795	442.759538549204	16
3	2796	443.371287956486	15
3	2799	444.019643747598	14
3	2805	444.392169597392	15
3	2810	444.735566829996	16
3	2811	445.239041461726	15
3	2820	446.008101790159	16
3	2821	446.59372981044	15
3	2824	447.08418075412	14
3	2827	447.71894816088	13
3	2831	448.261316475598	14
3	2832	448.55218803545	13
3	2835	449.216923054284	12
3	2838	449.788638612139	11
3	2841	450.19970101763	10
3	2845	450.410545225286	11
3	2846	450.768013589713	10
3	2849	451.348262382648	9
3	2853	451.978613325676	10
3	2854	452.007099888683	9
3	2858	452.7590488932	10
3	2859	452.768044069619	9
3	2862	453.213677219558	8
3	2866	453.220482843107	9
3	2867	453.90443322633	8
3	2871	454.258546081599	9
3	2872	454.759582396947	8
3	2876	454.858068237778	9
3	2878	455.126155849017	10
3	2879	455.688057894703	9
3	2882	456.142001828203	8
3	2886	456.199537948535	9
3	2888	456.614819125325	10
3	2889	456.709293866694	9
3	2893	456.856602779296	10
3	2894	457.320073686052	9
3	2897	457.814081592044	8
3	2900	458.630601698091	7
3	2904	458.767464500889	8
3	2906	459.027103515707	9
3	2908	459.31781035235	10
3	2909	459.418524266524	9
3	2913	459.983800585403	10
3	2914	460.171720439965	9
3	2917	460.983669897566	8
3	2921	461.532073262781	9
3	2922	461.8564918665	8
3	2925	462.525709282399	7
3	2929	462.959545784239	8
3	2931	462.987258237036	9
3	2932	463.154433480442	8
3	2936	463.411836420853	9
3	2938	463.671342151232	10
3	2939	463.984136690177	9
3	2942	464.467278391892	8
3	2946	464.592415622018	9
3	2948	464.844409958972	10
3	2949	464.932353527589	9
3	2953	465.111298738921	10
3	2954	465.822141293181	9
3	2958	466.154188953182	10
3	2959	466.403653423745	9
3	2963	466.608329151547	10
3	2964	466.806743429113	9
3	2967	467.339054685622	8
3	2971	467.360108143801	9
3	2972	468.128601083789	8
3	2976	468.436895783738	9
3	2982	469.941873630952	8
3	2990	471.564338316467	7
3	2994	471.961094399402	8
3	2995	472.023075285951	7
3	2999	472.462056129403	8
3	3000	472.505779802405	7
3	3003	473.47565880262	6
3	3007	474.268317171135	7
3	3009	474.285938041081	8
3	3015	475.054521417503	7
3	3021	475.568677027699	8
3	3025	476.11490415896	7
3	3031	476.491399694651	8
3	3036	477.312036687261	9
3	3038	477.447354918619	10
3	3039	477.551137255809	9
3	3053	479.594613041123	10
3	3055	479.596972058588	11
3	3056	479.98244353689	10
3	3064	481.369389601264	9
3	3073	482.372033418344	10
3	3074	482.666129811739	9
3	3082	484.517281636388	8
3	3085	485.083552952834	7
3	3093	486.466374819797	6
3	3102	487.069294743794	7
3	3104	487.150565774648	8
3	3106	487.423562431032	9
3	3107	487.530829237659	8
3	3121	489.012294396464	9
3	3123	489.016326255017	10
3	3129	490.113170763642	9
3	3133	490.461232295167	10
3	3139	491.411126142765	9
3	3147	492.159748682956	10
3	3154	493.145217602958	9
3	3165	494.113379940437	10
3	3189	498.617914615084	9
3	3195	499.192710767051	10
3	3207	500.662862595418	11
3	3211	502.223840774387	10
3	3257	507.662083452433	11
3	3301	515.520578427498	10
3	3310	516.61512667657	11
3	3311	516.872388157832	10
3	3320	517.991174115693	11
3	3321	518.176285805485	10
3	3324	518.817350772188	9
3	3327	519.274204149355	8
3	3331	519.331421061223	9
3	3332	519.779352782459	8
3	3336	520.086277913889	9
3	3337	520.403126929679	8
3	3340	521.145844187752	7
3	3343	521.575721586381	6
3	3347	522.257278881557	7
3	3348	522.486751136162	6
3	3352	522.665264978702	7
3	3354	522.712932705975	8
3	3355	523.281953823079	7
3	3358	524.067665550277	6
3	3362	524.44135828375	7
3	3363	524.605443461683	6
3	3374	525.652761414652	7
3	3379	526.241819126072	8
3	3390	528.481371620275	7
3	3393	529.18392176123	6
3	3397	529.753166130661	7
3	3398	529.790067050863	6
3	3407	531.31921748269	7
3	3408	531.351552998951	6
3	3412	532.106364051231	7
3	3413	532.245299379273	6
3	3417	532.307035638241	7
3	3418	533.01217362357	6
3	3421	533.809172538507	5
3	3425	534.512119668461	6
3	3426	534.728699228239	5
3	3430	534.945025180561	6
3	3431	535.155870091754	5
3	3435	535.62272072755	6
3	3436	536.146432119493	5
3	3442	536.506671301041	6
3	3447	537.178721235837	7
3	3448	537.717492491917	6
3	3457	538.495190899506	7
3	3479	541.637259257121	8
3	3496	544.016871771619	9
3	3505	545.170118789147	10
3	3512	545.804511522792	11
3	3541	550.458229242291	10
3	3549	552.051217893956	9
3	3553	552.20406144855	10
3	3554	552.534838387862	9
3	3562	553.85590043187	8
3	3566	553.893114379841	9
3	3570	554.069902438875	10
3	3575	555.235347716162	11
3	3576	555.345776819139	10
3	3584	556.259262387901	9
3	3587	556.669921495607	8
3	3591	556.769163749314	9
3	3592	557.49443892369	8
3	3601	559.034701798292	9
3	3602	559.341229350054	8
3	3605	560.00187054051	7
3	3609	560.049419794347	8
3	3610	560.524363023023	7
3	3613	561.11357454772	6
3	3622	561.797534487703	7
3	3623	562.306652077826	6
3	3629	562.557396012363	7
3	3631	562.596482838574	8
3	3633	562.848158536911	9
3	3637	563.776090591753	8
3	3641	563.855913406843	9
3	3648	564.973242520401	10
3	3649	565.505980511268	9
3	3657	567.269935684444	8
3	3665	568.643087348879	7
3	3669	568.731866557492	8
3	3673	569.256223290686	9
3	3677	570.553326546659	8
3	3680	571.197097619881	7
3	3686	571.741992620334	8
3	3690	572.9468131847	7
3	3693	573.395072236124	6
3	3696	574.148084853289	5
3	3705	575.205166171264	6
3	3706	575.600604209981	5
3	3710	575.917417130554	6
3	3716	577.245928960459	5
3	3724	578.489735243775	4
3	3730	578.629931053706	5
3	3734	580.007073633678	4
3	3737	580.823727821538	3
3	3741	581.292474227629	4
3	3742	581.635280527899	3
3	3745	582.316180688076	2
3	3749	582.831805467142	3
3	3751	583.175288654131	4
3	3752	583.288129965429	3
3	3756	583.418265365487	4
3	3757	583.84957852045	3
3	3760	584.591131461485	2
3	3764	584.680946177409	3
3	3768	585.206551138839	4
3	3770	585.307404540255	5
3	3774	585.884137307506	4
3	3777	586.650613540623	3
3	3781	587.105697984635	4
3	3782	587.159786406604	3
3	3791	588.142681737434	4
3	3793	588.142816760948	5
3	3795	588.897279025438	6
3	3796	588.986792947144	5
3	3800	589.088117333003	6
3	3802	589.395062351252	7
3	3808	590.39110816226	6
3	3811	591.210613057601	5
3	3817	591.501634649624	6
3	3822	592.258918717607	7
3	3824	592.290402788276	8
3	3826	592.548643555763	9
3	3827	592.562027542924	8
3	3833	592.922150420828	9
3	3868	597.179900697386	10
3	3879	599.212588837118	9
3	3882	599.823831480722	8
3	3890	601.061844605653	7
3	3894	601.583378431693	8
3	3895	601.758099068821	7
3	3901	602.058342186508	8
3	3903	602.141944037819	9
3	3908	602.223513312935	10
3	3909	602.985303186047	9
3	3915	603.746627755173	10
3	3919	604.216876225573	9
3	3922	605.100199343431	8
3	3926	606.049504366452	9
3	3927	606.059477455802	8
3	3930	606.496863907138	7
3	3934	606.71765564053	8
3	3935	607.096134931157	7
3	3939	607.721444667859	8
3	3941	607.750168781187	9
3	3942	607.92297637363	8
3	3945	608.508449785067	7
3	3948	609.327492819522	6
3	3952	609.742719315187	7
3	3953	610.03712877485	6
3	3957	610.089195315322	7
3	3958	610.602664833544	6
3	3961	611.414829866849	5
3	3965	611.424449518306	6
3	3967	611.792702550602	7
3	3968	612.093649522429	6
3	3972	612.105627461971	7
3	3976	612.367595188849	8
3	3981	613.453265887871	9
3	3982	614.00310360061	8
3	3985	614.639873888697	7
3	3988	615.44923302236	6
3	3992	615.624513861254	7
3	3994	615.940174277532	8
3	3996	616.169049283828	9
3	3997	616.28800772883	8
3	4001	616.619893181571	9
3	4002	616.728227796527	8
3	4006	616.934371522697	9
3	4008	617.049074625046	10
3	4009	617.236905062506	9
3	4013	617.433301439459	10
3	4014	618.076985236006	9
3	4018	618.376732552057	10
3	4024	619.861534894891	9
3	4027	620.345429181149	8
3	4035	621.963375915103	7
3	4044	623.413796966969	8
3	4046	623.682710553458	9
3	4047	623.729691827418	8
3	4053	623.849459764649	9
3	4057	625.44327449615	8
3	4061	625.909307569365	9
3	4065	626.233106450152	10
3	4070	626.556781568446	11
3	4072	626.992245151285	12
3	4074	627.152401292958	13
3	4075	627.321052105239	12
3	4078	628.103494846056	11
3	4084	628.323852183215	12
3	4086	628.786713842611	13
3	4103	631.367624002903	14
3	4107	631.821070568616	13
3	4123	633.829057896522	14
3	4147	637.522507898117	13
3	4155	638.87087361494	12
3	4161	639.589443897161	13
3	4165	640.69492369241	12
3	4169	640.744148694887	13
3	4170	641.455143738519	12
3	4173	641.899532745387	11
3	4176	642.75559397743	10
3	4180	642.848827002734	11
3	4181	643.753222424517	10
3	4185	644.013312109834	11
3	4187	644.131239901006	12
3	4188	644.55174021379	11
3	4191	645.258884828472	10
3	4195	645.315772107809	11
3	4197	645.349460331618	12
3	4198	645.76563988489	11
3	4201	646.670526477116	10
3	4205	647.308236740677	11
3	4206	647.495968412774	10
3	4209	648.382073842062	9
3	4213	648.506936761375	10
3	4214	649.113555837309	9
3	4218	650.06590583376	10
3	4219	650.076131201655	9
3	4222	650.719844019952	8
3	4225	651.335690355561	7
3	4229	651.990665012744	8
3	4231	652.072646290774	9
3	4232	652.078767870208	8
3	4236	652.392053378362	9
3	4237	652.828340984443	8
3	4241	653.049039923595	9
3	4243	653.271612438117	10
3	4245	653.394836593261	11
3	4246	653.489937794143	10
3	4249	654.434549610531	9
3	4253	654.784344873646	10
3	4254	655.123074381221	9
3	4257	655.903712221263	8
3	4261	656.085555373532	9
3	4263	656.132933001727	10
3	4264	656.315794323273	9
3	4268	656.351735956723	10
3	4270	656.554961774285	11
3	4272	656.887753367059	12
3	4273	657.287716638139	11
3	4276	657.968970562267	10
3	4279	658.681505491846	9
3	4282	659.251041781139	8
3	4285	659.945236005616	7
3	4289	660.251389519076	8
3	4290	660.630790620139	7
3	4294	660.782840237729	8
3	4295	661.472390320646	7
3	4299	661.538225448521	8
3	4303	661.815408266151	9
3	4307	663.010818398679	8
3	4310	663.60463887265	7
3	4314	664.037579710007	8
3	4316	664.32735348778	9
3	4317	664.350912612612	8
3	4320	665.237691761396	7
3	4324	665.891393624227	8
3	4325	666.224108968751	7
3	4329	666.258867355286	8
3	4331	666.510634849156	9
3	4333	666.697894331452	10
3	4334	666.72472230157	9
3	4337	667.408514029888	8
3	4341	667.799292510004	9
3	4342	667.961851873325	8
3	4346	668.0505121036	9
3	4347	668.500601780956	8
3	4351	668.601719185554	9
3	4352	668.990092471877	8
3	4356	669.111379291393	9
3	4358	669.203209058828	10
3	4359	669.433359323379	9
3	4362	669.836114711997	8
3	4365	670.476754789411	7
3	4371	670.872117170868	8
3	4373	670.874973953487	9
3	4377	671.744532391553	8
3	4388	672.427031182147	9
3	4397	674.637705776266	8
3	4403	675.194312262721	9
3	4405	675.210744595193	10
3	4414	676.569235776955	9
3	4423	677.672926129735	10
3	4424	678.395978449596	9
3	4427	679.180259182103	8
3	4436	680.959812779616	9
3	4437	681.098347752945	8
3	4443	681.763398120173	9
3	4450	682.43078928813	10
3	4457	683.450443555006	11
3	4479	686.561810189949	12
3	4498	688.634187722936	11
3	4501	689.131275981137	10
3	4505	689.407559157669	11
3	4506	689.935549681153	10
3	4512	690.620388108267	11
3	4517	690.692479883698	12
3	4518	691.620942063801	11
3	4526	692.787133244317	10
3	4529	693.7142823228	9
3	4533	694.045941431685	10
3	4534	694.154571145153	9
3	4537	694.618425515466	8
3	4541	694.963900390341	9
3	4542	695.612345948987	8
3	4546	696.131932449395	9
3	4547	696.302195325665	8
3	4550	696.954341822289	7
3	4554	697.036537029098	8
3	4556	697.657286244566	9
3	4557	697.810108189875	8
3	4560	698.583755931429	7
3	4563	699.24808583137	6
3	4566	700.210147338392	5
3	4570	700.220133389547	6
3	4571	700.687748456824	5
3	4574	701.572366631528	4
3	4577	702.095795697843	3
3	4581	702.129442785771	4
3	4582	702.627393512878	3
3	4585	703.261086358115	2
3	4589	703.533057751359	3
3	4590	703.670239479359	2
3	4594	703.814562333003	3
3	4596	704.379379955224	4
3	4597	704.397729946239	3
3	4600	704.898650639676	2
3	4604	705.480551097205	3
3	4605	705.625427618562	2
3	4609	706.090969813593	3
3	4610	706.180496348333	2
3	4614	706.639414736877	3
3	4615	707.133712537991	2
3	4619	707.433091425977	3
3	4620	707.637771333693	2
3	4624	707.742606520271	3
3	4626	708.230389134742	4
3	4627	708.271094612576	3
3	4631	708.558503619946	4
3	4632	708.743260602824	3
3	4636	709.526867530782	4
3	4637	709.687952674118	3
3	4640	710.285700008118	2
3	4644	710.366190593408	3
3	4645	710.759268430186	2
3	4649	710.850594328327	3
3	4650	711.571175236472	2
3	4654	711.898827924611	3
3	4655	712.052638083774	2
3	4659	712.115845211596	3
3	4661	712.355849990583	4
3	4663	712.710611572801	5
3	4664	712.754137536262	4
3	4667	713.260557263468	3
3	4671	713.56201200145	4
3	4673	713.760947918784	5
3	4674	714.154039560475	4
3	4678	714.416137106094	5
3	4679	714.594715123421	4
3	4682	715.454682257522	3
3	4685	716.116263803078	2
3	4689	716.164915711891	3
3	4691	716.403032047941	4
3	4692	716.632785711514	3
3	4695	717.244404697122	2
3	4698	717.779801523436	1
3	4702	718.058413638372	2
3	4703	718.377897883516	1
3	4706	718.941455222836	0
3	4710	719.01433247873	1
3	4712	719.220108981434	2
3	4713	719.815040725034	1
3	4716	720.364917013871	0
3	4720	720.512944745391	1
3	4721	720.788916987211	0
3	4725	720.805567102775	1
3	4726	721.357047643357	0
3	4745	724.168788932445	1
3	4746	724.664465987662	0
3	4755	725.927216378926	1
3	4756	726.335681537616	0
3	4780	736.381555486524	1
3	4782	737.078029286318	2
3	4783	737.25774537332	1
3	4787	737.85894761867	2
3	4788	738.212054541219	1
3	4792	738.238959776641	2
3	4793	738.789675708372	1
3	4796	739.59089272332	0
3	4800	739.65975656278	1
3	4802	739.748014740378	2
3	4804	739.988562155246	3
3	4805	740.513260382298	2
3	4809	741.024087591868	3
3	4810	741.366063051276	2
3	4813	742.126477804525	1
3	4816	742.872563522194	0
3	4820	742.920906792054	1
3	4822	743.244460382287	2
3	4823	743.424739235292	1
3	4826	744.405122922153	0
3	4830	744.719930073395	1
3	4832	745.029969693	2
3	4833	745.065789929709	1
3	4837	745.226037977685	2
3	4838	745.916638619617	1
3	4841	746.359101003293	0
3	4852	747.720801344448	1
3	4856	748.678380097378	0
3	4885	753.904119781439	1
3	4886	754.469282411698	0
3	4890	754.777405973265	1
3	4891	754.877391161637	0
3	4900	756.00582681786	1
3	4901	756.217396866434	0
3	4910	757.680780629606	1
3	4911	758.232962471257	0
3	4915	758.821287031639	1
3	4916	758.909550287119	0
3	4925	761.294162973749	1
3	4926	762.028214939039	0
3	4940	766.989751840065	1
3	4941	767.474117334386	0
3	4947	768.184494488312	1
3	4952	768.270266107749	2
3	4954	768.791053401878	3
3	4955	768.929777558533	2
3	4964	770.503794417698	3
3	4965	770.779948829593	2
3	4969	770.807519180346	3
3	4970	771.465265998211	2
3	4973	772.07188676611	1
3	4976	772.577845858423	0
3	4982	772.620481050659	1
3	4984	772.9154602272	2
3	4989	773.964700624798	3
3	4990	774.148917148275	2
3	4999	774.921575569105	3
3	5000	775.581888537029	2
3	5003	776.354675686373	1
3	5007	776.715158082574	2
3	5008	776.843465242968	1
3	5012	777.001974976188	2
3	5013	777.253532404187	1
3	5017	777.496376812329	2
3	5018	778.012881937963	1
3	5022	778.351216145722	2
3	5024	778.371460797161	3
3	5025	779.008118949984	2
3	5028	779.41862435482	1
3	5031	779.819629904502	0
3	5040	780.98085127417	1
3	5042	781.328937505306	2
3	5043	781.713683546668	1
3	5047	782.064036765027	2
3	5048	782.211972710311	1
3	5057	782.747983349768	2
3	5058	783.155589935191	1
3	5062	783.172149771159	2
3	5079	785.694735235523	3
3	5080	786.455811534643	2
3	5088	788.052119450837	1
3	5097	789.151056657149	2
3	5098	789.828973303184	1
3	5106	790.972134321703	0
3	5135	795.370728055297	1
3	5136	796.13935710331	0
3	5145	800.796260476489	1
3	5146	801.054222536264	0
3	5160	802.514181301794	1
3	5161	802.79866518293	0
3	5167	803.606810186967	1
3	5171	804.540443442654	0
3	5177	804.857389458244	1
3	5182	805.513615430957	2
3	5183	806.284833544199	1
3	5186	806.736006958908	0
3	5195	807.497542486267	1
3	5196	808.204644561932	0
3	5200	808.87538741455	1
3	5201	809.054723410216	0
3	5207	809.729098099834	1
3	5212	810.91091717756	2
3	5213	810.919684192074	1
3	5222	812.204972781926	2
3	5223	812.363407982188	1
3	5231	813.946949193814	0
3	5240	814.734553651492	1
3	5241	815.657419539105	0
3	5300	830.912865413226	1
3	5301	831.568092081977	0
3	5350	849.825170133051	1
3	5351	849.946337890199	0
3	5400	868.916648873221	1
3	5402	869.044040507091	2
3	5403	869.12984102844	1
3	5407	869.254865609197	2
3	5408	869.763048848284	1
3	5412	870.050184302801	2
3	5413	870.62159415554	1
3	5417	871.043014385443	2
3	5418	871.344230220986	1
3	5422	871.789996220291	2
3	5423	872.08599132044	1
3	5431	873.670554055699	0
3	5450	877.068096781999	1
3	5451	877.157337877146	0
3	5460	878.380259023458	1
3	5461	878.593499324788	0
3	5470	879.538166855176	1
3	5471	879.823962248993	0
3	5480	881.02914856095	1
3	5481	881.119343444789	0
3	5495	884.112711517768	1
3	5502	884.820284444783	2
3	5503	885.054475326886	1
3	5506	885.69020047868	0
3	5527	888.300465591363	1
3	5532	889.319620855285	2
3	5533	889.472107866957	1
3	5539	890.112453468945	2
3	5543	891.133392444198	1
3	5547	891.258562529331	2
3	5564	893.181414202478	3
3	5615	899.536626761463	4
3	5622	901.199729885757	3
3	5625	901.818368617203	2
3	5629	902.327121537309	3
3	5636	902.884727425218	4
3	5637	903.436271047629	3
3	5646	904.134359458805	4
3	5647	904.817620043214	3
3	5650	905.692940452266	2
3	5654	905.930205228286	3
3	5655	906.350056822076	2
3	5659	906.544420466357	3
3	5660	906.971972791608	2
3	5664	907.245843541919	3
3	5665	907.802646684683	2
3	5669	907.856193613953	3
3	5670	908.604890123745	2
3	5674	908.786514399209	3
3	5675	909.468677740767	2
3	5678	910.317691315794	1
3	5682	910.622348758808	2
3	5683	910.922455743318	1
3	5686	911.520338308429	0
3	5690	911.545203907597	1
3	5691	911.940786161264	0
3	5695	912.315146123611	1
3	5696	912.492735439483	0
3	5700	913.140321685759	1
3	5701	913.342046523597	0
3	5705	914.139397864833	1
3	5706	914.256886647073	0
3	5710	914.687334129959	1
3	5711	915.167888887077	0
3	5720	916.673826934481	1
3	5721	917.147182411764	0
3	5725	917.625332355443	1
3	5732	918.04757330881	2
3	5733	918.588200969592	1
3	5742	919.592637122936	2
3	5764	922.750436214476	3
3	5765	923.283217880612	2
3	5773	924.613409330526	1
3	5776	925.028493371483	0
3	5780	925.135456400053	1
3	5787	926.248908439923	2
3	5803	928.668788216978	1
3	5819	931.12338070398	2
3	5833	932.757860807857	1
3	5836	933.324712101292	0
3	5847	934.090231234637	1
3	5854	934.920021132857	2
3	5878	938.547817630941	1
3	5896	941.509146147189	0
3	5912	943.35812786946	1
3	5924	944.375124505854	2
3	5934	945.378781903509	3
3	5935	946.314840706964	2
3	5941	946.840125204786	3
3	5945	947.393949491545	2
3	5951	947.888877948872	3
3	5955	949.112302003955	2
3	5964	950.15633875743	3
3	5966	950.245502056631	4
3	5967	950.286374824788	3
3	5978	951.325967831431	4
3	6010	955.834899604241	5
3	6014	957.465919382978	4
3	6025	958.306162996644	5
3	6029	959.51977523143	4
3	6038	960.204121210307	5
3	6039	960.920963602574	4
3	6048	961.904934952192	5
3	6050	962.48054067922	6
3	6051	962.601570045776	5
3	6059	963.779467179501	4
3	6062	964.551739358963	3
3	6066	964.967938931369	4
3	6067	965.401298349039	3
3	6070	965.882403031192	2
3	6074	966.011992991488	3
3	6075	966.708756979243	2
3	6083	967.935481237681	1
3	6089	968.396598017389	2
3	6091	968.608224028618	3
3	6096	969.080424386306	4
3	6097	969.4642778095	3
3	6105	970.73132858315	2
3	6109	971.027777257604	3
3	6110	971.402438738816	2
3	6113	971.863150730975	1
3	6116	972.408249820316	0
3	6120	972.475621559356	1
3	6122	972.710192445355	2
3	6124	972.856427980295	3
3	6125	972.958894956125	2
3	6129	973.29438185536	3
3	6130	973.61924428536	2
3	6133	974.618285854546	1
3	6137	974.748635853586	2
3	6138	975.069538250252	1
3	6141	975.732388030284	0
3	6145	976.016125726724	1
3	6147	976.24300006103	2
3	6149	976.380921530759	3
3	6151	976.408608425134	4
3	6153	976.478030338701	5
3	6154	976.545200062974	4
3	6157	977.020446793654	3
3	6160	977.444582128583	2
3	6163	978.339109503909	1
3	6166	979.279739718757	0
3	6175	981.170582297705	1
3	6176	981.695443504586	0
3	6180	981.822147763557	1
3	6182	981.937243038806	2
3	6184	982.354071007438	3
3	6185	982.608726978724	2
3	6189	982.680597938558	3
3	6191	983.293515978512	4
3	6193	983.520674730445	5
3	6194	983.589809844413	4
3	6198	983.61954637622	5
3	6199	984.176524564999	4
3	6203	984.417166215447	5
3	6205	984.665187559197	6
3	6206	984.960717862801	5
3	6210	985.142532820813	6
3	6211	985.884641969533	5
3	6215	986.541026563614	6
3	6216	986.768657937044	5
3	6219	987.442652062237	4
3	6223	987.999335343784	5
3	6224	988.127416074978	4
3	6227	989.120691783683	3
3	6231	989.893524205342	4
3	6232	990.056601840121	3
3	6236	990.537229947596	4
3	6237	990.625624627344	3
3	6240	991.035917987492	2
3	6244	991.492911187641	3
3	6246	991.746098186821	4
3	6247	991.856576376598	3
3	6251	991.879642489345	4
3	6253	992.391087729744	5
3	6255	992.670185501129	6
3	6256	992.685909498905	5
3	6260	992.802173706325	6
3	6262	993.168755494389	7
3	6263	993.6814083064	6
3	6267	994.08250174754	7
3	6269	994.091511676014	8
3	6270	994.549193844388	7
3	6273	995.036445561613	6
3	6277	995.04045290652	7
3	6279	995.438143010772	8
3	6280	995.909379306858	7
3	6283	996.311100687276	6
3	6287	997.22040046706	7
3	6288	997.277441082246	6
3	6291	997.897843735203	5
3	6295	998.058327940974	6
3	6296	998.685460460143	5
3	6299	999.500729217198	4
3	6303	999.53969198104	5
3	6305	999.679625225735	6
3	6306	1000.401709003099	5
3	6309	1001.276595234456	4
3	6313	1001.600279585104	5
3	6315	1001.69690146901	6
3	6316	1001.901858200044	5
3	6319	1002.43408767628	4
3	6323	1002.954382500304	5
3	6325	1002.965798063344	6
3	6326	1003.161128836549	5
3	6329	1003.963331759027	4
3	6332	1004.536865409235	3
3	6335	1004.956784641561	2
3	6339	1005.530754601124	3
3	6341	1005.576110436095	4
3	6342	1005.597379569574	3
3	6346	1006.054757417272	4
3	6347	1006.056964819371	3
3	6351	1006.078520598117	4
3	6352	1006.666222937596	3
3	6355	1007.444099055375	2
3	6358	1008.029157284326	1
3	6361	1008.6534189852	0
3	6380	1012.363532265993	1
3	6381	1012.923341922317	0
3	6387	1013.295667683334	1
3	6392	1013.817311854209	2
3	6394	1013.911653310319	3
3	6395	1014.498415411398	2
3	6404	1015.194127726745	3
3	6406	1015.285542660908	4
3	6407	1015.794342813496	3
3	6411	1015.865606686414	4
3	6417	1017.478886988055	3
3	6425	1018.67723883157	2
3	6429	1018.826151437518	3
3	6430	1019.156950657809	2
3	6434	1019.22529441043	3
3	6435	1019.717186924903	2
3	6439	1019.923897375175	3
3	6440	1020.236220693862	2
3	6443	1021.223216394748	1
3	6446	1021.882971699763	0
3	6450	1021.894507014612	1
3	6452	1022.336620826668	2
3	6453	1022.559320263419	1
3	6456	1022.999759128265	0
3	6465	1024.995116970354	1
3	6466	1025.31917930065	0
3	6472	1026.153678425744	1
3	6477	1026.718128025492	2
3	6478	1026.734447895468	1
3	6486	1028.193427869736	0
3	6490	1028.462119487823	1
3	6497	1029.479109411895	2
3	6498	1030.037777351228	1
3	6507	1030.714162810586	2
3	6508	1031.158735498519	1
3	6517	1032.531061329393	2
3	6518	1032.761458374944	1
3	6526	1034.260533663456	0
3	6530	1034.332948804834	1
3	6532	1034.628522459734	2
3	6533	1035.026399475674	1
3	6539	1035.327833045873	2
3	6543	1036.778388370632	1
3	6551	1038.511070352665	0
3	6555	1038.540467669335	1
3	6557	1038.677800271316	2
3	6564	1040.158330165607	3
3	6565	1040.170916840492	2
3	6574	1041.249751503299	3
3	6575	1041.889471779356	2
3	6598	1045.583424573962	1
3	6606	1046.68128111345	0
3	6612	1047.224065913269	1
3	6617	1047.969769744655	2
3	6618	1048.462519545632	1
3	6621	1048.926217072795	0
3	6630	1049.816380452513	1
3	6637	1050.570970258456	2
3	6638	1051.239311167269	1
3	6644	1051.567562163449	2
3	6648	1052.647162447076	1
3	6657	1053.470802358816	2
3	6658	1054.11576277823	1
3	6667	1055.108172401944	2
3	6668	1055.646620017894	1
3	6676	1056.886535089276	0
3	6690	1058.781109014619	1
3	6691	1058.933750560741	0
3	6700	1059.718476039038	1
3	6701	1060.255647461583	0
3	6710	1060.906399704354	1
3	6712	1061.090152353771	2
3	6713	1061.334463390988	1
3	6716	1061.778327210574	0
3	6760	1082.623341405674	1
3	6761	1082.744029940754	0
3	6765	1083.036825978634	1
3	6771	1083.953734912719	0
3	6780	1085.537276198902	1
3	6781	1085.666277195139	0
3	6835	1098.094360593456	1
3	6836	1098.717819067051	0
3	6840	1099.205177151989	1
3	6842	1099.379406114131	2
3	6843	1099.459816150886	1
3	6847	1099.600524858071	2
3	6848	1100.378184427234	1
3	6851	1100.90046291487	0
3	6860	1102.014504330274	1
3	6862	1102.161509729182	2
3	6863	1102.474938996159	1
3	6876	1104.569991086633	0
3	6882	1105.076197929582	1
3	6889	1105.603277864502	2
3	6893	1107.002312577399	1
3	6896	1107.578825941798	0
3	7109	1160.601122939307	1
3	7114	1161.355855757325	2
3	7116	1161.383908301608	3
3	7120	1161.431653096725	4
3	7127	1162.31016866215	5
3	7219	1176.128053637255	6
3	7231	1178.123638083034	5
3	7239	1179.564990386174	4
3	7242	1180.04042123332	3
3	7245	1180.519081541284	2
3	7249	1181.259110967399	3
3	7250	1181.401913556031	2
3	7254	1182.101429796048	3
3	7255	1182.235176510031	2
3	7258	1182.740404893172	1
3	7262	1182.759698076065	2
3	7264	1182.974359515809	3
3	7266	1183.098568047503	4
3	7268	1183.117359937198	5
3	7269	1183.675445308157	4
3	7273	1183.789186903494	5
3	7274	1184.367135716083	4
3	7278	1184.497021749096	5
3	7279	1184.974165717831	4
3	7283	1185.459430436	5
3	7284	1185.902465971366	4
3	7288	1186.145416504291	5
3	7289	1186.618662940611	4
3	7292	1187.412464887316	3
3	7295	1187.971441108494	2
3	7299	1187.999199045763	3
3	7301	1188.174293784812	4
3	7302	1188.522273355623	3
3	7305	1189.275037963449	2
3	7309	1189.680718062853	3
3	7311	1189.740974182567	4
3	7312	1189.880923808173	3
3	7316	1190.372013005593	4
3	7317	1190.795646395015	3
3	7321	1191.25300219557	4
3	7323	1191.633565601804	5
3	7324	1191.739677003671	4
3	7328	1191.742167084165	5
3	7329	1192.235130698413	4
3	7333	1192.566851318983	5
3	7334	1192.891259290271	4
3	7337	1193.358302606356	3
3	7340	1194.149348303762	2
3	7343	1194.883294028549	1
3	7347	1195.029926255776	2
3	7354	1195.677820715788	3
3	7356	1195.894484720666	4
3	7357	1196.126445087458	3
3	7365	1196.765353637426	4
3	7372	1198.576540452235	3
3	7386	1200.329678535627	4
3	7387	1200.568141676385	3
3	7390	1201.393878314031	2
3	7399	1202.176351979849	3
3	7401	1202.27048031711	4
3	7402	1202.318015344526	3
3	7411	1202.818783123762	4
3	7412	1203.187686168348	3
3	7416	1203.320514373035	4
3	7418	1203.632824868728	5
3	7419	1204.103645040087	4
3	7423	1204.278047425211	5
3	7424	1204.667617288364	4
3	7428	1204.863626075701	5
3	7429	1205.336653640626	4
3	7432	1205.800590593919	3
3	7435	1206.481381264927	2
3	7439	1206.759127595699	3
3	7440	1207.350432862008	2
3	7443	1208.092485674603	1
3	7446	1208.600570301052	0
3	7450	1208.755193660291	1
3	7472	1211.163639849176	2
3	7473	1211.668577656887	1
3	7477	1211.812526535904	2
3	7478	1212.086367705596	1
3	7482	1212.471976166562	2
3	7484	1212.503710028144	3
3	7485	1212.568215427121	2
3	7489	1212.612181583117	3
3	7491	1212.664806848015	4
3	7492	1213.09803182468	3
3	7500	1214.540467093319	2
3	7506	1215.001043840787	3
3	7511	1216.112355515611	4
3	7512	1216.121067141781	3
3	7516	1216.13039177379	4
3	7520	1216.774100651351	5
3	7524	1217.348938353865	4
3	7528	1217.858623841389	5
3	7529	1218.038690804869	4
3	7538	1218.727713655444	5
3	7544	1219.729609704383	4
3	7553	1220.649477466378	5
3	7554	1221.5273649292	4
3	7562	1222.759971191122	3
3	7568	1223.117128856063	4
3	7570	1223.136240777032	5
3	7574	1224.348572487704	4
3	7582	1226.108845418872	3
3	7588	1226.617421107693	4
3	7590	1226.726623630563	5
3	7595	1227.423507621413	6
3	7596	1227.742338359909	5
3	7605	1229.391813344959	6
3	7606	1229.626907818852	5
3	7615	1230.721166952863	6
3	7616	1231.040691547649	5
3	7624	1232.49770539719	4
3	7628	1232.539369584021	5
3	7629	1233.111314966896	4
3	7633	1233.486774296731	5
3	7634	1233.82182628237	4
3	7637	1234.70869813165	3
3	7641	1234.930838618177	4
3	7643	1235.05568658511	5
3	7645	1235.200616680761	6
3	7646	1235.351045665185	5
3	7649	1235.942881780298	4
3	7653	1236.388651721365	5
3	7654	1236.506999974971	4
3	7658	1236.649976906303	5
3	7659	1237.44389929212	4
3	7663	1237.585166856878	5
3	7665	1237.846860600138	6
3	7666	1237.977709278039	5
3	7670	1238.054381552225	6
3	7672	1238.388541262186	7
3	7673	1238.848682785726	6
3	7677	1239.448058415828	7
3	7678	1239.523105386824	6
3	7682	1239.94031879927	7
3	7684	1240.172246796236	8
3	7685	1240.366063498932	7
3	7689	1241.065627843325	8
3	7690	1241.220639547839	7
3	7694	1241.890548797683	8
3	7696	1241.966110185291	9
3	7697	1242.120442205382	8
3	7701	1242.552280138678	9
3	7702	1242.932818334963	8
3	7706	1243.003401812315	9
3	7710	1243.663641198859	10
3	7715	1243.997188488197	11
3	7716	1244.363784843863	10
3	7725	1245.39181319301	11
3	7737	1246.993788568532	12
3	7738	1247.352021003787	11
3	7751	1250.010587453463	10
3	7759	1251.800312695459	9
3	7767	1252.701019608874	8
3	7771	1252.831846596993	9
3	7772	1253.472381498145	8
3	7775	1254.245322410988	7
3	7779	1254.823278968336	8
3	7780	1255.100959228438	7
3	7784	1255.491505636008	8
3	7785	1256.009119759353	7
3	7788	1256.452955985015	6
3	7792	1256.589722016482	7
3	7793	1257.15360630992	6
3	7797	1257.609078406918	7
3	7798	1257.999053909016	6
3	7806	1259.562085448896	5
3	7812	1260.033732595797	6
3	7816	1260.987917754884	5
3	7819	1261.985236480591	4
3	7823	1262.092615031283	5
3	7830	1262.925945221661	6
3	7831	1263.772795225113	5
3	7842	1264.793242334205	6
3	7857	1266.70895593237	7
3	7863	1268.125382832197	6
3	7871	1269.606788284277	5
3	7879	1270.947038168731	4
3	7883	1271.289083797894	5
3	7884	1271.584510891597	4
3	7887	1272.111564895922	3
3	7891	1272.551371108422	4
3	7892	1272.903659040473	3
3	7896	1273.4782172999	4
3	7897	1273.618604251548	3
3	7901	1273.730100097614	4
3	7902	1274.519296635679	3
3	7905	1275.498745097724	2
3	7908	1276.091843701379	1
3	7912	1276.585997291362	2
3	7914	1276.7353278189	3
3	7915	1276.88109247409	2
3	7918	1277.299008535912	1
3	7921	1277.857429873842	0
3	7930	1279.17563673686	1
3	7931	1279.670890101698	0
3	7955	1282.277811644766	1
3	7957	1282.662472007307	2
3	7958	1282.926724479633	1
3	7964	1283.279649026811	2
3	7966	1283.312197650743	3
3	7970	1284.406542130612	2
3	7979	1285.376812495823	3
3	7980	1286.011632360058	2
3	7984	1286.015659084063	3
3	7991	1287.178485129199	4
3	7993	1287.377207864356	5
3	7994	1287.837185334559	4
3	7998	1287.96818872177	5
3	8007	1288.67279176816	6
3	8009	1288.836976975147	7
3	8013	1289.976657258584	6
3	8027	1291.720020669697	7
3	8073	1299.3083964204	6
3	8081	1300.543741076771	5
3	8085	1300.554635054967	6
3	8104	1303.077168335578	7
3	8108	1303.993828599533	6
3	8112	1304.02685958871	7
3	8113	1304.597905563196	6
3	8122	1305.589855606868	7
3	8124	1306.09922259427	8
3	8125	1306.266930360446	7
3	8133	1307.293460261874	6
3	8141	1308.750240845565	5
3	8144	1309.167863309436	4
3	8147	1309.724427426473	3
3	8151	1309.831335987812	4
3	8153	1309.893609115461	5
3	8157	1310.003042242349	6
3	8169	1312.231512449678	7
3	8179	1313.629567035311	8
3	8180	1313.671563845368	7
3	8225	1319.728309280477	8
3	8240	1321.451217008381	9
3	8264	1324.424901934539	10
3	8318	1330.828561036388	11
3	8351	1334.634864012249	12
3	8392	1339.871251014717	13
3	8432	1345.254444092127	14
3	8530	1359.482050610241	15
3	8534	1360.119459041306	14
3	8542	1361.435407640464	13
3	8556	1363.160568467809	14
3	8570	1364.597504382138	15
3	8599	1368.936087420819	14
3	8608	1369.843693531472	15
3	8609	1370.249438007319	14
3	8617	1371.885892377285	13
3	8638	1374.959089110862	14
3	8642	1375.888258919309	13
3	8646	1375.923410437103	14
3	8652	1377.097092275743	13
3	8655	1377.831273353335	12
3	8659	1378.094243767868	13
3	8666	1378.8988511163	14
3	8667	1379.772340870372	13
3	8670	1380.523844157535	12
3	8674	1380.877621364527	13
3	8675	1381.284174728955	12
3	8679	1382.035115831787	13
3	8681	1382.13093922123	14
3	8682	1382.144429176117	13
3	8685	1382.704922474551	12
3	8688	1383.559345165503	11
3	8691	1384.227510914628	10
3	8694	1384.641899755087	9
3	8697	1385.092425202022	8
3	8700	1385.799545151976	7
3	8704	1385.863272708543	8
3	8706	1386.017369410326	9
3	8707	1386.260102435577	8
3	8711	1386.495948844997	9
3	8713	1386.843103660083	10
3	8714	1386.86518522804	9
3	8718	1387.743741081706	10
3	8719	1387.765155037077	9
3	8723	1387.901283025159	10
3	8724	1388.21905082744	9
3	8728	1388.441840659728	10
3	8729	1388.953263573539	9
3	8732	1389.627606072281	8
3	8736	1389.870462115584	9
3	8738	1390.031333383156	10
3	8740	1390.452133359428	11
3	8741	1390.54370481675	10
3	8745	1391.327744296978	11
3	8747	1391.476889299473	12
3	8748	1391.48522907794	11
3	8751	1392.480760759539	10
3	8755	1392.985054166783	11
3	8756	1393.465250768005	10
3	8759	1394.024165480402	9
3	8763	1394.377962351566	10
3	8764	1394.906010347935	9
3	8767	1395.647806666749	8
3	8770	1396.061986013832	7
3	8773	1396.63536674865	6
3	8777	1396.804043626319	7
3	8779	1397.267936835431	8
3	8780	1397.535664140763	7
3	8783	1398.27176328977	6
3	8786	1399.001571326613	5
3	8790	1399.115576494255	6
3	8791	1399.485764271397	5
3	8795	1400.334591169333	6
3	8796	1400.482438913923	5
3	8799	1401.059436107617	4
3	8803	1401.591107759869	5
3	8804	1401.669374203267	4
3	8808	1401.825211176788	5
3	8809	1402.080436970717	4
3	8813	1402.259978512053	5
3	8815	1402.375464543993	6
3	8817	1402.470121190358	7
3	8818	1402.680951407603	6
3	8821	1403.653807276492	5
3	8825	1403.79477824945	6
3	8826	1404.565627017342	5
3	8830	1404.601079163973	6
3	8831	1405.003596596145	5
3	8835	1405.007545675766	6
3	8836	1405.814120521541	5
3	8840	1406.465131789311	6
3	8841	1406.782477370934	5
3	8845	1406.936767518498	6
3	8847	1407.400439166481	7
3	8848	1407.637892581062	6
3	8852	1407.725239105024	7
3	8853	1408.550869192468	6
3	8856	1409.286337666685	5
3	8860	1409.437615450855	6
3	8861	1410.279302003054	5
3	8870	1411.198861010288	6
3	8871	1411.806923515169	5
3	8877	1412.056396085549	6
3	8882	1412.882782642577	7
3	8883	1413.257349763817	6
3	8891	1414.684770488931	5
3	8899	1415.725023716368	4
3	8903	1416.016203803296	5
3	8909	1417.089434796997	4
3	8927	1419.612552042358	3
3	8931	1419.97812317119	4
3	8932	1420.136367737787	3
3	8936	1420.557339441117	4
3	8937	1420.854098918853	3
3	8940	1421.26702735364	2
3	8946	1421.56186481931	3
3	8961	1423.578396890885	4
3	8962	1423.720368523342	3
3	8971	1424.282708723134	4
3	8972	1424.876794133015	3
3	8976	1425.102269302956	4
3	8978	1425.299827096533	5
3	8984	1426.571421788638	4
3	8988	1426.91397445026	5
3	8989	1427.148501530947	4
3	8995	1427.801414907867	5
3	9000	1428.408304557635	6
3	9001	1428.696180621913	5
3	9004	1429.347559532902	4
3	9007	1430.157279960817	3
3	9011	1430.539982635491	4
3	9012	1430.980278456869	3
3	9016	1431.578177388345	4
3	9017	1431.905428717571	3
3	9021	1432.728940022938	4
3	9022	1432.889974891633	3
3	9026	1433.226855704277	4
3	9028	1433.513751757095	5
3	9029	1433.858129664516	4
3	9032	1434.62719778298	3
3	9035	1435.087754911935	2
3	9039	1435.575465985965	3
3	9040	1435.758154980006	2
3	9043	1436.417413810926	1
3	9046	1436.931510164082	0
3	9072	1444.011617523977	1
3	9076	1445.19145492087	0
3	9087	1446.203585574872	1
3	9089	1446.286073717012	2
3	9099	1447.653064712225	3
3	9100	1447.677671045529	2
3	9109	1449.058465026573	3
3	9110	1449.06409643893	2
3	9116	1449.362721781918	3
3	9121	1449.906565239165	4
3	9122	1450.444193297763	3
3	9125	1450.929216891386	2
3	9133	1452.465968533464	1
3	9136	1453.073621196065	0
3	9142	1453.111527468315	1
3	9149	1453.889061892783	2
3	9151	1454.041759992696	3
3	9160	1456.010037023897	2
3	9168	1456.981878752584	1
3	9172	1457.026978123355	2
3	9179	1458.650248422837	3
3	9180	1458.697718442507	2
3	9188	1459.837480637288	1
3	9192	1459.957349290252	2
3	9198	1461.239797990021	1
3	9202	1461.351591370436	2
3	9208	1462.31830438636	1
3	9211	1462.73267323151	0
3	9215	1463.542799433131	1
3	9216	1463.714760590761	0
3	9220	1464.055226205061	1
3	9222	1464.170983615561	2
3	9223	1464.669532311612	1
3	9227	1464.872189045298	2
3	9228	1465.145158311536	1
3	9232	1465.313153191321	2
3	9233	1465.710572996919	1
3	9236	1466.622511224353	0
3	9245	1470.074874638466	1
3	9246	1470.809884277117	0
3	9255	1471.43803622454	1
3	9257	1471.709253105789	2
3	9259	1472.053493147147	3
3	9260	1472.401962965474	2
3	9264	1472.846373988399	3
3	9265	1473.153149053481	2
3	9269	1473.497918743756	3
3	9271	1473.77526142384	4
3	9272	1474.019718547192	3
3	9275	1474.787802565124	2
3	9279	1475.001188993784	3
3	9280	1475.398079845103	2
3	9284	1476.197724922749	3
3	9285	1476.365919550349	2
3	9289	1476.41012148834	3
3	9291	1476.597050197725	4
3	9293	1476.606749424537	5
3	9294	1477.201149915139	4
3	9297	1477.789892411585	3
3	9300	1478.713114020116	2
3	9304	1479.163076505551	3
3	9305	1479.359735215203	2
3	9309	1479.568327219778	3
3	9311	1479.909328677543	4
3	9312	1480.33342547615	3
3	9315	1480.80138241535	2
3	9318	1481.570188337545	1
3	9329	1482.910151789533	2
3	9331	1483.002822268627	3
3	9333	1483.00689391936	4
3	9350	1484.926253997557	5
3	9355	1485.403291586146	6
3	9356	1485.495658301262	5
3	9359	1486.018714224247	4
3	9368	1486.960505612631	5
3	9369	1487.428651408691	4
3	9373	1487.635858939672	5
3	9374	1488.018961177141	4
3	9378	1488.373008965742	5
3	9379	1488.752730654812	4
3	9382	1489.375908773978	3
3	9386	1489.508039136488	4
3	9387	1490.215347669021	3
3	9391	1490.338956957381	4
3	9392	1490.673771599428	3
3	9396	1491.087809269137	4
3	9403	1491.597641434466	5
3	9404	1492.296759346295	4
3	9408	1492.487247252116	5
3	9409	1493.065021261461	4
3	9413	1493.599869330353	5
3	9414	1493.764116685912	4
3	9418	1493.827336496808	5
3	9419	1494.294157129228	4
3	9423	1495.178968096124	5
3	9424	1495.291919095842	4
3	9427	1495.777649088325	3
3	9431	1496.156579529839	4
3	9432	1496.26307146552	3
3	9445	1497.242112500675	4
3	9450	1498.631561248177	5
3	9467	1500.080139908118	6
3	9509	1505.668402608102	7
3	9518	1507.149387204086	8
3	9523	1507.493785827734	9
3	9592	1518.260169666893	8
3	9603	1518.783692819484	9
3	9627	1522.983411168707	8
3	9635	1523.914372826488	7
3	9641	1524.564769102151	8
3	9645	1525.623421886404	7
3	9653	1525.954220754376	8
3	9661	1527.058853630207	9
3	9665	1527.291751346954	10
3	9679	1529.194895656016	9
3	9682	1529.929497896023	8
3	9686	1530.173615076741	9
3	9692	1531.572132998826	8
3	9701	1533.004617349883	9
3	9702	1533.40473121482	8
3	9706	1533.631853160468	9
3	9712	1534.651094629318	8
3	9715	1535.125052847462	7
3	9721	1535.91981555657	8
3	9725	1536.551250675675	7
3	9729	1536.956691424531	8
3	9731	1537.065730038	9
3	9732	1537.286478642915	8
3	9735	1538.027069043909	7
3	9744	1538.960567602508	8
3	9745	1539.120398130669	7
3	9753	1540.831427863642	6
3	9762	1541.349527634131	7
3	9763	1541.947090823791	6
3	9771	1543.167057765258	5
3	9779	1544.784416962444	4
3	9787	1545.974266899919	3
3	9793	1546.0455749407	4
3	9795	1546.298586309653	5
3	9800	1547.229723081738	6
3	9802	1547.543352183745	7
3	9803	1547.717302781233	6
3	9807	1548.035930056468	7
3	9814	1548.138848804168	8
3	9816	1548.901985801769	9
3	9817	1549.078040080128	8
3	9826	1550.113006121119	9
3	9827	1550.862451991515	8
3	9830	1551.534607033554	7
3	9834	1551.941241751862	8
3	9835	1552.022137885617	7
3	9838	1552.841799396958	6
3	9842	1553.356099393111	7
3	9843	1553.588575928734	6
3	9847	1553.792414333893	7
3	9848	1554.229577934911	6
3	9852	1554.624073836028	7
3	9853	1554.943195454061	6
3	9856	1555.346348785825	5
3	9860	1555.58298794856	6
3	9862	1555.963551383725	7
3	9863	1556.217663140811	6
3	9866	1557.149420734525	5
3	9870	1557.673749219507	6
3	9871	1558.077242516477	5
3	9875	1558.399778997116	6
3	9876	1559.029701539904	5
3	9879	1559.576363564592	4
3	9882	1560.361539775908	3
3	9885	1560.773928524537	2
3	9888	1561.23499066665	1
3	9892	1561.316199079727	2
3	9893	1561.825027454534	1
3	9899	1562.678050251356	2
3	9904	1562.856298556855	3
3	9906	1562.871935598386	4
3	9907	1563.108540385758	3
3	9921	1564.690266492157	4
3	9923	1564.890303836632	5
3	9927	1565.246764074341	6
3	9932	1565.365838759308	7
3	10001	1575.882386574406	8
3	10005	1576.688055054965	7
3	10013	1577.170151128389	8
3	10040	1581.989381996198	7
3	10043	1582.952912643114	6
3	10046	1583.900744085973	5
3	10050	1583.94946762547	6
3	10051	1584.38470858478	5
3	10054	1585.21011027487	4
3	10058	1585.395704350689	5
3	10059	1585.623449703287	4
3	10063	1585.678028774095	5
3	10064	1586.339028626894	4
3	10068	1586.939986540096	5
3	10069	1587.20252007286	4
3	10072	1588.043698828462	3
3	10076	1588.137479262317	4
3	10077	1588.683705691369	3
3	10081	1589.304442032959	4
3	10082	1589.401044833362	3
3	10086	1589.562572987994	4
3	10088	1589.648303479621	5
3	10089	1590.184746062877	4
3	10093	1590.763601544628	5
3	10095	1590.874548387038	6
3	10096	1590.901819177373	5
3	10100	1591.295169082992	6
3	10102	1591.587758440604	7
3	10103	1591.697153602802	6
3	10107	1591.804486289645	7
3	10108	1592.396378423023	6
3	10112	1592.776815651429	7
3	10113	1592.924700798728	6
3	10117	1593.525947958631	7
3	10118	1593.699082915839	6
3	10122	1593.983301115838	7
3	10124	1594.041984909186	8
3	10125	1594.10500393806	7
3	10129	1594.363445155923	8
3	10130	1595.053902144339	7
3	10133	1595.665319934934	6
3	10137	1596.379489634908	7
3	10138	1596.473369744494	6
3	10142	1596.635259856018	7
3	10143	1597.08740268385	6
3	10146	1598.082941602943	5
3	10150	1598.214814173638	6
3	10151	1598.68138470727	5
3	10155	1598.918383516361	6
3	10162	1600.265006536081	7
3	10163	1600.320822395785	6
3	10167	1600.336429439888	7
3	10173	1601.622075829311	6
3	10177	1602.119848813226	7
3	10184	1602.822900924664	8
3	10185	1603.256917041941	7
3	10188	1603.806537492741	6
3	10192	1604.123588319383	7
3	10198	1605.099276577989	6
3	10202	1605.146304311021	7
3	10209	1606.08580845736	8
3	10210	1606.226688696566	7
3	10219	1607.220540306039	8
3	10221	1607.756729641088	9
3	10222	1607.977559666644	8
3	10225	1608.92044240635	7
3	10228	1609.59877185736	6
3	10231	1610.42634671664	5
3	10252	1613.093386861186	6
3	10257	1613.651544193559	7
3	10258	1613.670595083974	6
3	10262	1613.831689133287	7
3	10266	1613.929576467229	8
3	10271	1614.186640415778	9
3	10273	1614.419527239191	10
3	10279	1615.332563602954	9
3	10288	1616.862352705908	10
3	10289	1616.92654709167	9
3	10298	1618.244488386211	10
3	10299	1618.507507344038	9
3	10308	1619.748806143156	10
3	10309	1620.185578526259	9
3	10313	1620.212301630405	10
3	10319	1621.403986716066	9
3	10322	1622.031890230794	8
3	10328	1622.474885162203	9
3	10333	1622.563965432987	10
3	10334	1623.187593575922	9
3	10342	1624.535339348886	8
3	10350	1625.095271936071	9
3	10358	1626.09607548588	10
3	10374	1628.765412594454	9
3	10383	1630.024651420164	10
3	10384	1630.261255457887	9
3	10393	1631.136015659459	10
3	10394	1631.577406532393	9
3	10397	1632.227253632975	8
3	10401	1632.439993871748	9
3	10402	1632.861568260362	8
3	10405	1633.665047296865	7
3	10409	1633.895906285144	8
3	10410	1634.185422731361	7
3	10413	1634.963127887792	6
3	10417	1634.990707222734	7
3	10419	1635.660169555849	8
3	10420	1635.824580377837	7
3	10423	1636.357575235547	6
3	10427	1637.218959161667	7
3	10428	1637.260225296843	6
3	10432	1637.642419916674	7
3	10433	1638.253964722048	6
3	10436	1638.669574938792	5
3	10440	1639.468127553739	6
3	10441	1639.564371119517	5
3	10445	1640.084668406122	6
3	10446	1640.247799949425	5
3	10449	1640.78801367109	4
3	10453	1641.279994701386	5
3	10455	1641.416678465985	6
3	10457	1641.57965753808	7
3	10458	1641.681603851014	6
3	10462	1641.820352865552	7
3	10463	1642.173855746056	6
3	10467	1642.532796574795	7
3	10468	1643.006188633882	6
3	10471	1643.491337405082	5
3	10474	1644.215463901853	4
3	10477	1644.705725398177	3
3	10481	1645.087933101871	4
3	10482	1645.686000961002	3
3	10485	1646.186517049775	2
3	10489	1646.249801919972	3
3	10490	1646.680452372257	2
3	10493	1647.15301901147	1
3	10496	1647.564683780197	0
3	10500	1647.902531347146	1
3	10502	1647.904629573944	2
3	10503	1648.084333646141	1
3	10512	1648.997123538852	2
3	10514	1649.044233830954	3
3	10515	1649.296452162677	2
3	10521	1649.689440748095	3
3	10526	1649.89419901973	4
3	10528	1650.483543080037	5
3	10529	1650.522699377529	4
3	10535	1651.130761073808	5
3	10539	1651.338011775661	6
3	10544	1651.562709601497	7
3	10548	1652.457383023465	6
3	10556	1653.892213228608	5
3	10559	1654.314844689316	4
3	10567	1654.729432605108	5
3	10572	1655.232186672888	6
3	10576	1655.914522817994	5
3	10592	1657.911266796024	6
3	10594	1658.256309534831	7
3	10608	1660.379325003953	6
3	10617	1661.297593329047	7
3	10618	1661.597015709973	6
3	10621	1662.306078855119	5
3	10624	1662.789677188251	4
3	10628	1662.928629431934	5
3	10629	1663.325041931294	4
3	10633	1663.657919750683	5
3	10634	1664.279731205789	4
3	10637	1664.976797054506	3
3	10640	1665.796887048318	2
3	10643	1666.713148230578	1
3	10646	1667.563632358269	0
3	10650	1668.327185836627	1
3	10651	1668.517004145666	0
3	10660	1669.955345419097	1
3	10662	1670.029134304052	2
3	10664	1670.15718398045	3
3	10666	1670.185532898276	4
3	10667	1670.254487833747	3
3	10671	1670.756318465943	4
3	10678	1671.524284684086	5
3	10679	1671.791211390163	4
3	10685	1672.540812706053	5
3	10689	1673.553225292492	4
3	10698	1674.558804082755	5
3	10699	1675.220639226114	4
3	10703	1675.262707025749	5
3	10704	1675.885807968344	4
3	10713	1676.785627706669	5
3	10715	1676.888866707363	6
3	10721	1677.489228428056	5
3	10730	1678.345270106611	6
3	10732	1678.467886359674	7
3	10748	1680.566990437585	6
3	10757	1681.866535345013	7
3	10758	1682.479749240627	6
3	10761	1683.153244820557	5
3	10765	1683.387090041675	6
3	10766	1683.588506142603	5
3	10770	1684.178138248487	6
3	10771	1684.532514061587	5
3	10774	1685.077425143443	4
3	10778	1685.338327098903	5
3	10779	1685.741774211958	4
3	10788	1687.053395684475	5
3	10795	1687.524148683276	6
3	10824	1690.508161141607	7
3	10878	1698.317457290173	6
3	10887	1699.323566779654	7
3	10888	1699.872485237654	6
3	10897	1700.752158597888	7
3	10898	1700.924114680376	6
3	10906	1702.295040278548	5
3	10912	1702.821366649197	6
3	10917	1703.166867368125	7
3	10918	1703.885933358028	6
3	10931	1705.171881007977	7
3	10938	1705.672328012582	8
3	10949	1706.434607545599	9
3	10954	1707.069988901298	10
3	10958	1707.869840120662	11
3	10991	1712.391708562717	12
3	11013	1715.933158052544	13
3	11020	1717.215947479236	12
3	11023	1717.685257211647	11
3	11027	1717.701690586793	12
3	11028	1718.098153099365	11
3	11036	1718.588106979475	12
3	11038	1718.775768152157	13
3	11043	1719.349860013928	14
3	11053	1720.52420681835	15
3	11074	1723.265572278615	14
3	11087	1725.739389351238	13
3	11096	1726.512855393226	14
3	11098	1726.774888400777	15
3	11102	1727.005460369312	16
3	11106	1727.826095636323	15
3	11114	1729.303721634899	14
3	11120	1729.578767770622	15
3	11124	1730.806433830359	14
3	11128	1731.055334634769	15
3	11130	1731.097439896918	16
3	11136	1731.940234753438	15
3	11142	1732.204365687064	16
3	11147	1733.434385511737	17
3	11148	1733.556346713514	16
3	11166	1736.094153481671	15
3	11175	1737.113050403711	16
3	11176	1737.454375933898	15
3	11185	1738.685492206366	16
3	11186	1739.149200067199	15
3	11192	1739.546570598121	16
3	11196	1740.317910620658	15
3	11205	1741.01037937858	16
3	11206	1741.774019546382	15
3	11209	1742.397829433897	14
3	11215	1743.022614700015	15
3	11220	1743.130956774726	16
3	11221	1743.866758346133	15
3	11224	1744.762313952291	14
3	11227	1745.547244939714	13
3	11231	1746.041840418859	14
3	11233	1746.246942354136	15
3	11234	1746.26570737799	14
3	11238	1746.565780416229	15
3	11239	1746.97671351842	14
3	11242	1747.696163811343	13
3	11246	1748.318899552915	14
3	11247	1748.396171786584	13
3	11250	1748.970867329504	12
3	11254	1748.972689153606	13
3	11256	1749.52460637284	14
3	11257	1749.60317866024	13
3	11261	1749.823594967599	14
3	11262	1750.433703420259	13
3	11265	1750.969941912306	12
3	11269	1751.036838813546	13
3	11270	1751.47980709988	12
3	11274	1751.83425591032	13
3	11275	1752.239462369581	12
3	11279	1752.916009029394	13
3	11280	1753.163887931214	12
3	11284	1753.201313694105	13
3	11286	1753.312530941138	14
3	11287	1753.626428210776	13
3	11291	1754.022666768406	14
3	11292	1754.402201945655	13
3	11295	1755.395067883231	12
3	11298	1755.910740084335	11
3	11302	1756.518986389919	12
3	11303	1756.613955768937	11
3	11306	1757.132168108172	10
3	11310	1757.222299061945	11
3	11311	1758.106725591834	10
3	11314	1759.059903332026	9
3	11317	1759.745698763796	8
3	11320	1760.154276817332	7
3	11323	1760.616381775628	6
3	11326	1761.251581797277	5
3	11330	1761.466270493543	6
3	11332	1761.575915061228	7
3	11333	1761.836281933303	6
3	11336	1762.787660042982	5
3	11340	1762.879848201632	6
3	11341	1763.419119717454	5
3	11345	1763.904125082549	6
3	11346	1764.19922266425	5
3	11350	1764.327684878098	6
3	11351	1765.07649129568	5
3	11355	1765.717193588048	6
3	11356	1765.7759383453	5
3	11359	1766.565959394019	4
3	11363	1766.729722232954	5
3	11365	1767.023384035581	6
3	11367	1767.338520083418	7
3	11368	1767.468817352638	6
3	11372	1767.510034854473	7
3	11373	1767.881438799803	6
3	11379	1768.102243070354	7
3	11381	1768.600852899054	8
3	11385	1769.293912384748	7
3	11391	1769.411881985792	8
3	11396	1770.215594299721	9
3	11398	1770.274829697812	10
3	11399	1770.674118848002	9
3	11403	1770.815535923501	10
3	11405	1770.939740813167	11
3	11406	1771.180883989666	10
3	11412	1771.769424785937	11
3	11416	1772.617380776299	10
3	11420	1772.991678861319	11
3	11421	1773.236779513905	10
3	11425	1773.259928149445	11
3	11426	1773.932093627701	10
3	11430	1774.250382596178	11
3	11431	1774.608701902112	10
3	11434	1775.033882799415	9
3	11438	1775.203916680769	10
3	11439	1775.447869678862	9
3	11442	1776.444750797279	8
3	11446	1776.819191044727	9
3	11448	1776.973715006207	10
3	11449	1777.013767279215	9
3	11452	1777.583703397443	8
3	11456	1777.635277502345	9
3	11457	1778.254147190829	8
3	11460	1778.979201223557	7
3	11464	1779.585180985284	8
3	11465	1779.748245388218	7
3	11469	1780.402264116134	8
3	11470	1780.655353392516	7
3	11473	1781.600943896961	6
3	11476	1782.333982661408	5
3	11479	1782.979744724552	4
3	11482	1783.537861937699	3
3	11485	1784.418262665761	2
3	11489	1784.985621720186	3
3	11491	1785.249807622765	4
3	11492	1785.32984329606	3
3	11495	1786.179212534936	2
3	11498	1786.747245536741	1
3	11502	1787.238900399232	2
3	11503	1787.660415926153	1
3	11506	1788.22545000496	0
3	11510	1788.331752761532	1
3	11512	1788.635345807022	2
3	11513	1789.002367379141	1
3	11516	1789.560297692192	0
3	11525	1791.99072767301	1
3	11526	1792.366259011181	0
3	11530	1792.395178145416	1
3	11532	1792.539041152365	2
3	11533	1792.913894374037	1
3	11536	1793.342831108413	0
3	11550	1796.86337515713	1
3	11552	1796.898559981946	2
3	11554	1796.925406457636	3
3	11556	1797.051067775388	4
3	11557	1797.725582124162	3
3	11561	1798.174061611537	4
3	11562	1798.30264205221	3
3	11566	1798.508884120614	4
3	11568	1798.672378337152	5
3	11570	1798.710522916579	6
3	11571	1799.070494343628	5
3	11574	1800.034178586126	4
3	11578	1800.787950613933	5
3	11579	1800.935552514818	4
3	11583	1801.067096316614	5
3	11585	1801.162256818741	6
3	11592	1802.03324676457	7
3	11593	1802.64309683089	6
3	11596	1803.226265217698	5
3	11600	1803.643194301698	6
3	11601	1803.832465503513	5
3	11604	1804.295575583735	4
3	11608	1804.607927375722	5
3	11610	1804.670186138873	6
3	11611	1805.229838021481	5
3	11614	1805.725319208446	4
3	11618	1806.006431367	5
3	11619	1806.426492825625	4
3	11622	1807.293620905568	3
3	11625	1807.772427524402	2
3	11628	1808.43445902463	1
3	11631	1808.948751607639	0
3	11635	1809.351549954892	1
3	11637	1809.388342881652	2
3	11638	1809.429908159803	1
3	11641	1810.051300932895	0
3	11650	1811.03426211136	1
3	11652	1811.282981614378	2
3	11654	1811.559836839022	3
3	11655	1811.639712835269	2
3	11659	1811.720181824167	3
3	11661	1811.969256813376	4
3	11663	1812.185360679728	5
3	11664	1812.333305688228	4
3	11668	1812.784414259841	5
3	11669	1813.145166082659	4
3	11673	1813.491155647217	5
3	11674	1813.585151407195	4
3	11678	1814.015081131543	5
3	11679	1814.37202962402	4
3	11683	1815.189474593828	5
3	11684	1815.364662042192	4
3	11688	1815.831500291473	5
3	11689	1815.937586569439	4
3	11692	1816.47080298404	3
3	11700	1817.951791223676	2
3	11708	1819.103103996046	1
3	11712	1819.334617060028	2
3	11718	1820.486978659104	1
3	11721	1821.425628689002	0
3	11735	1823.949659070507	1
3	11736	1824.21513986253	0
3	11750	1826.437744685389	1
3	11751	1826.464056201808	0
3	11764	1827.27847713203	1
3	11766	1828.08609898906	2
3	11774	1829.019607178656	3
3	11798	1831.804017661637	4
3	11817	1835.481789613719	3
3	11820	1835.947905136802	2
3	11839	1837.925816078807	3
3	11840	1838.552331322356	2
3	11844	1838.698981362492	3
3	11856	1839.691728407201	4
3	11872	1842.450818134721	3
3	11886	1843.810552709365	4
3	11907	1847.768213030805	3
3	11916	1848.681145439322	4
3	11962	1856.349844427375	3
3	11973	1857.51621930709	4
3	11980	1857.85370685186	5
3	11985	1858.395094171443	6
3	12016	1862.776506343687	5
3	12019	1863.333301159198	4
3	12023	1863.705287554034	5
3	12024	1864.176249350625	4
3	12027	1864.601076350565	3
3	12030	1865.284226005263	2
3	12034	1866.138857235091	3
3	12035	1866.193792089	2
3	12039	1866.246775785181	3
3	12041	1866.628938616416	4
3	12043	1866.696553686368	5
3	12044	1867.189720992343	4
3	12048	1867.660010308231	5
3	12049	1868.023309125769	4
3	12053	1868.126218513251	5
3	12054	1868.675161281944	4
3	12058	1868.767322163879	5
3	12060	1869.420097268483	6
3	12061	1869.483168628922	5
3	12064	1870.071804758877	4
3	12067	1871.037782808504	3
3	12070	1871.754073627404	2
3	12073	1872.396433011274	1
3	12076	1873.109899222543	0
3	12080	1873.479608155083	1
3	12081	1873.983853796143	0
3	12085	1874.468625427912	1
3	12086	1874.62845187501	0
3	12125	1886.234658216786	1
3	12127	1886.394044899944	2
3	12128	1886.730627874712	1
3	12139	1887.928038084516	2
3	12143	1889.042680818688	1
3	12146	1889.857618148306	0
3	12152	1890.204624685653	1
3	12154	1890.222566688198	2
3	12159	1891.397913443108	3
3	12160	1891.784632205644	2
3	12164	1891.962327326718	3
3	12168	1892.515982727	4
3	12172	1893.682389809291	3
3	12178	1893.700869267685	4
3	12185	1894.360474136437	5
3	12216	1898.575747416811	6
3	12289	1909.152551732605	7
3	12294	1909.498138156603	8
3	12301	1910.349876558335	9
3	12315	1911.797270800729	10
3	12319	1912.499521369074	9
3	12337	1915.153704633085	10
3	12373	1919.235969261571	11
3	12419	1926.428106302643	12
3	12451	1930.470118876917	13
3	12463	1932.134659338862	14
3	12468	1932.894833013499	15
3	12469	1933.163796074276	14
3	12472	1933.979795049184	13
3	12483	1935.168844251924	14
3	12485	1935.34115292319	15
3	12489	1935.868082708173	14
3	12500	1936.813351999002	15
3	12502	1936.93818075589	16
3	12507	1937.616561124403	17
3	12518	1939.466999413592	16
3	12524	1939.782482749839	17
3	12538	1942.982045097331	16
3	12549	1943.895212655914	17
3	12551	1944.297173397469	18
3	12555	1944.820067404312	17
3	12564	1945.621847889178	18
3	12565	1946.064801221489	17
3	12574	1947.434506601799	18
3	12576	1947.835064702613	19
3	12577	1947.909536328781	18
3	12588	1948.406623016488	19
3	12590	1948.645779913637	20
3	12634	1955.503775430898	19
3	12645	1956.902627412737	20
3	12669	1960.552340705004	19
3	12672	1961.015487741037	18
3	12676	1961.664490680387	19
3	12677	1961.772829747117	18
3	12680	1962.428518931531	17
3	12684	1962.629275482232	18
3	12685	1963.260453500981	17
3	12688	1964.190434380025	16
3	12691	1964.616982841827	15
3	12694	1965.428407123182	14
3	12698	1965.512391344034	15
3	12699	1965.91314085383	14
3	12702	1966.81380108526	13
3	12711	1967.694947514629	14
3	12713	1967.993868333518	15
3	12715	1968.074950887602	16
3	12717	1968.120868489839	17
3	12718	1968.370533333635	16
3	12722	1968.984907280225	17
3	12729	1969.658089246762	18
3	12731	1969.82057461932	19
3	12732	1970.220816131644	18
3	12740	1971.37676703684	17
3	12751	1972.352730212116	18
3	12755	1973.287846635617	17
3	12761	1973.429670441496	18
3	12763	1973.869524519371	19
3	12768	1974.473031634466	20
3	12769	1975.205810117451	19
3	12775	1975.410972613458	20
3	12799	1979.344215695149	19
3	12830	1982.519902511542	20
3	12849	1985.760777451525	19
3	12862	1986.887097779891	20
3	12884	1990.728367804418	19
3	12887	1991.271379960383	18
3	12900	1992.78205846484	19
3	12902	1992.835450224984	20
3	12919	1995.034921882194	21
3	12976	2002.669464979562	20
3	12990	2004.194187205736	21
3	12991	2004.43812776437	20
3	13009	2006.635480023138	19
3	13012	2007.364822308775	18
3	13016	2007.392799018786	19
3	13017	2007.977897108588	18
3	13021	2008.593256623148	19
3	13022	2008.717138907183	18
3	13026	2009.014348336099	19
3	13027	2009.413062563175	18
3	13036	2010.348146815929	19
3	13037	2010.789650721158	18
3	13040	2011.736308312564	17
3	13043	2012.725889576607	16
3	13046	2013.394191550099	15
3	13050	2013.493845722159	16
3	13052	2013.519810415797	17
3	13054	2013.590631261738	18
3	13055	2014.165519341928	17
3	13059	2014.442780607037	18
3	13060	2014.84173854907	17
3	13063	2015.632229882068	16
3	13067	2015.703047495824	17
3	13069	2016.022981041286	18
3	13070	2016.599796612197	17
3	13074	2016.761512873867	18
3	13075	2017.162078081266	17
3	13078	2017.848323320326	16
3	13081	2018.433720637493	15
3	13084	2019.006868872846	14
3	13088	2019.251185929831	15
3	13090	2019.482289038326	16
3	13091	2019.707934197093	15
3	13094	2020.409529986147	14
3	13097	2020.818071571	13
3	13101	2021.162054491428	14
3	13102	2021.632127263405	13
3	13106	2021.764800735397	14
3	13107	2022.477224068817	13
3	13111	2022.615660357118	14
3	13113	2022.635094306186	15
3	13114	2023.269908497025	14
3	13118	2023.61250337887	15
3	13119	2024.232761058732	14
3	13122	2024.846024145846	13
3	13125	2025.336103919017	12
3	13129	2025.799781763662	13
3	13130	2025.849159116865	12
3	13133	2026.353316767056	11
3	13137	2026.731183423636	12
3	13139	2026.775269946068	13
3	13140	2027.198112254085	12
3	13144	2027.434592929265	13
3	13145	2027.711599789521	12
3	13149	2028.116181233713	13
3	13150	2028.683354156612	12
3	13154	2028.796402735558	13
3	13155	2029.4381053262	12
3	13158	2030.034488753842	11
3	13162	2030.111528335287	12
3	13168	2030.984555869697	11
3	13171	2031.735865038129	10
3	13175	2032.466192376961	11
3	13176	2032.65685401569	10
3	13179	2033.109279017298	9
3	13183	2033.353457887825	10
3	13184	2033.821022084177	9
3	13188	2034.290840266662	10
3	13190	2034.38468914677	11
3	13191	2034.588148585203	10
3	13194	2035.381708894911	9
3	13197	2035.794345658886	8
3	13201	2035.853743749431	9
3	13202	2036.348479342376	8
3	13205	2037.079846282731	7
3	13214	2037.906433294857	8
3	13215	2038.437952103381	7
3	13219	2038.58336194938	8
3	13246	2041.527074912832	9
3	13248	2041.609294040546	10
3	13252	2042.006734760063	11
3	13256	2042.487445816684	10
3	13262	2043.407844460944	11
3	13267	2043.553541450114	12
3	13268	2044.219844802197	11
3	13276	2045.229917512748	10
3	13282	2045.590197366195	11
3	13286	2046.075503041323	10
3	13292	2046.89829894113	11
3	13296	2047.440731859028	10
3	13305	2048.217848125651	11
3	13306	2048.332169074013	10
3	13312	2048.531539627424	11
3	13316	2049.778704495456	10
3	13320	2049.814298338143	11
3	13321	2050.342918679265	10
3	13325	2050.459379543713	11
3	13327	2050.662929933017	12
3	13328	2051.042237472634	11
3	13331	2051.654977363867	10
3	13335	2051.764671321962	11
3	13336	2052.186784562894	10
3	13339	2052.87822563756	9
3	13342	2053.704590707558	8
3	13345	2054.425693879376	7
3	13349	2054.494328040376	8
3	13351	2055.12402144613	9
3	13352	2055.318087249954	8
3	13355	2055.809874096473	7
3	13358	2056.644494665235	6
3	13362	2056.662417857763	7
3	13369	2057.808102704614	8
3	13370	2058.219044071211	7
3	13374	2058.35462811045	8
3	13375	2058.821776961077	7
3	13379	2059.448928356691	8
3	13380	2059.556434220735	7
3	13384	2059.705625889153	8
3	13386	2059.757438279037	9
3	13392	2060.420689599177	8
3	13398	2060.50409896533	9
3	13402	2061.496769769404	8
3	13406	2061.537045482094	9
3	13412	2062.817289346138	8
3	13416	2062.841396847638	9
3	13417	2063.391884963222	8
3	13420	2064.37726759618	7
3	13423	2065.005626374258	6
3	13427	2065.362303633496	7
3	13428	2065.716483351875	6
3	13432	2066.239021434058	7
3	13439	2066.577523117228	8
3	13441	2066.660776782447	9
3	13442	2067.449596978452	8
3	13445	2068.026177140053	7
3	13449	2068.921687271736	8
3	13450	2068.988173328301	7
3	13453	2069.762878568897	6
3	13456	2070.271402677668	5
3	13460	2070.384359994471	6
3	13461	2070.812822791988	5
3	13464	2071.414533151414	4
3	13467	2071.914640096722	3
3	13470	2072.48766024919	2
3	13474	2073.156321962751	3
3	13475	2073.319790715592	2
3	13479	2073.40481284886	3
3	13480	2074.229385990703	2
3	13484	2074.499339478227	3
3	13485	2075.190524888232	2
3	13488	2075.759219863832	1
3	13492	2076.095096037735	2
3	13494	2076.120437771437	3
3	13495	2076.167718245422	2
3	13498	2076.570248530067	1
3	13502	2076.599497838862	2
3	13503	2077.431000085974	1
3	13507	2077.740166457362	2
3	13508	2078.092655023195	1
3	13514	2078.382187723873	2
3	13519	2079.124981758938	3
3	13520	2079.823069208262	2
3	13523	2080.677002916445	1
3	13526	2081.397212206625	0
3	13535	2082.980782605561	1
3	13541	2083.956890087554	0
3	13550	2085.191979047539	1
3	13551	2085.460326844061	0
3	13560	2086.045651422592	1
3	13561	2086.441419942029	0
3	13587	2089.917938872653	1
3	13601	2092.548327426291	0
3	13620	2096.205071550897	1
3	13624	2096.268588250004	2
3	13628	2097.299259568042	1
3	13636	2098.447714039067	0
3	13647	2101.222013947408	1
3	13656	2102.161114823596	2
3	13710	2109.239022194445	3
3	13750	2116.023049082374	2
3	13761	2117.63472945188	3
3	13811	2124.313043379214	4
3	13818	2124.807681753678	5
3	13834	2127.686066857073	4
3	13843	2128.927157136032	5
3	13844	2129.310368313314	4
3	13850	2129.737259665215	5
3	13855	2130.069890942301	6
3	13856	2130.551027967035	5
3	13864	2131.971122539974	4
3	13872	2133.159278218773	3
3	13890	2136.185838266973	2
3	13893	2136.79349643886	1
3	13896	2137.616722413757	0
3	13900	2137.729752673388	1
3	13907	2138.455149410851	2
3	13916	2139.359012652068	3
3	13920	2140.620916565368	2
3	13923	2141.256400695397	1
3	13927	2141.338679745025	2
3	13936	2142.711581605473	3
3	13960	2146.681427574484	2
3	13963	2147.091455608979	1
3	13969	2147.694675217845	2
3	13974	2148.081351028851	3
3	13975	2148.503237026977	2
3	13979	2148.660167319115	3
3	13988	2149.883791282738	4
3	13992	2150.590474345862	3
3	14000	2152.126549528401	2
3	14003	2152.659032117298	1
3	14007	2152.954688434178	2
3	14008	2153.088975628188	1
3	14012	2153.685020520594	2
3	14013	2153.951474597028	1
3	14016	2154.454614715886	0
3	14020	2154.598723238708	1
3	14022	2154.836174439921	2
3	14023	2154.958956617352	1
3	14026	2155.444567306156	0
3	14035	2157.190265642022	1
3	14036	2157.778622312933	0
3	14045	2161.037322786547	1
3	14047	2161.228046028857	2
3	14048	2161.469793259806	1
3	14052	2161.790425076158	2
3	14053	2162.374042651371	1
3	14056	2163.104414689715	0
3	14060	2163.815593778811	1
3	14061	2163.858690112398	0
3	14080	2168.004899046489	1
3	14081	2168.176445743863	0
3	14135	2182.822995418412	1
3	14136	2183.328543002729	0
3	14142	2183.680601377453	1
3	14146	2184.510534862534	0
3	14155	2185.345876823434	1
3	14157	2186.177494802448	2
3	14159	2186.230231571695	3
3	14160	2186.32505195468	2
3	14169	2187.623851234256	3
3	14170	2187.849934261397	2
3	14176	2188.294249947518	3
3	14180	2189.085895961628	2
3	14183	2189.861868050753	1
3	14187	2190.226923237091	2
3	14188	2190.433760296193	1
3	14191	2191.179234176979	0
3	14200	2192.905977296983	1
3	14201	2193.144232649207	0
3	14210	2194.65665770528	1
3	14212	2194.779476559309	2
3	14214	2194.868105949617	3
3	14215	2195.167375638744	2
3	14219	2196.080441823585	3
3	14220	2196.125577047316	2
3	14224	2196.171391659241	3
3	14225	2197.018221200106	2
3	14229	2197.068892459243	3
3	14230	2198.016052561055	2
3	14234	2198.073039180938	3
3	14235	2198.434600268711	2
3	14239	2198.723817027822	3
3	14240	2199.159849877643	2
3	14244	2199.175626748946	3
3	14245	2199.936915800382	2
3	14249	2200.196264914385	3
3	14251	2200.245367209721	4
3	14252	2200.626858054275	3
3	14256	2201.328212729044	4
3	14257	2201.382556664745	3
3	14261	2201.475608934596	4
3	14262	2201.946195239375	3
3	14265	2202.572275152464	2
3	14268	2203.197688535076	1
3	14272	2203.338843968041	2
3	14274	2203.434042907154	3
3	14275	2203.942117548768	2
3	14278	2204.451107287488	1
3	14282	2204.491498741466	2
3	14283	2204.897333768045	1
3	14286	2205.513189353642	0
3	14290	2205.580513726021	1
3	14291	2206.139361066312	0
3	14305	2209.282567551098	1
3	14306	2209.376610061686	0
3	14314	2209.667467459801	1
3	14316	2209.806205628469	2
3	14321	2210.494623051184	3
3	14326	2211.177184975071	4
3	14332	2212.5762108342	3
3	14336	2212.812662490093	4
3	14350	2214.434297010534	5
3	14352	2214.452707613576	6
3	14394	2220.034974002839	7
3	14399	2220.570225307973	8
3	14400	2220.875783223681	7
3	14404	2221.628745763112	8
3	14431	2224.477788414496	9
3	14432	2225.104764389269	8
3	14435	2225.506444293935	7
3	14439	2225.774399486408	8
3	14440	2226.011233075312	7
3	14444	2226.743772515205	8
3	14445	2226.881842967798	7
3	14448	2227.34883661468	6
3	14452	2227.833481427008	7
3	14453	2227.89084470414	6
3	14457	2228.347685378668	7
3	14458	2228.523207138781	6
3	14461	2229.185185810807	5
3	14465	2229.221647027175	6
3	14467	2229.887234289208	7
3	14468	2230.116970779118	6
3	14472	2230.589254051038	7
3	14473	2231.042311218777	6
3	14477	2231.324485574371	7
3	14478	2231.504607891734	6
3	14481	2232.283804423572	5
3	14484	2232.752951816959	4
3	14487	2233.343691414851	3
3	14491	2233.491361783253	4
3	14493	2233.71042123695	5
3	14494	2233.814221387101	4
3	14497	2234.472157113371	3
3	14500	2234.936522346153	2
3	14504	2235.191222266335	3
3	14505	2235.580171076697	2
3	14509	2236.327294495933	3
3	14510	2236.475738961785	2
3	14513	2237.280488346121	1
3	14516	2238.275927112228	0
3	14520	2238.934684988631	1
3	14521	2239.240274703153	0
3	14545	2246.069315244004	1
3	14546	2246.527078022133	0
3	14550	2246.711221276264	1
3	14552	2246.937856505146	2
3	14553	2247.1374136111	1
3	14557	2247.168411687992	2
3	14558	2247.550486109289	1
3	14562	2247.76489306343	2
3	14563	2248.282460655342	1
3	14567	2248.795137348713	2
3	14568	2248.904646174307	1
3	14571	2249.805986323091	0
3	14580	2250.841107574981	1
3	14582	2250.860135812778	2
3	14583	2251.142138129007	1
3	14587	2251.642582165936	2
3	14588	2252.129337714799	1
3	14591	2252.686700836197	0
3	14595	2253.517820288413	1
3	14596	2253.555260859384	0
3	14600	2254.036308293321	1
3	14602	2254.254788592554	2
3	14604	2254.362072844599	3
3	14605	2254.522144899704	2
3	14609	2254.730394181974	3
3	14611	2255.209276895379	4
3	14613	2255.34885954727	5
3	14614	2255.421905538207	4
3	14618	2255.743811722124	5
3	14620	2255.912994357794	6
3	14621	2256.26511239768	5
3	14624	2257.122682988923	4
3	14628	2257.476946659429	5
3	14629	2257.566238928912	4
3	14633	2257.933335398351	5
3	14639	2259.393177533848	4
3	14647	2260.545208975067	3
3	14650	2261.420767947612	2
3	14654	2261.725405125576	3
3	14655	2262.214707315759	2
3	14659	2262.231102254331	3
3	14660	2262.991748207062	2
3	14664	2263.196941301507	3
3	14665	2263.399518085317	2
3	14669	2263.974740944508	3
3	14670	2264.225298332748	2
3	14673	2265.027415593713	1
3	14677	2265.358148126836	2
3	14678	2265.799604097753	1
3	14687	2266.292400220502	2
3	14688	2267.122152068652	1
3	14692	2267.209005026538	2
3	14699	2267.854531720638	3
3	14701	2267.858497235202	4
3	14702	2268.299428834534	3
3	14710	2269.520521289995	2
3	14716	2269.757830316928	3
3	14721	2270.744646353507	4
3	14722	2270.880700169318	3
3	14731	2271.764534252318	4
3	14732	2272.148612570205	3
3	14741	2273.038463236147	4
3	14768	2276.862598819545	5
3	14770	2276.864952341815	6
3	14771	2277.050861843583	5
3	14774	2277.522839916172	4
3	14783	2278.557441728248	5
3	14785	2278.909700785844	6
3	14786	2278.960843249876	5
3	14792	2279.204306290768	6
[...]
6	169764	26823.608229079349	157.62830399812
6	169797	26828.502967402498	98.336729391555
6	169819	26831.501942277812	317.43191920938
6	169834	26833.85676895964	182.14813808148
6	169863	26837.117406244456	26.876221391506
6	169891	26840.921238025716	13.967068753653
6	170144	26873.498516400221	61.320911735927
6	170162	26876.429597689973	31.829855794396
6	170172	26877.509659210563	12.281894721768
6	170187	26879.601817917095	103.97025744104
6	170225	26884.627771184144	102.63642593719
6	170336	26897.741158342703	37.661877061092
6	170420	26908.840678670691	26.146305726592
6	170458	26914.564012215722	25.303020849274
6	170646	26941.001936985986	50.212541105771
6	170664	26944.192535011951	98.441297221425
6	170667	26944.858797975598	67.320490257148
6	170715	26950.266976661389	131.22205813917
6	170784	26959.912166922832	292.96703976943
6	170790	26961.063422108175	33.114007736703
6	170793	26961.660462650623	66.458181840784
6	170796	26962.480809696311	29.08454846116
6	170837	26967.923088285806	181.63087712812
6	170970	26985.665377295215	14.532903910873
6	170998	26990.914870383135	446.90206464367
6	171010	26992.35197875701	37.210383028825
6	171074	27002.63569591973	52.486261660379
6	171089	27004.681142426012	50.514720882432
6	171324	27034.992765026923	50.377446775628
6	171347	27038.535774145099	324.6815261193
6	171474	27055.617120796636	31.317669252084
6	171477	27056.211359547412	29.757337280008
6	171486	27058.07356397515	27.792161716954
6	171503	27060.690084015586	117.06875570895
6	171506	27061.514169000889	17.47907684321
6	171514	27062.682806212976	69.009296812569
6	171564	27070.371721889693	118.97931944625
6	171633	27078.459435730202	296.5132736823
6	171686	27085.659464197285	140.07902120013
6	171698	27086.933392344839	73.417798719015
6	171716	27089.730569824861	171.73476278171
6	171809	27104.456130137953	124.0962134433
6	171882	27113.271078923352	45.905626734736
6	171979	27127.120591989633	88.357954428497
6	172018	27132.07364981003	56.488073712961
6	172057	27135.803320095976	202.35080410993
6	172097	27141.414498382115	56.425512788855
6	172125	27144.98527318929	31.468414202738
6	172133	27146.09497910096	41.290176636963
6	172151	27149.339634498029	166.34866771484
6	172163	27150.839213223483	158.78358917147
6	172284	27167.268584463846	282.53485889657
6	172465	27191.400453296591	65.264426071334
6	172501	27196.983024463624	14.984754170474
6	172506	27197.806198947372	125.80547356706
6	172568	27205.593418587286	50.391403714677
6	172574	27206.992764739746	59.559612187776
6	172634	27215.806855286619	47.22665384101
6	172691	27223.310281472848	111.16703901004
6	172704	27225.164603056207	158.13795314533
6	172762	27232.900779213485	74.713423056155
6	172765	27233.349752185688	156.79306218287
6	172777	27234.855505856973	66.34748999288
6	172790	27237.078479333882	86.20682598218
6	172793	27237.581032956027	17.294959460235
6	172858	27246.278862948166	13.58963363249
6	172868	27247.984618836138	59.308728188832
6	172923	27256.984859760766	29.580371617853
6	172926	27257.440328127061	58.560698529575
6	172950	27259.731679172449	72.349067645948
6	172962	27260.765793825787	3.307611877424
6	173096	27279.231256747395	12.36229227222
6	173117	27282.946446957262	42.316303893821
6	173151	27287.080854070149	42.520401758012
6	173157	27288.759950710609	107.42451533096
6	173168	27291.056092085372	14.341026211998
6	173181	27292.356643341537	244.94989500459
6	173191	27294.000935954097	25.472132412936
6	173203	27295.685417177071	3.518076043196
6	173228	27299.192469100617	13.604223610561
6	173231	27300.188877422139	76.928181032728
6	173249	27302.819053989885	7.133024924857
6	173275	27307.277357121868	244.38470871504
6	173290	27311.351636193528	46.857246380535
6	173407	27337.52998451546	7.837715584262
6	173544	27358.268993889349	12.077191384194
6	173632	27373.900173313502	36.235274747332
6	173637	27374.777225621423	12.221631623839
6	173675	27383.970661970086	0.699988538657
6	173750	27415.066254550093	5.431156633051
6	173877	27441.602558919969	16.726853707602
6	174044	27463.74354823699	5.616563310809
6	174185	27483.935073684964	47.24360805943
6	174217	27489.860932888045	14.460946213781
6	174229	27491.663136738291	0.920769360662
6	174260	27497.061792756927	45.66600802589
6	174269	27498.800333123113	15.148576550282
6	174313	27504.248945639162	57.696951412357
6	174394	27515.406274259482	44.264479073201
6	174399	27516.267127823988	60.672355927445
6	174407	27517.81600294143	25.103748300617
6	174420	27520.271128620041	65.975903289432
6	174445	27523.783366247985	25.357643123634
6	174502	27531.855532501426	27.549797349406
6	174579	27542.497521616494	84.512776849901
6	174607	27547.396393858711	10.789201864785
6	174648	27552.799078369675	16.866331487545
6	174653	27553.603803179389	17.123106662362
6	174659	27555.000875633885	67.600685248074
6	174673	27556.380795364803	3.386405177352
6	174717	27561.930339298653	12.425528835767
6	174750	27566.455986589448	45.14369144794
6	174774	27570.267884323627	41.316310699472
6	174863	27582.315700522971	16.938640189103
6	175024	27606.081139759496	26.761680774997
6	175053	27610.51033626684	76.215690830974
6	175069	27613.360796382568	156.43779461203
6	175130	27623.889173721066	21.198305133376
6	175156	27628.906056382274	45.799801621091
6	175179	27631.782787748705	27.217641394342
6	175238	27639.895388851081	11.351221624055
6	175459	27673.530535081979	111.95445498608
6	175471	27675.213936026413	35.562592204557
6	175474	27675.75529220134	2.121786137348
6	175480	27677.407200164646	17.952311214191
6	175497	27680.500813850677	1.016263237733
6	175552	27692.362231284318	0.548618626874
6	175567	27695.888952812772	9.778731661424
6	175587	27698.339610317388	31.69511809341
6	175671	27710.474872578626	3.314792767664
6	175684	27712.640877414487	20.731326479686
6	176040	27760.285417906274	52.84961421117
6	176083	27766.179619411645	25.387965411333
6	176102	27769.694793917365	50.381541771222
6	176109	27770.503885454857	7.56049563369
6	176123	27773.349302005801	31.724470502211
6	176129	27774.637217916256	31.818930357275
6	176134	27775.504369507857	20.09485247043
6	176147	27777.886214314747	0.896482766327
6	176161	27779.458941622657	68.290614459692
6	176220	27787.542778526407	65.565446366528
6	176243	27791.061037214168	8.461784565644
6	176336	27803.507908910581	40.333637898723
6	176362	27807.771806180592	3.362001050027
6	176367	27808.375218907765	29.400653042382
6	176397	27811.794699422374	70.144920392937
6	176450	27818.858857135765	14.587174814743
6	176562	27833.253091937965	5.347847994123
6	176615	27840.899354907415	70.395004359884
6	176623	27842.32720759363	27.176837455591
6	176636	27843.80953110071	12.384074214399
6	176673	27848.488716314882	34.155739721144
6	176706	27853.594851648771	44.115752363997
6	176734	27858.031053370296	2.908931930581
6	176744	27859.383337003517	11.098526744519
6	176747	27859.961777373462	17.961525415126
6	176765	27862.762104619306	17.263974443742
6	176947	27890.125078413631	14.092528175998
6	176984	27895.540862197035	73.568216810702
6	177039	27904.947487368664	54.961230250824
6	177092	27913.607222738486	18.708767349099
6	177110	27919.423599687092	13.244468448818
6	177130	27938.253245974016	0.793694210332
6	177181	27946.204005679942	1.054910521076
6	177242	27955.445844542278	20.904635290734
6	177245	27956.313472454945	7.63076369744
6	177255	27958.911291670292	12.533437857291
6	177272	27962.236885435221	1.667564224591
6	177285	27966.452748816703	5.723591852372
6	177295	27973.450617237716	4.686704836974
6	177374	27997.249605061496	0.658525743522
6	177428	28003.571444372935	21.005396222981
6	177438	28005.297598865312	3.431422155623
6	177441	28005.869453779292	17.64605902539
6	177471	28010.0134948779	11.15938749576
6	177507	28016.364277351835	16.531431042087
6	177574	28025.098575424222	5.014494488222
6	177622	28032.537698775344	3.596952184839
6	177704	28044.748794740432	7.659179298533
6	177734	28049.176129651994	48.272810652136
6	177742	28050.731982404313	3.363490337224
6	177777	28056.089384434074	19.866158269141
6	177827	28063.513880260456	0.782898716206
6	177887	28074.726996878353	16.938232334983
6	177900	28077.081913705569	0.4261523603
6	177986	28090.736022064135	25.985599306199
6	177994	28092.047567303524	7.01142546445
6	178024	28096.106900246208	20.388099479983
6	178089	28106.9485271268	29.525130058406
6	178131	28113.853142152484	4.769430885729
6	178141	28115.701907109506	5.06454149486
6	178159	28118.467488979817	4.431561735326
6	178191	28122.745266040963	1.162562295859
6	178246	28131.675077322271	0.849369622026
6	178278	28136.205986358697	32.223327313823
6	178386	28150.370870049025	26.325461912562
6	178406	28154.051344119765	32.221945934641
6	178431	28157.729949069217	22.703032912934
6	178447	28160.030985182858	44.2843946514
6	178455	28161.233404898931	3.750566366287
6	178537	28182.658654592025	31.886225619552
6	178577	28192.260574807706	12.175103057835
6	178594	28198.177279205085	14.300036148088
6	178602	28199.634248364973	3.794711859319
6	178625	28204.849668717375	18.457747429249
6	178703	28215.224619167412	3.833619417037
6	178815	28230.741732624333	9.173650869875
6	178830	28232.598037842634	18.521124151207
6	178866	28237.531211064915	3.200955470318
6	178869	28237.969958223096	6.573957645013
6	178878	28238.909592361069	25.080291948915
6	178881	28239.673793463335	3.170015345696
6	178906	28242.843228596655	15.929892094837
6	178916	28244.344365670738	27.916461115586
6	178924	28246.102055264983	15.567628121323
6	178937	28249.064301375653	8.666544897843
6	178999	28257.784464425249	7.987152636812
6	179019	28260.81302721438	7.503813118552
6	179027	28262.448423888888	6.792577714435
6	179147	28284.248524092128	0.641590001574
6	179159	28285.80476441387	1.506895401634
6	179194	28292.094083607919	4.13430258248
6	179274	28307.735576707227	30.869535097605
6	179287	28309.634382316945	4.288273676159
6	179309	28313.619108142214	12.187717020464
6	179314	28314.402215395983	38.979900397409
6	179344	28319.046283014467	9.444729364151
6	179377	28323.120704899797	17.403312538416
6	179392	28325.104117572982	14.584966855765
6	179422	28330.43986957858	14.497245584803
6	179437	28332.622598090467	6.983917089137
6	179551	28349.625023700621	27.030925338684
6	179679	28367.864645522327	14.938227934159
6	179690	28370.006822624995	3.628219248167
6	179800	28386.208031013545	56.181341171054
6	179818	28389.709365797027	10.911117386129
6	179945	28405.325732406445	10.018392192355
6	179988	28411.991110581889	38.833345172501
6	180044	28420.158784792369	15.402283001501
6	180052	28421.50003686173	35.95028009143
6	180240	28448.030592329129	23.228852876112
6	180380	28468.086094689955	14.130442850585
6	180405	28471.403720912038	7.60334127882
6	180469	28480.126211158771	7.17326865123
6	180472	28481.013752914898	7.819956196242
6	180504	28485.157558690597	51.905073616812
6	180599	28499.563556709119	73.764255859164
6	180604	28499.985957158009	3.642948509082
6	180632	28504.247668320904	153.03724664097
6	180657	28507.949171332721	56.786252813107
6	180782	28532.902289312885	31.896426212872
6	180822	28537.610347000781	13.200128565804
6	180857	28544.331053824715	65.625576674497
6	180883	28547.098760070504	62.350333048994
6	180889	28548.664836075335	2.72399921065
6	180926	28553.421169460399	1.062972439951
6	181040	28569.303974061992	59.403126495284
6	181071	28574.234565579911	22.690451538096
6	181077	28575.358761620634	19.631716776779
6	181110	28579.0141884668	80.901585415799
6	181153	28584.544328986688	4.423415661543
6	181164	28586.631966327851	3.169912132825
6	181259	28600.690788616632	197.70696654841
6	181271	28601.954251596816	26.518621839304
6	181293	28603.97732005326	5.522697954954
6	181309	28606.863143178186	26.768212600771
6	181327	28611.256509184131	8.599447524652
6	181384	28620.133110147752	7.854149022505
6	181399	28622.470900677461	43.906345120785
6	181415	28625.084805918755	6.051133891841
6	181497	28638.538731227328	2.88087855482
6	181510	28642.023933611824	0.670427282713
6	181515	28643.68144285838	16.810663579442
6	181630	28670.129000568582	0.748644268393
6	181665	28676.925921761859	6.784528382419
6	181697	28684.161462646352	1.412481496965
6	181700	28685.141292885506	41.391791403763
6	181770	28713.892742069927	5.42202086546
6	181787	28721.533531141677	4.468363720535
6	181820	28734.497833758087	4.003818885058
6	181880	28748.898328549178	19.786235067975
6	181885	28751.450219274388	0.73602715712
6	181952	28768.347491357437	5.548739392019
6	181970	28776.451681691061	0.697022568202
6	181975	28777.696496511936	3.785621986646
6	182015	28785.286001533601	7.153582146128
6	182020	28787.624503412997	0.608482193155
6	182050	28796.375267675476	4.876032410222
6	182107	28817.140252713501	10.182988162539
6	182120	28820.085147409469	12.81418212457
6	182258	28843.330583529125	18.626990736178
6	182266	28844.93695169552	12.353357629091
6	182294	28849.063698103742	20.375500931452
6	182324	28855.978806237277	3.043606340408
6	182360	28862.462333481301	23.625921746102
6	182390	28884.023426907256	2.595477973933
6	182596	28913.775888922128	18.05351262114
6	182602	28914.777118194958	15.897896632551
6	182620	28919.691943530351	14.077657006317
6	182642	28927.674540827509	0.551925700204
6	182665	28932.430473306409	12.315607321347
6	182675	28934.381650049831	4.227222683342
6	182752	28950.725024449326	13.875445157065
6	182917	28990.06842368114	19.242665703989
6	182936	28991.950523331661	1.708600013285
6	182939	28992.676112953892	2.029360360679
6	182962	28995.348251824017	8.63976038252
6	183422	29057.480894680956	69.185442104741
6	183511	29069.473390829826	45.082098646418
6	184198	29159.03187772984	67.669229318214
6	184246	29164.521394054251	41.716191514946
6	184257	29166.168018534578	22.745298013569
6	184270	29168.715787774449	20.723712287162
6	184466	29194.153611839222	86.013021611326
6	184600	29211.013523921218	140.32422080762
6	184683	29223.103191056744	201.87767573842
6	184723	29228.179609156297	132.29687488063
6	184732	29228.92875661388	66.014590983753
6	184754	29231.815189947363	114.14578676572
6	184772	29234.613798397629	34.386745675062
6	184777	29235.462907132961	168.53126393067
6	184827	29243.038470482023	71.870444762011
6	184833	29244.709887939354	217.15349450212
6	185002	29267.021856334377	15.975609232556
6	185133	29284.320570316063	151.95462485114
6	185143	29286.154486245885	84.946534733782
6	185179	29290.021967335455	22.21818289316
6	185209	29294.557396013792	244.39163499571
6	185277	29303.818242657873	26.281486780626
6	185294	29305.589037806391	119.74333626606
6	185319	29309.405382489775	244.33970080723
6	185395	29320.29525439212	281.53478513881
6	185441	29327.240191915389	54.372932326571
6	185454	29329.193426514454	53.490488610315
6	185462	29331.015954401149	51.383161866033
6	185470	29332.487604741325	48.103306526625
6	185491	29336.535550140768	139.34028633814
6	185507	29338.361489186847	220.34381602493
6	185520	29340.484377373375	22.841978376166
6	185562	29346.152710073993	122.0265684384
6	185568	29347.88635203819	94.38388251171
6	185591	29350.270211888191	287.92268641977
6	185594	29351.179186784842	191.59119784074
6	185627	29356.415523547952	250.74639849235
6	185638	29358.808082642493	21.693382007524
6	185692	29366.384736128052	21.877934316152
6	185797	29381.93019291306	161.87201287894
6	185902	29397.387071594958	344.13416600103
6	185916	29400.135610505928	404.29830771379
6	185921	29400.688378245559	50.760373149716
6	185949	29404.491815900373	308.84211488536
6	186049	29419.224622136483	173.6489053627
6	186067	29421.611805216863	167.23508730104
6	186077	29422.973255279974	139.69306508555
6	186114	29427.983370823679	91.18341448779
6	186129	29430.192920880752	69.321535253133
6	186156	29433.732212449412	20.675629016115
6	186171	29435.938739421533	95.083187467503
6	186191	29439.301167434676	97.793732308506
6	186239	29446.438566396468	410.51482935328
6	186325	29459.886725712974	393.53835639908
6	186359	29465.393592517531	228.42165493371
6	186404	29470.436549040988	18.468794875815
6	186460	29477.060917122603	73.621669682883
6	186468	29478.067915598058	287.96563111228
6	186491	29481.919113979941	51.750374731289
6	186525	29487.461670297883	166.61364281342
6	186569	29493.476545950803	18.678993714212
6	186584	29495.012022092366	73.246675351595
6	186604	29498.454491671906	70.727299304827
6	186610	29499.948128794772	163.25806987676
6	186664	29508.295666196836	144.70664306673
6	186700	29513.544991356029	43.564084417332
6	186717	29515.649737956131	43.700577724166
6	186729	29517.079980093556	62.971219719646
6	186802	29525.361658421846	57.093876721269
6	186857	29534.744502169208	107.065096932
6	186866	29537.090031640965	70.152029392223
6	186888	29540.062629466633	15.787222253145
6	186952	29549.138131924989	30.944581458403
6	186979	29552.727721574335	31.267568209833
6	187014	29560.407921729183	110.35167880647
6	187129	29575.269406058494	367.13232177061
6	187141	29577.633146107796	255.3773726064
6	187150	29578.405815058056	230.48213242691
6	187187	29583.499158947491	99.60102534711
6	187291	29599.6014459304	85.098702013697
6	187441	29620.054644836575	270.77793217083
6	187640	29646.436507434627	90.007276434129
6	187648	29648.034465076445	162.46308479543
6	187736	29660.885810709601	638.33543898196
6	187765	29666.48309592227	149.65833662585
6	187768	29667.202959974851	591.85489596682
6	187807	29671.797176662687	58.131970742223
6	187940	29690.08173090624	63.335040923778
6	187956	29692.730448649118	48.174404999821
6	188016	29702.337187516544	107.05673671265
6	188023	29702.954438114021	34.706641544826
6	188041	29705.308687131381	70.652769574302
6	188044	29706.140663658962	507.13596682678
6	188067	29710.515308497422	35.73670682244
6	188077	29712.043675159053	32.081591508775
6	188208	29729.421653334652	297.22366400899
6	188226	29732.504068227107	54.554712534082
6	188238	29734.359791038972	189.71507375495
6	188266	29738.430079288776	123.49620483325
6	188274	29739.633408461041	116.40527228956
6	188281	29740.337051400305	19.314576804273
6	188388	29754.280485845352	276.97281962854
6	188427	29760.336534717814	49.271436619053
6	188440	29762.33612778964	27.64453847958
6	188466	29767.494330044272	64.802863555731
6	188517	29775.636392620015	75.493392379687
6	188539	29778.084347984981	36.61120844809
6	188550	29780.193762117991	90.176160627225
6	188606	29788.156552144648	42.504209240855
6	188650	29795.672487423704	136.51268192769
6	188667	29798.714964189375	220.58508137181
6	188748	29811.611179961104	78.595665253122
6	188751	29812.013865784815	78.014753186121
6	188754	29812.935094829582	26.963149099528
6	188768	29814.302872819993	25.743232567806
6	188777	29815.287129123397	268.06895284209
6	188795	29817.847573237755	91.662701398595
6	188816	29819.945576736733	91.164911249652
6	188822	29821.042546604836	147.50736554582
6	188848	29825.183378680359	256.43073175929
6	188873	29829.275334084529	15.536512289485
6	188878	29829.786487024121	11.362918797619
6	188956	29841.722873706285	101.82214445601
6	188981	29845.026166188166	413.18380806888
6	188989	29846.850412996308	5.278751866666
6	189012	29850.084437966821	39.887863056286
6	189015	29850.821214688205	29.616367765772
6	189035	29866.221908443084	0.42568425769
6	189089	29884.086948816181	1.710561503367
6	189097	29885.506019711337	6.483967570628
6	189100	29886.319693554128	7.007662389636
6	189127	29890.221042436537	3.89891070428
6	189175	29899.227487596468	1.497630599964
6	189216	29907.683800014485	1.036771328251
6	189232	29909.882713254498	7.64447246229
6	189240	29911.522698120217	3.898240286256
6	189249	29912.774217425177	0.86042466308
6	189256	29913.457939716132	0.956256725042
6	189266	29915.001219166658	1.964652049416
6	189491	29945.786634128941	16.721520187614
6	189525	29951.286068292875	23.277230155147
6	189691	29976.258251973785	22.9951166042
6	189729	29980.697127591012	5.683865773775
6	189740	29982.819130454384	7.189664827016
6	189758	29985.017532745873	85.404521819152
6	189774	29987.441929068914	6.827641759319
6	189777	29988.247621178892	59.608162910157
6	189782	29988.867592495479	41.52097408855
6	189796	29991.714715709196	57.57013223038
6	189829	29995.208941055121	22.734684488135
6	189840	29996.812328481054	21.215066098266
6	189863	29999.837304762736	16.728963196973

