version 2
run First_exit_8-5-20191017-13:43:32-1856
attr configname First_exit_8
attr datetime 20191017-13:43:32
attr experiment First_exit_8
attr inifile omnetpp.ini
attr iterationvars ""
attr iterationvarsf ""
attr measurement ""
attr network ResponseTimeNetwork
attr processid 1856
attr repetition 5
attr replication #5
attr resultdir results
attr runnumber 5
attr seedset 5
param **.Source.interArrivalTime exponential(4s)
param **.jobPriority bernoulli(0.4)
param **.PS.serviceTimeU1 "uniform(0.4s, 1.0s)"
param **.PS.serviceTimeU2 "uniform(1s, 1.2s)"
param **.SS1.serviceTime exponential(0.4s)
param **.SS2.serviceTime exponential(0.8s)
param **.PS.exitProbability bernoulli(0.8)

vector 0 ResponseTimeNetwork.SS1 queueLength:vector ETV
attr interpolationmode sample-hold
attr title "queue length, vector"
vector 1 ResponseTimeNetwork.SS2 queueLength:vector ETV
attr interpolationmode sample-hold
attr title "queue length, vector"
vector 2 ResponseTimeNetwork.QueueU1 queueLength:vector ETV
attr interpolationmode sample-hold
attr title "queue length, vector"
vector 3 ResponseTimeNetwork.QueueU2 queueLength:vector ETV
attr interpolationmode sample-hold
attr title "queue length, vector"
vector 4 ResponseTimeNetwork.sink lifeTimeU2:vector ETV
attr interpolationmode none
attr title "lifetime of arrived jobs U2, vector"
attr unit s
vector 5 ResponseTimeNetwork.sink lifeTime:vector ETV
attr interpolationmode none
attr title "lifetime of arrived jobs, vector"
attr unit s
vector 6 ResponseTimeNetwork.sink lifeTimeU1:vector ETV
attr interpolationmode none
attr title "lifetime of arrived jobs U1, vector"
attr unit s
3	0	0	0
3	95	19.06695502275	1
3	96	19.140406774544	0
3	135	42.35296535637	1
3	136	42.729937026941	0
3	140	43.137191836421	1
3	141	43.236284703308	0
3	150	44.591830835407	1
3	151	44.967668051076	0
3	160	46.226463652608	1
3	161	46.395348047315	0
3	220	65.707330810576	1
3	221	66.206309060265	0
3	225	66.27686922177	1
3	227	66.513508299221	2
3	228	66.989635669139	1
3	232	67.690330226983	2
3	233	67.924048624771	1
3	236	68.883605462803	0
3	264	81.280106258383	1
3	276	82.832750125355	2
3	298	86.797591237761	1
3	301	87.574089284744	0
3	310	89.118262386155	1
3	311	89.348282642663	0
3	315	89.671113991831	1
3	316	89.878652375332	0
3	320	90.561443121784	1
3	321	90.831534713228	0
3	330	93.288425520624	1
3	331	93.597016100197	0
3	335	93.609110026315	1
3	337	93.787424360447	2
3	338	94.046659238248	1
3	342	94.750426526092	2
3	343	94.876246170311	1
3	346	95.855340698951	0
3	350	96.538250271737	1
3	351	96.717300302939	0
3	355	96.779676141356	1
3	357	97.281974740735	2
3	358	97.707458253655	1
3	362	98.249304620456	2
3	363	98.567857080357	1
3	367	98.975825789423	2
3	368	99.168266143588	1
3	372	99.350184961249	2
3	373	99.618098808344	1
3	377	100.178527077974	2
3	378	100.22310323113	1
3	382	100.378818392736	2
3	383	100.841263108918	1
3	386	101.361373805472	0
3	390	101.731850057694	1
3	391	101.989951930692	0
3	395	102.171172254801	1
3	397	102.416651527986	2
3	398	102.795177606618	1
3	402	102.847577631536	2
3	403	103.647238305196	1
3	406	104.098280584471	0
3	414	104.614588008837	1
3	422	105.986432341625	2
3	424	106.237827478891	3
3	425	106.792625865931	2
3	428	107.70511287766	1
3	432	107.854608799552	2
3	433	108.684110863539	1
3	436	109.294526999383	0
3	440	109.361103334562	1
3	442	109.798116046674	2
3	444	109.915711106909	3
3	445	110.13771779424	2
3	448	110.602211510422	1
3	452	110.675328815166	2
3	454	110.758711967497	3
3	455	111.350762623255	2
3	459	111.738653306162	3
3	461	111.960162077719	4
3	462	112.31238867546	3
3	466	112.33768859482	4
3	467	112.943097301373	3
3	470	113.561923409287	2
3	473	114.497323370898	1
3	477	114.70664864514	2
3	479	114.786782480796	3
3	480	115.172930731099	2
3	484	115.279607168842	3
3	485	115.952674056111	2
3	488	116.477341532694	1
3	492	116.55190449013	2
3	493	117.094817097239	1
3	496	117.792834403027	0
3	510	120.754037894611	1
3	512	120.846523730509	2
3	513	121.006212672544	1
3	517	121.431823501648	2
3	518	121.828382621658	1
3	526	123.101892190798	0
3	532	123.395829345235	1
3	537	124.021658330395	2
3	538	124.516776548278	1
3	547	125.215894930724	2
3	548	125.565436950604	1
3	557	126.565529627277	2
3	558	127.013715188344	1
3	562	127.263566076867	2
3	563	127.669204405834	1
3	567	128.173983999606	2
3	568	128.454614127054	1
3	571	129.290687753492	0
3	580	130.055989575533	1
3	587	130.79909392615	2
3	588	131.031585381505	1
3	599	131.763681113449	2
3	663	141.621241018641	1
3	666	142.093102430645	0
3	725	150.591148886731	1
3	736	152.834750375245	0
3	753	153.817698594655	1
3	766	156.005586671452	2
3	768	156.068353022481	3
3	778	157.455253682957	4
3	789	158.687405975502	5
3	822	163.604927040064	6
3	861	168.51542609381	7
3	874	170.121543957157	8
3	893	172.493377127286	9
3	897	173.54846006073	8
3	913	174.966861294846	9
3	918	175.921976403433	10
3	919	176.145475504919	9
3	930	177.073155440452	10
3	950	179.731888452007	11
3	952	179.888273744593	12
3	953	179.963350997026	11
3	962	180.432102036883	12
3	963	180.779788456623	11
3	972	181.523303199912	12
3	973	181.783167053246	11
3	981	183.447330367751	10
3	989	184.605742000508	9
3	992	185.058686430053	8
3	995	185.540813846187	7
3	999	186.337077286586	8
3	1000	186.474753235047	7
3	1003	186.909268061164	6
3	1006	187.681391850206	5
3	1010	187.727042435127	6
3	1011	188.619598153745	5
3	1014	189.198861557012	4
3	1018	189.309492239683	5
3	1020	189.804906487042	6
3	1021	189.842901343014	5
3	1025	189.885292072195	6
3	1027	189.967260513833	7
3	1029	190.532537972677	8
3	1030	190.810440880991	7
3	1034	190.903262667603	8
3	1035	191.742121457168	7
3	1039	191.941169588826	8
3	1041	191.962656254384	9
3	1042	192.674752116901	8
3	1045	193.671347668626	7
3	1049	194.246759834362	8
3	1050	194.53010925888	7
3	1054	195.386937129849	8
3	1055	195.467309452267	7
3	1058	195.909951547859	6
3	1062	196.247776788308	7
3	1063	196.764001546427	6
3	1067	197.490513121642	7
3	1068	197.585891273431	6
3	1072	198.250083165852	7
3	1073	198.303369307052	6
3	1077	198.617482773917	7
3	1079	198.92778047838	8
3	1080	199.095067235967	7
3	1086	199.628520144695	8
3	1095	201.57118083816	7
3	1103	203.22854454536	6
3	1107	203.26666103223	7
3	1108	203.834229363967	6
3	1112	204.339981670979	7
3	1113	204.80132012046	6
3	1117	205.254083434936	7
3	1118	205.51318001696	6
3	1122	205.990220219458	7
3	1123	206.401576835896	6
3	1127	206.778752468365	7
3	1128	206.905303098728	6
3	1132	207.238520363732	7
3	1133	207.685368601327	6
3	1137	207.867791431766	7
3	1138	208.302891218524	6
3	1141	209.18814365687	5
3	1144	209.684089681135	4
3	1147	210.431999522076	3
3	1151	210.995760799257	4
3	1152	211.236924446934	3
3	1156	211.615336755818	4
3	1157	211.989171003132	3
3	1160	212.463728710218	2
3	1164	212.825504393509	3
3	1166	213.108378101174	4
3	1167	213.317827645131	3
3	1171	213.818285304457	4
3	1173	213.950090112766	5
3	1174	214.026567257336	4
3	1178	214.492305223793	5
3	1179	214.926536289789	4
3	1182	215.825188986538	3
3	1186	215.870219551357	4
3	1188	216.162609639582	5
3	1189	216.340363505995	4
3	1193	216.659845566104	5
3	1194	216.766086677089	4
3	1197	217.340730880713	3
3	1206	218.114732786942	4
3	1207	218.277542451863	3
3	1210	218.917067850987	2
3	1219	220.131119608533	3
3	1220	220.521833361733	2
3	1224	220.601881835119	3
3	1228	221.446988668747	4
3	1233	222.003195591212	5
3	1234	222.268420110457	4
3	1237	223.119176461688	3
3	1240	223.731911953958	2
3	1243	224.144316275884	1
3	1247	224.574944077329	2
3	1249	224.613091822194	3
3	1251	224.812174303237	4
3	1252	224.883268942265	3
3	1256	225.146781521626	4
3	1257	225.832509382768	3
3	1261	226.61780796995	4
3	1262	226.690189260198	3
3	1266	226.713770320787	4
3	1268	227.338159073896	5
3	1269	227.655296221795	4
3	1273	227.992592417949	5
3	1274	228.338370831497	4
3	1277	229.151078885561	3
3	1280	230.04132978539	2
3	1284	230.247214848944	3
3	1285	230.585699589085	2
3	1289	230.962713881167	3
3	1290	231.240398857463	2
3	1293	232.148954625288	1
3	1296	233.10522746942	0
3	1300	233.274202772046	1
3	1301	233.998402683809	0
3	1305	234.158351156883	1
3	1307	234.395787610053	2
3	1308	234.665923893358	1
3	1312	234.946263620805	2
3	1313	235.288540310598	1
3	1317	235.308835889768	2
3	1318	235.701699451123	1
3	1324	236.102938604578	2
3	1329	236.748771610481	3
3	1330	236.88733638171	2
3	1339	237.550638881432	3
3	1340	238.110590879106	2
3	1346	238.790144108656	3
3	1348	238.846298922876	4
3	1352	239.265070031489	3
3	1356	239.309692520653	4
3	1357	240.029031764342	3
3	1361	240.369872462169	4
3	1362	240.867760865855	3
3	1366	241.11491260563	4
3	1367	241.852850881823	3
3	1371	242.113817565818	4
3	1372	242.328943428536	3
3	1375	243.076967957382	2
3	1379	243.313843234414	3
3	1380	244.062363638309	2
3	1384	244.355611252975	3
3	1386	244.495789697501	4
3	1387	244.622157768392	3
3	1390	245.299971573939	2
3	1394	245.53355694382	3
3	1396	245.67127605579	4
3	1398	245.827845833344	5
3	1400	245.904452680636	6
3	1401	246.231898101	5
3	1404	246.698423067341	4
3	1408	247.363008597957	5
3	1410	247.421912064019	6
3	1412	247.451262745638	7
3	1413	247.493252829835	6
3	1417	247.679594681352	7
3	1418	248.47746907319	6
3	1422	248.657725037522	7
3	1423	249.381409569551	6
3	1427	249.450671658024	7
3	1428	249.862890989893	6
3	1432	250.468171557859	7
3	1439	251.014093736787	8
3	1440	251.436005534046	7
3	1443	251.913266057615	6
3	1449	252.129824815258	7
3	1451	252.365589025373	8
3	1455	252.859619536205	7
3	1461	253.67337410282	8
3	1465	254.580577981753	7
3	1471	254.900946357939	8
3	1476	256.167420485492	9
3	1477	256.258979759088	8
3	1486	256.741085394941	9
3	1487	257.383428922671	8
3	1496	258.534310278343	9
3	1498	258.828226645557	10
3	1499	258.904391063147	9
3	1508	260.13642193901	10
3	1509	260.279151356735	9
3	1532	264.435260036031	8
3	1545	266.54512005821	7
3	1553	268.14688616316	6
3	1561	269.683468660807	5
3	1565	269.778823687229	6
3	1571	270.820757999272	5
3	1579	272.011678942806	4
3	1588	272.921966224205	5
3	1590	273.227993697151	6
3	1591	273.358222605988	5
3	1599	275.276241791715	4
3	1607	275.734169298763	5
3	1609	275.850060614173	6
3	1617	276.767789356365	7
3	1653	281.847497212283	6
3	1656	282.306544109063	5
3	1662	282.759012126007	6
3	1669	283.398611452829	7
3	1674	284.084085107415	8
3	1675	284.693450439862	7
3	1678	285.536206893996	6
3	1687	286.758603338139	7
3	1688	287.001073255344	6
3	1691	287.795392157045	5
3	1695	288.392395417194	6
3	1696	288.472354222509	5
3	1700	289.16000070632	6
3	1702	289.236565225157	7
3	1703	289.33004545197	6
3	1712	289.966784395825	7
3	1714	290.084772402397	8
3	1715	290.309127389966	7
3	1723	291.668952520425	6
3	1729	291.856727977895	7
3	1734	292.795066388156	8
3	1735	293.463452938805	7
3	1738	293.943250610959	6
3	1744	294.138891475202	7
3	1749	295.282789132832	8
3	1750	295.33586833831	7
3	1758	296.345827686974	6
3	1761	297.134874046222	5
3	1765	297.281064197646	6
3	1766	298.002282164293	5
3	1770	298.014083825627	6
3	1771	298.991139309016	5
3	1775	299.233346285963	6
3	1776	299.411731526722	5
3	1779	300.117364219018	4
3	1783	300.536519845273	5
3	1785	300.606397346015	6
3	1786	300.782148399112	5
3	1789	301.74041172173	4
3	1793	302.055448034125	5
3	1794	302.251536026086	4
3	1797	302.73279974186	3
3	1800	303.272249460175	2
3	1804	303.477773073092	3
3	1805	303.675071332512	2
3	1809	303.824592690889	3
3	1810	304.494543875103	2
3	1813	305.244950242435	1
3	1817	305.646438920684	2
3	1818	305.717891439564	1
3	1821	306.151937030117	0
3	1830	308.555609659242	1
3	1832	308.57787547194	2
3	1833	308.613911016233	1
3	1837	308.752116601786	2
3	1839	308.86556505942	3
3	1841	309.01900569742	4
3	1842	309.580127893662	3
3	1846	309.614444066758	4
3	1847	310.184343382245	3
3	1851	310.721610251263	4
3	1852	310.726549648115	3
3	1856	310.953003086328	4
3	1857	311.329554938798	3
3	1861	311.689728976133	4
3	1862	311.867683239461	3
3	1865	312.592149487038	2
3	1869	313.109944635504	3
3	1870	313.163146223214	2
3	1873	313.729806919296	1
3	1877	313.986519107407	2
3	1878	314.53555003525	1
3	1887	315.852726321273	2
3	1888	316.355224075441	1
3	1897	317.038944173406	2
3	1899	317.518046233227	3
3	1901	317.608139799088	4
3	1902	317.754226752038	3
3	1911	318.359256091263	4
3	1912	318.91599895241	3
3	1920	320.278472276723	2
3	1923	320.80615954892	1
3	1926	321.213664754892	0
3	1932	321.823969038483	1
3	1936	322.663308112689	0
3	1945	323.466611613765	1
3	1946	323.968509357928	0
3	1950	324.159436212913	1
3	1957	324.845961817484	2
3	1958	325.050575209496	1
3	1967	326.04580097797	2
3	1968	326.190054252272	1
3	1986	328.645989298581	0
3	2007	330.982638730527	1
3	2021	333.301888484639	2
3	2060	338.367086391564	3
3	2131	348.651623465841	4
3	2140	349.012407002331	5
3	2154	351.529663861397	4
3	2163	352.493991484133	5
3	2164	352.785817698802	4
3	2167	353.440401181386	3
3	2171	353.455226248247	4
3	2180	354.583409571669	5
3	2184	355.881916888051	4
3	2193	356.407007440993	5
3	2194	356.800900420773	4
3	2198	356.889250243213	5
3	2199	357.280744321359	4
3	2203	357.356666466846	5
3	2210	358.558283869467	6
3	2211	358.909696177201	5
3	2219	360.543605319265	4
3	2228	361.317151982341	5
3	2229	361.964558518719	4
3	2238	363.648992020414	5
3	2239	363.894776477519	4
3	2247	365.463114556571	3
3	2256	366.816919908783	4
3	2257	367.074040986033	3
3	2260	367.953738061845	2
3	2263	368.574775071343	1
3	2266	369.053314442275	0
3	2270	369.161476439996	1
3	2271	370.046759206423	0
3	2275	370.60231954522	1
3	2276	370.610923017928	0
3	2285	372.81429688303	1
3	2287	372.953241253382	2
3	2289	373.010662179569	3
3	2290	373.659911107773	2
3	2294	373.944030753807	3
3	2295	374.222846659774	2
3	2299	374.442653013045	3
3	2300	374.692074559525	2
3	2304	375.578594706075	3
3	2305	375.675798812544	2
3	2309	375.951195703199	3
3	2310	376.26956816892	2
3	2314	376.736728212469	3
3	2315	376.815353393032	2
3	2319	376.84498509801	3
3	2321	377.351198483837	4
3	2322	377.497300315731	3
3	2325	377.913448861045	2
3	2329	378.300666791046	3
3	2330	378.37857231073	2
3	2334	378.742164495842	3
3	2335	378.884049286031	2
3	2338	379.610402835895	1
3	2342	379.632194504026	2
3	2344	380.021046521652	3
3	2346	380.453964772142	4
3	2347	380.457321719954	3
3	2351	380.537242921438	4
3	2353	380.867828347724	5
3	2354	380.880096705526	4
3	2358	380.979964075663	5
3	2359	381.333019976493	4
3	2363	381.445963956307	5
3	2364	381.961978521513	4
3	2367	382.623456321599	3
3	2371	382.758433389375	4
3	2373	382.800160037021	5
3	2375	383.223662351468	6
3	2376	383.489386912843	5
3	2380	383.490002422184	6
3	2382	383.700935993277	7
3	2384	383.755853721981	8
3	2385	383.894407332677	7
3	2389	384.056900755906	8
3	2391	384.413381925909	9
3	2392	384.851477222738	8
3	2396	385.059823139205	9
3	2397	385.266094003745	8
3	2400	385.823522013926	7
3	2404	386.070389925127	8
3	2405	386.612757542671	7
3	2408	387.321706253325	6
3	2412	387.725180415237	7
3	2413	388.219675527967	6
3	2417	388.34398545342	7
3	2418	388.907268665347	6
3	2421	389.460117434652	5
3	2425	389.578671888617	6
3	2426	390.09040181305	5
3	2430	390.977184980776	6
3	2431	391.004350838798	5
3	2435	391.340426749007	6
3	2436	391.5674432475	5
3	2440	391.647357441946	6
3	2441	392.473837601335	5
3	2445	392.965253282046	6
3	2446	393.46702006039	5
3	2449	394.282464396244	4
3	2453	394.621926981759	5
3	2454	394.880959292211	4
3	2458	394.953938644211	5
3	2459	395.353035958054	4
3	2463	395.928196860494	5
3	2464	395.97251755678	4
3	2467	396.740049356072	3
3	2470	397.383332813195	2
3	2474	397.87825238612	3
3	2476	397.934298976586	4
3	2477	398.297509917094	3
3	2486	398.828579434424	4
3	2488	398.946799294939	5
3	2489	399.733365326085	4
3	2498	401.154223770359	5
3	2499	401.197470178957	4
3	2507	402.86470175282	3
3	2511	403.087197197704	4
3	2518	403.471236311681	5
3	2520	404.083972287764	6
3	2521	404.236172247202	5
3	2532	404.732958439861	6
3	2539	405.716985857904	7
3	2548	407.13039124635	6
3	2554	407.529888664106	7
3	2558	408.465080933589	6
3	2566	409.688173267701	5
3	2574	411.055099012879	4
3	2578	411.258259949229	5
3	2579	411.484790056794	4
3	2585	412.101939122898	5
3	2590	412.892083228282	6
3	2591	413.221440174421	5
3	2599	414.584005187116	4
3	2602	415.088315120842	3
3	2605	415.653651665235	2
3	2609	415.950784479699	3
3	2611	416.042568111431	4
3	2612	416.602753970996	3
3	2615	417.375270208009	2
3	2618	418.025294287866	1
3	2622	418.16418611581	2
3	2624	418.498704872682	3
3	2626	418.512666799954	4
3	2627	418.685909327623	3
3	2631	418.690654010781	4
3	2633	418.76153182326	5
3	2635	419.496401660102	6
3	2636	419.644427736141	5
3	2639	420.588833836317	4
3	2643	420.638654519402	5
3	2645	420.765917470028	6
3	2652	421.852885933041	7
3	2653	422.313174403682	6
3	2657	422.460084234501	7
3	2658	422.834176171003	6
3	2662	423.092907350484	7
3	2663	423.530660398202	6
3	2666	424.4020394063	5
3	2669	425.250896989499	4
3	2673	425.538103396633	5
3	2675	425.552169971158	6
3	2677	425.626423666932	7
3	2678	425.742157495945	6
3	2682	426.462111334559	7
3	2683	426.72818312076	6
3	2686	427.572984537567	5
3	2690	428.004690436076	6
3	2691	428.040272951118	5
3	2694	428.859764561002	4
3	2698	428.958313988192	5
3	2699	429.690856401753	4
3	2703	429.992683481436	5
3	2704	430.510219488144	4
3	2707	431.087721956931	3
3	2711	431.355960870802	4
3	2712	431.853984954152	3
3	2716	431.901446942136	4
3	2718	432.324889635122	5
3	2720	432.414486439859	6
3	2721	432.497613972556	5
3	2727	433.090325465335	6
3	2729	433.22082801058	7
3	2734	434.185433849841	8
3	2735	434.421889004568	7
3	2738	435.215646220968	6
3	2742	435.239858783117	7
3	2743	435.642562713419	6
3	2746	436.620261948966	5
3	2754	437.887860996733	4
3	2760	438.37281159658	5
3	2765	439.126789043514	6
3	2766	439.151656993702	5
3	2777	440.394722146524	6
3	2784	441.197491358874	7
3	2793	442.824006970123	6
3	2814	445.903126295684	7
3	2838	448.693605845136	8
3	2931	461.112855127518	9
3	2947	463.787823369251	8
3	2950	464.687344867307	7
3	2954	464.744213939988	8
3	2955	465.647348339799	7
3	2959	465.651409425127	8
3	2966	466.865456432154	9
3	2967	466.95830932659	8
3	2976	467.809441423199	9
3	2977	468.431658058277	8
3	2983	468.625181543305	9
3	2988	469.515753694029	10
3	2989	470.2235659663	9
3	2992	471.217190431887	8
3	3001	472.489428327705	9
3	3002	472.834360049003	8
3	3011	473.765524637027	9
3	3012	474.06326107121	8
3	3021	475.854716595501	9
3	3022	475.857194047319	8
3	3031	476.792148391366	9
3	3032	477.114745389102	8
3	3040	478.396607307801	7
3	3046	478.767633625173	8
3	3050	479.306270206524	7
3	3058	480.674011740824	6
3	3061	481.378829850293	5
3	3070	482.813341604419	6
3	3071	483.233835363192	5
3	3077	483.550001273684	6
3	3084	484.090600095676	7
3	3086	484.550596846037	8
3	3106	486.955774172128	9
3	3107	487.701795664745	8
3	3116	488.282455230522	9
3	3142	492.667480565039	8
3	3145	493.215359860695	7
3	3151	493.50894830348	8
3	3153	493.681630421945	9
3	3157	494.897389487633	8
3	3161	495.002435590417	9
3	3168	495.782283535791	10
3	3169	495.92176532572	9
3	3172	496.881576660963	8
3	3176	496.996532549693	9
3	3177	497.492913161487	8
3	3180	498.317957671023	7
3	3183	498.997164657981	6
3	3187	499.091386920215	7
3	3189	499.693792529571	8
3	3190	499.778057388066	7
3	3193	500.558105622268	6
3	3197	500.698003659258	7
3	3198	501.501531987347	6
3	3201	502.100262463548	5
3	3204	502.595569249931	4
3	3208	502.763064106335	5
3	3209	503.363544504148	4
3	3213	504.158215706555	5
3	3214	504.271372381774	4
3	3217	505.076618440393	3
3	3221	505.517091625999	4
3	3228	505.93640624285	5
3	3229	506.206965470351	4
3	3233	506.22357404859	5
3	3237	506.572426630982	6
3	3242	507.052345165033	7
3	3244	507.095947084846	8
3	3245	507.420264040669	7
3	3254	507.891178764711	8
3	3256	507.984597642607	9
3	3257	508.300708627271	8
3	3265	508.991934423587	9
3	3270	509.235095176157	10
3	3274	509.893619495526	9
3	3283	510.81854560372	10
3	3284	511.235036066163	9
3	3292	512.665012794675	8
3	3301	513.783910014354	9
3	3302	513.985559976788	8
3	3311	514.590899811279	9
3	3312	515.38098968597	8
3	3320	516.819205694961	7
3	3324	517.030684336756	8
3	3331	517.801406306685	9
3	3332	518.489301483183	8
3	3336	519.08692109778	9
3	3342	520.303699305178	8
3	3346	520.329332773942	9
3	3353	521.323068841138	10
3	3354	521.874170718845	9
3	3363	522.699235184881	10
3	3365	522.934930092698	11
3	3366	523.490155202886	10
3	3374	524.317160623698	9
3	3380	524.899613232862	10
3	3385	525.605715023572	11
3	3386	525.811983832382	10
3	3390	526.02221600358	11
3	3396	527.173503054017	10
3	3400	527.572758169075	11
3	3401	527.92636346518	10
3	3405	528.005927383624	11
3	3407	528.20280720544	12
3	3408	528.790182854644	11
3	3412	529.335109296973	12
3	3413	529.585518372095	11
3	3416	530.50534324915	10
3	3420	530.583558871597	11
3	3421	531.255306899863	10
3	3425	531.577056445553	11
3	3426	532.231551729924	10
3	3430	533.053891643106	11
3	3431	533.170168337681	10
3	3434	533.700055399992	9
3	3438	534.320912426053	10
3	3439	534.464536643204	9
3	3442	535.226561275207	8
3	3446	535.621113520132	9
3	3447	535.733986282059	8
3	3450	536.36515593877	7
3	3453	536.895278295492	6
3	3457	537.132333062009	7
3	3458	537.837221084944	6
3	3462	538.507771849824	7
3	3463	538.736229862821	6
3	3467	538.790743257707	7
3	3469	539.701632478448	8
3	3470	539.727274827183	7
3	3473	540.633385240556	6
3	3476	541.107625607391	5
3	3479	541.977627211752	4
3	3483	542.048818566384	5
3	3485	542.173470772537	6
3	3487	542.613636587313	7
3	3488	542.627394041082	6
3	3492	543.263122646447	7
3	3496	543.534774493415	8
3	3498	543.587821948087	9
3	3503	543.90605472063	10
3	3504	544.022249833111	9
3	3513	545.331425936666	10
3	3514	545.723912378436	9
3	3518	545.757105919338	10
3	3527	547.104362085474	11
3	3536	548.61592154865	10
3	3540	549.012548889031	11
3	3541	549.358406508005	10
3	3544	550.099212178903	9
3	3547	550.591807327688	8
3	3551	550.641976209419	9
3	3552	551.058375575941	8
3	3555	551.74758122078	7
3	3559	552.02920168127	8
3	3561	552.221949656965	9
3	3562	552.327120391455	8
3	3565	553.109270117561	7
3	3569	553.743736210072	8
3	3570	553.787979670836	7
3	3574	553.981768808639	8
3	3575	554.233255803807	7
3	3579	554.281227353359	8
3	3580	554.680798864261	7
3	3583	555.275224661118	6
3	3587	555.368434030792	7
3	3588	555.716445442558	6
3	3592	555.959293663865	7
3	3593	556.149287949492	6
3	3596	556.833967363545	5
3	3600	557.052979948536	6
3	3601	557.809850353551	5
3	3604	558.512034532371	4
3	3607	558.975324922278	3
3	3611	559.388872312582	4
3	3613	559.468419185899	5
3	3614	559.864051416413	4
3	3618	560.136188558515	5
3	3620	560.181188409391	6
3	3621	560.378042845604	5
3	3624	560.855032423454	4
3	3628	561.650810008131	5
3	3629	561.745356422	4
3	3632	562.34564567305	3
3	3636	562.689470544423	4
3	3638	562.779507302351	5
3	3639	563.208620577947	4
3	3643	563.394498139847	5
3	3645	563.635465825295	6
3	3646	564.200920563553	5
3	3649	565.112053187134	4
3	3653	565.356752859662	5
3	3654	565.851185774001	4
3	3658	565.872756660769	5
3	3660	566.234939196223	6
3	3661	566.777901696124	5
3	3665	567.079131346639	6
3	3666	567.457968241385	5
3	3669	568.225770814008	4
3	3672	569.186407715584	3
3	3675	569.719620349527	2
3	3678	570.616340624624	1
3	3682	570.84269171737	2
3	3684	571.083690259052	3
3	3685	571.389185974131	2
3	3688	571.958384770284	1
3	3692	572.430233335773	2
3	3693	572.899761867047	1
3	3696	573.588398806601	0
3	3710	578.456067589974	1
3	3711	578.743631907123	0
3	3720	580.969549296113	1
3	3722	581.21259181052	2
3	3723	581.295352437158	1
3	3726	581.737653457883	0
3	3730	582.304263868684	1
3	3731	582.314583892512	0
3	3740	585.02989521962	1
3	3742	585.099722924831	2
3	3744	585.194633485368	3
3	3746	585.304825714875	4
3	3747	585.646648271474	3
3	3751	586.083293811209	4
3	3753	586.377249435648	5
3	3754	586.393775589111	4
3	3757	587.140502672967	3
3	3761	587.682132439175	4
3	3763	587.961686759094	5
3	3764	588.034655035379	4
3	3768	588.473607187472	5
3	3769	588.940085699315	4
3	3772	589.64611752848	3
3	3775	590.080116420098	2
3	3779	590.24120562795	3
3	3780	590.694246127827	2
3	3783	591.373147172945	1
3	3787	591.491308709589	2
3	3788	591.888675116606	1
3	3791	592.417991281485	0
3	3795	592.439922156387	1
3	3797	592.558640192088	2
3	3799	592.931764876584	3
3	3800	593.176851952214	2
3	3803	593.816710147958	1
3	3806	594.304684030542	0
3	3810	594.356086681028	1
3	3812	594.924043502854	2
3	3813	595.163746994639	1
3	3816	595.845472083984	0
3	3820	596.048595221622	1
3	3822	596.229333802234	2
3	3823	596.80300005623	1
3	3826	597.693945690383	0
3	3830	598.089892177151	1
3	3831	598.490864994702	0
3	3840	600.457667901593	1
3	3841	601.067739478324	0
3	3845	601.601443917967	1
3	3846	601.75078750063	0
3	3855	602.648830548589	1
3	3856	603.058455627657	0
3	3860	603.18036669045	1
3	3861	603.545520903835	0
3	3885	609.04084017284	1
3	3886	609.768079110989	0
3	3890	610.238457378122	1
3	3891	610.48912224519	0
3	3895	611.293683178856	1
3	3897	611.433255392814	2
3	3898	611.433508138973	1
3	3901	612.014455819465	0
3	3910	613.210177003519	1
3	3911	613.70357036427	0
3	3920	614.379968133862	1
3	3921	615.026339101509	0
3	3930	616.283723016971	1
3	3931	616.911567744293	0
3	3935	617.007910568439	1
3	3936	617.668266217463	0
3	3940	617.872989687114	1
3	3941	618.466898928635	0
3	3945	618.609159644695	1
3	3946	619.240549278218	0
3	3950	619.726180223792	1
3	3951	620.2204870991	0
3	3955	621.14791637887	1
3	3956	621.179153419711	0
3	3965	622.376300532819	1
3	3966	623.093760422741	0
3	3970	623.294137733649	1
3	3971	623.75909665244	0
3	3987	626.526547170979	1
3	3991	627.2005365858	0
3	3995	627.600425017931	1
3	4002	628.21947808521	2
3	4006	628.724649458433	3
3	4013	629.21400920845	4
3	4015	629.236161413479	5
3	4029	631.187832080169	4
3	4040	632.199353461693	5
3	4044	633.212742582677	4
3	4047	633.882136933148	3
3	4055	634.321557003583	4
3	4060	634.950233260564	5
3	4109	641.993239811636	4
3	4117	643.60288838755	3
3	4125	644.770538890097	2
3	4131	645.241564125354	3
3	4138	645.828969782208	4
3	4145	646.438170487676	5
3	4149	647.470065185675	4
3	4157	649.011205424337	3
3	4166	649.736419085512	4
3	4167	650.077863448734	3
3	4170	651.055190731181	2
3	4173	652.021239413709	1
3	4176	652.695019513989	0
3	4180	653.08239778575	1
3	4181	653.690273614336	0
3	4185	654.011210278845	1
3	4186	654.482675533431	0
3	4195	656.45698527511	1
3	4196	656.824749516629	0
3	4205	657.445053210246	1
3	4206	657.830262266359	0
3	4215	658.835060699765	1
3	4217	659.180224117313	2
3	4218	659.492302288994	1
3	4227	660.766206939143	2
3	4228	661.064990814955	1
3	4236	662.641914345551	0
3	4240	662.666568668652	1
3	4247	663.72870868276	2
3	4248	664.044502068584	1
3	4256	665.355708417151	0
3	4260	665.363648656433	1
3	4267	666.135454801903	2
3	4268	666.365450938553	1
3	4277	667.369800216064	2
3	4278	668.056986624509	1
3	4287	668.953886136279	2
3	4289	669.211497246211	3
3	4290	669.288884812867	2
3	4293	669.942591526167	1
3	4301	671.283718880353	0
3	4325	675.572511201627	1
3	4326	675.903103298116	0
3	4335	676.891637815919	1
3	4336	677.343530493537	0
3	4350	682.774676123373	1
3	4351	683.236680427558	0
3	4375	687.994240093512	1
3	4376	688.515817054663	0
3	4400	696.228902273504	1
3	4401	696.915438502048	0
3	4410	697.925765793556	1
3	4411	698.358667964667	0
3	4420	699.68702546262	1
3	4421	699.777047034273	0
3	4445	709.065900455288	1
3	4446	709.468983173178	0
3	4455	710.851889091937	1
3	4456	710.996532154548	0
3	4465	712.132494814831	1
3	4466	712.531756574893	0
3	4490	715.76955861233	1
3	4491	715.854176362727	0
3	4495	716.325855956682	1
3	4496	716.506348302758	0
3	4505	717.586352041552	1
3	4507	717.602665376639	2
3	4508	717.926200730477	1
3	4511	718.89404615246	0
3	4515	719.168599376335	1
3	4517	719.197004852055	2
3	4518	719.849323743938	1
3	4521	720.296303183569	0
3	4535	722.392099232772	1
3	4536	722.831234746944	0
3	4542	723.481552873105	1
3	4544	723.702935447261	2
3	4548	724.579372982034	1
3	4551	725.121092396654	0
3	4572	727.556373580419	1
3	4577	728.021650548109	2
3	4579	728.714964987733	3
3	4580	728.717037728402	2
3	4583	729.688816580569	1
3	4589	730.05132658802	2
3	4591	730.362002484714	3
3	4595	731.057937260923	2
3	4599	731.647139970194	3
3	4600	731.810810919964	2
3	4604	732.166541390298	3
3	4605	732.712691933123	2
3	4614	733.397105229528	3
3	4615	734.210230570959	2
3	4619	734.420962390209	3
3	4620	734.756109381674	2
3	4624	734.805046076245	3
3	4625	735.715239567284	2
3	4644	738.108680998217	3
3	4645	738.619973816697	2
3	4651	738.878635666408	3
3	4655	740.157460306932	2
3	4663	742.067327523392	1
3	4672	742.948120664318	2
3	4673	743.408678873602	1
3	4684	743.989018312568	2
3	4688	744.406263345282	3
3	4700	746.640420660909	2
3	4708	747.87680604078	1
3	4717	749.517923727954	2
3	4718	749.568685930149	1
3	4727	750.179536779818	2
3	4728	750.535626888155	1
3	4737	751.333742950271	2
3	4738	751.563941892023	1
3	4746	752.656934997598	0
3	4750	753.168316689643	1
3	4751	753.434599194043	0
3	4755	753.562673901283	1
3	4761	754.597172890856	0
3	4765	754.896253286806	1
3	4772	756.259075650631	2
3	4773	756.426577284766	1
3	4777	757.208491113556	2
3	4778	757.283152589967	1
3	4782	757.346849453479	2
3	4783	758.223788473077	1
3	4787	758.240231160098	2
3	4788	759.202931085901	1
3	4792	759.221162340467	2
3	4793	759.927676186265	1
3	4796	760.373882146246	0
3	4800	760.700874445386	1
3	4801	760.9024290072	0
3	4805	761.075647602768	1
3	4807	761.07640789167	2
3	4808	761.354842476567	1
3	4812	761.565222174332	2
3	4813	762.274624895371	1
3	4816	762.930274055778	0
3	4820	763.108415450088	1
3	4822	763.225405019786	2
3	4824	763.24053455809	3
3	4825	763.645482268763	2
3	4829	763.824623188347	3
3	4830	764.054438964158	2
3	4834	764.317216328529	3
3	4836	764.37934611188	4
3	4837	764.780613912988	3
3	4840	765.354014357153	2
3	4844	765.661538765007	3
3	4845	766.244960002342	2
3	4849	767.018930519302	3
3	4850	767.18605212236	2
3	4854	767.219704478213	3
3	4855	767.592097921643	2
3	4859	767.63861138716	3
3	4860	768.136688038354	2
3	4863	768.865213147803	1
3	4866	769.574336318132	0
3	4870	770.012677383567	1
3	4871	770.288403917123	0
3	4875	770.696016439352	1
3	4876	770.742143305364	0
3	4910	786.744837564631	1
3	4911	787.412605042521	0
3	4915	787.428276896077	1
3	4916	788.40576936649	0
3	4930	791.904142293135	1
3	4931	791.971720301898	0
3	4935	791.979826138573	1
3	4936	792.72560320243	0
3	4955	795.445255005119	1
3	4956	796.146336527335	0
3	4965	797.257244541512	1
3	4966	797.716955654163	0
3	4980	800.671958882967	1
3	4981	801.436332156902	0
3	4990	803.059890417873	1
3	4991	803.293271328351	0
3	5020	812.816250922412	1
3	5021	813.143442655268	0
3	5030	814.24112697921	1
3	5031	814.544849629102	0
3	5035	815.445928836661	1
3	5042	815.579015580459	2
3	5043	816.427334309097	1
3	5049	817.187115411072	2
3	5054	817.707514154446	3
3	5055	818.075317802473	2
3	5064	819.130772044733	3
3	5066	819.201738994438	4
3	5068	819.483973648558	5
3	5069	819.647072522256	4
3	5072	820.053846307571	3
3	5081	821.297418627635	4
3	5082	821.544597822108	3
3	5085	822.453984491626	2
3	5088	822.878523827303	1
3	5091	823.40606194493	0
3	5100	824.7322652181	1
3	5101	825.671623880807	0
3	5125	833.814623454955	1
3	5127	834.058650373083	2
3	5129	834.195419373508	3
3	5130	834.410106389991	2
3	5134	834.471458981914	3
3	5136	834.835726521298	4
3	5137	835.053970060752	3
3	5141	835.114545532706	4
3	5142	835.89373551111	3
3	5145	836.501854526459	2
3	5149	836.676271114681	3
3	5151	836.873073367963	4
3	5153	837.129974714991	5
3	5154	837.171892569654	4
3	5157	838.127203681201	3
3	5168	839.816325269272	4
3	5173	839.928318755629	5
3	5180	840.629825194096	6
3	5181	841.042768336202	5
3	5190	842.115785206128	6
3	5191	842.851334364129	5
3	5197	843.287780364743	6
3	5202	843.809830542136	7
3	5203	844.522832590736	6
3	5211	845.397714914404	5
3	5222	846.321034048318	6
3	5227	846.874096852566	7
3	5228	847.439410418295	6
3	5237	848.550710994869	7
3	5238	848.994042038382	6
3	5242	849.382000387002	7
3	5243	849.60862285092	6
3	5247	849.656720153409	7
3	5251	850.134283321001	8
3	5256	851.151183768711	9
3	5257	851.161618729052	8
3	5266	852.271398921387	9
3	5267	852.51557318822	8
3	5276	853.382020131609	9
3	5287	855.487807436683	8
3	5298	856.956419351898	9
3	5317	859.965913448365	8
3	5325	861.330392603179	7
3	5329	861.442848135469	8
3	5330	862.071516430167	7
3	5336	862.551766160672	8
3	5340	863.228346550068	7
3	5344	863.685525857884	8
3	5345	863.977530691749	7
3	5349	864.493315852183	8
3	5351	864.623119736081	9
3	5352	864.668300090846	8
3	5356	865.339319845178	9
3	5357	865.395471704401	8
3	5361	865.582500464692	9
3	5363	865.596935965451	10
3	5364	866.32366233312	9
3	5367	866.838732821703	8
3	5370	867.698214456135	7
3	5374	867.710010867412	8
3	5376	867.915988688324	9
3	5378	868.250404426767	10
3	5379	868.375158280063	9
3	5383	868.480910662403	10
3	5384	869.050094608565	9
3	5388	869.682656119812	10
3	5389	869.767169029101	9
3	5393	870.367498122797	10
3	5394	870.48246460331	9
3	5398	870.620481640968	10
3	5399	871.441227685449	9
3	5402	871.910261019294	8
3	5410	872.975406803072	7
3	5416	873.794878646638	8
3	5425	875.64487442395	7
3	5436	876.336464304736	8
3	5443	877.544942676248	9
3	5453	879.619225346662	10
3	5469	882.052014051073	9
3	5475	882.503939595771	10
3	5477	882.564912270748	11
3	5481	883.530134239535	10
3	5484	884.270605852197	9
3	5488	884.416790160663	10
3	5495	885.856952003984	11
3	5496	885.889343066395	10
3	5504	887.225286882485	9
3	5508	887.289120294873	10
3	5512	887.453540880965	11
3	5516	888.261308344894	10
3	5520	888.754680740825	11
3	5521	889.225294120491	10
3	5525	889.438548312805	11
3	5534	890.645771793886	12
3	5554	893.186522576801	13
3	5555	893.456375670035	12
3	5564	894.796445496803	13
3	5565	894.953535107218	12
3	5574	895.913172595441	13
3	5575	896.410980464958	12
3	5584	897.633238419288	13
3	5585	897.74653290149	12
3	5593	899.518474847099	11
3	5602	900.862612742249	12
3	5603	901.290412130833	11
3	5612	902.189270041977	12
3	5613	902.646333283998	11
3	5621	904.118523428656	10
3	5625	904.543751111269	11
3	5626	905.103649522571	10
3	5630	905.10398788755	11
3	5634	905.29442477321	12
3	5639	906.503047392228	13
3	5640	906.899869339328	12
3	5644	906.969108281127	13
3	5645	907.649190785663	12
3	5651	908.39566396286	13
3	5660	909.98146667869	12
3	5671	911.508023732483	13
3	5675	912.376094923422	12
3	5713	917.830669770642	11
3	5716	918.733378772224	10
3	5720	918.808471966497	11
3	5736	921.174141524379	10
3	5745	921.923482602131	11
3	5761	923.215301550531	12
3	5780	925.252829172092	13
3	5825	931.728949131603	12
3	5833	932.847043874926	11
3	5836	933.809715473718	10
3	5844	934.964262743453	9
3	5848	935.17250114973	10
3	5849	935.658150499566	9
3	5852	936.11321072599	8
3	5856	936.331077734404	9
3	5858	936.561621871154	10
3	5859	936.729970924576	9
3	5862	937.4769124523	8
3	5865	937.998001369621	7
3	5869	938.332475446562	8
3	5870	938.600580063063	7
3	5874	938.90152484563	8
3	5875	939.267413702022	7
3	5879	940.087125688892	8
3	5880	940.263004410939	7
3	5884	940.834994518492	8
3	5885	941.06578138468	7
3	5889	941.458576803966	8
3	5890	941.748102494675	7
3	5894	942.127038374501	8
3	5895	942.184182910548	7
3	5899	942.252859421181	8
3	5901	942.52749083218	9
3	5903	943.072954179834	10
3	5904	943.105185309631	9
3	5908	943.473579302322	10
3	5910	943.592660098345	11
3	5911	943.756428685525	10
3	5914	944.174214440325	9
3	5917	944.972773400528	8
3	5920	945.443906104538	7
3	5928	946.687100660774	6
3	5934	947.038379993414	7
3	5939	947.349143716148	8
3	5948	948.231560375256	9
3	5953	948.592458747947	10
3	5954	948.805582185015	9
3	5977	951.85658020202	8
3	5983	952.282823016965	9
3	5988	952.725396658816	10
3	5990	952.815954808576	11
3	5991	953.190516762965	10
3	5994	953.766472317296	9
3	5998	954.042703924848	10
3	6002	954.310783451277	11
3	6007	954.802350773179	12
3	6023	957.23135920518	11
3	6032	957.701620151133	12
3	6033	958.079584472085	11
3	6041	959.776592089625	10
3	6044	960.198946841637	9
3	6047	961.192606453242	8
3	6050	961.851736709539	7
3	6054	962.110574962873	8
3	6055	962.402085174032	7
3	6058	963.054358294251	6
3	6061	963.568102153315	5
3	6064	964.097288142069	4
3	6067	964.914697684412	3
3	6071	965.412663728976	4
3	6072	965.465558924823	3
3	6076	965.983392248586	4
3	6078	966.031769605708	5
3	6079	966.13843024589	4
3	6083	966.456559764777	5
3	6085	967.037678184646	6
3	6086	967.064868350531	5
3	6095	968.087435219444	6
3	6097	968.495053495671	7
3	6098	968.546791629604	6
3	6102	968.654528740504	7
3	6111	969.994984307014	8
3	6116	970.287116804751	9
3	6118	970.325136957961	10
3	6122	970.404328669715	11
3	6132	972.031861791976	12
3	6134	972.4271575069	13
3	6135	972.489488096134	12
3	6139	972.546825077565	13
3	6140	972.976860388992	12
3	6144	973.098949597839	13
3	6145	973.449648682186	12
3	6149	973.549057146823	13
3	6150	973.908735633706	12
3	6159	975.217961937596	13
3	6161	975.355372821504	14
3	6162	975.523658386263	13
3	6171	976.198941884738	14
3	6173	976.814733205758	15
3	6174	976.871410196991	14
3	6178	977.060803468007	15
3	6179	977.825939367497	14
3	6183	978.413602026945	15
3	6184	978.435075221555	14
3	6188	978.624715859358	15
3	6189	978.861280456856	14
3	6192	979.292266977271	13
3	6196	979.753881077797	14
3	6197	979.882424742561	13
3	6200	980.570060583502	12
3	6203	981.299113744888	11
3	6207	981.568538817894	12
3	6209	981.981796818938	13
3	6210	982.08906435782	12
3	6214	982.190498389988	13
3	6216	982.681950384165	14
3	6217	982.941759547469	13
3	6220	983.712627574307	12
3	6223	984.412457412313	11
3	6227	984.519548934646	12
3	6229	984.526969010433	13
3	6230	985.06234997522	12
3	6233	985.54329444358	11
3	6237	985.552525437257	12
3	6238	986.428982650087	11
3	6241	987.177077939379	10
3	6244	987.792885567638	9
3	6248	988.124763240405	10
3	6250	988.14950591182	11
3	6251	988.623267108732	10
3	6254	989.396772585501	9
3	6257	989.951573725808	8
3	6261	990.313948766279	9
3	6262	990.637688005734	8
3	6266	991.482475343271	9
3	6268	991.506884944243	10
3	6269	991.508736439952	9
3	6273	991.933376850786	10
3	6275	992.153854786699	11
3	6276	992.330954286474	10
3	6280	993.12708407186	11
3	6281	993.182163357706	10
3	6285	993.25919363476	11
3	6287	993.392248507377	12
3	6288	993.722675320198	11
3	6292	993.96612399626	12
3	6293	994.14724522272	11
3	6296	995.103899961588	10
3	6300	995.151748598601	11
3	6301	996.094958488009	10
3	6305	996.166841964296	11
3	6306	996.984266177443	10
3	6309	997.874383900006	9
3	6313	997.967368186821	10
3	6314	998.735290555487	9
3	6318	999.08037833254	10
3	6319	999.146089246747	9
3	6322	999.58861271494	8
3	6325	1000.538140938449	7
3	6329	1000.721902788261	8
3	6331	1001.076533383259	9
3	6332	1001.176331517677	8
3	6336	1001.51548562927	9
3	6337	1001.708897088672	8
3	6340	1002.675461103599	7
3	6344	1002.938853618368	8
3	6345	1003.535036003887	7
3	6348	1004.330404441822	6
3	6352	1004.487891746616	7
3	6353	1005.127983285132	6
3	6356	1005.643981446856	5
3	6359	1006.346312414593	4
3	6363	1006.510811680071	5
3	6364	1006.838287128759	4
3	6367	1007.48350929019	3
3	6371	1007.971936185387	4
3	6372	1008.255803988892	3
3	6376	1008.604765005681	4
3	6377	1009.051848637284	3
3	6380	1009.664597481367	2
3	6384	1009.837448568553	3
3	6385	1010.370716928662	2
3	6388	1010.90667142325	1
3	6391	1011.777464241971	0
3	6395	1012.051158077021	1
3	6397	1012.334063239583	2
3	6398	1012.355635153147	1
3	6401	1013.162851616711	0
3	6407	1013.464663988492	1
3	6409	1013.558490887679	2
3	6411	1013.907016774653	3
3	6416	1014.654932451435	4
3	6417	1014.962982299289	3
3	6423	1015.360987161863	4
3	6425	1015.588555315051	5
3	6430	1015.86745614772	6
3	6432	1016.011909231646	7
3	6433	1016.785047718527	6
3	6441	1018.074292567435	5
3	6445	1018.114371010944	6
3	6451	1019.249661059367	5
3	6459	1020.82090853389	4
3	6465	1021.19243461598	5
3	6470	1021.573974000235	6
3	6471	1022.230015408542	5
3	6480	1022.94396241033	6
3	6481	1023.64087408601	5
3	6489	1024.691306889539	4
3	6498	1025.67839945667	5
3	6499	1025.945804266741	4
3	6502	1026.854701817704	3
3	6506	1026.989539583492	4
3	6507	1027.442744968382	3
3	6511	1027.601796443344	4
3	6512	1027.99311732074	3
3	6515	1028.856252593796	2
3	6519	1029.297462908193	3
3	6520	1029.589126506045	2
3	6524	1030.231312921829	3
3	6525	1030.468204663943	2
3	6528	1031.238480354117	1
3	6537	1032.79233942535	2
3	6539	1032.937620796781	3
3	6540	1033.005443540744	2
3	6546	1033.437123144416	3
3	6551	1033.73449316471	4
3	6553	1033.824506611015	5
3	6554	1034.282868770293	4
3	6557	1035.184296710433	3
3	6560	1035.839558391243	2
3	6564	1035.859259118734	3
3	6571	1036.839365443627	4
3	6572	1037.536050428979	3
3	6575	1037.990560376614	2
3	6579	1038.208988765922	3
3	6580	1038.654088682325	2
3	6583	1039.216309258265	1
3	6586	1039.637903921416	0
3	6590	1039.747091705946	1
3	6591	1040.616685452469	0
3	6595	1040.856168657652	1
3	6596	1041.308414219057	0
3	6612	1044.99441069587	1
3	6619	1045.402649015351	2
3	6624	1046.135227847821	3
3	6625	1046.719807676213	2
3	6646	1049.351064061733	3
3	6683	1053.528259519066	4
3	6707	1057.084191019493	3
3	6722	1058.032986098048	4
3	6732	1059.926605179212	5
3	6734	1060.008167683107	6
3	6766	1065.219847167221	5
3	6774	1066.504186371093	4
3	6777	1067.193168586943	3
3	6781	1067.384316856404	4
3	6782	1068.032544399084	3
3	6786	1068.117386641096	4
3	6787	1068.790525245605	3
3	6790	1069.346022914102	2
3	6794	1069.78753097149	3
3	6796	1069.901722345548	4
3	6797	1070.310273045845	3
3	6800	1070.739922709841	2
3	6804	1071.159086876444	3
3	6806	1071.421483954315	4
3	6807	1071.574970960043	3
3	6811	1071.907466156364	4
3	6812	1072.414090221407	3
3	6815	1072.889058842635	2
3	6819	1073.248076861779	3
3	6820	1073.831697899182	2
3	6823	1074.634431509846	1
3	6826	1075.483524165475	0
3	6837	1076.753608250921	1
3	6839	1076.827304202639	2
3	6843	1077.580820381503	1
3	6847	1077.658917996784	2
3	6854	1078.285144049519	3
3	6855	1079.076638541093	2
3	6864	1080.362301364851	3
3	6865	1080.630597517082	2
3	6869	1080.926118528386	3
3	6870	1081.212830606989	2
3	6874	1081.399666440121	3
3	6875	1081.900038064645	2
3	6879	1082.419480441873	3
3	6880	1082.440436027806	2
3	6884	1082.579498400538	3
3	6886	1083.337787547215	4
3	6887	1083.403666436767	3
3	6890	1083.825206620481	2
3	6894	1084.45968260494	3
3	6895	1084.699858716225	2
3	6898	1085.646522805841	1
3	6901	1086.465847343021	0
3	6905	1086.500486325846	1
3	6907	1086.591395348224	2
3	6908	1087.371630081815	1
3	6912	1087.438155204718	2
3	6913	1087.961120421022	1
3	6917	1088.215978834757	2
3	6918	1088.579250993581	1
3	6922	1089.024466452929	2
3	6923	1089.152538425523	1
3	6927	1089.228076376727	2
3	6929	1089.55753661383	3
3	6931	1090.032342197925	4
3	6932	1090.05479099881	3
3	6936	1090.409245765038	4
3	6937	1090.920344587137	3
3	6940	1091.389173363569	2
3	6943	1092.119898502157	1
3	6947	1092.566844972561	2
3	6949	1092.638442422916	3
3	6950	1092.931943938696	2
3	6954	1093.32013147022	3
3	6955	1093.567490536674	2
3	6959	1093.730157965543	3
3	6961	1093.936999516494	4
3	6963	1094.076748007529	5
3	6964	1094.236766494858	4
3	6968	1094.497234294927	5
3	6970	1094.651112627319	6
3	6971	1095.013957183762	5
3	6974	1095.659609704651	4
3	6977	1096.235157391662	3
3	6981	1096.597242907633	4
3	6983	1096.742546350917	5
3	6985	1097.084967853756	6
3	6986	1097.135852290783	5
3	6990	1097.373348154687	6
3	6997	1097.890941779622	7
3	6999	1098.674946376164	8
3	7000	1098.721877943072	7
3	7014	1100.032412381795	8
3	7015	1100.526353494636	7
3	7031	1101.839034847142	8
3	7041	1103.397495335558	9
3	7042	1103.848701667598	8
3	7050	1105.381058437143	7
3	7058	1107.190712651097	6
3	7064	1107.513592659691	7
3	7066	1107.535299423086	8
3	7071	1107.808743962283	9
3	7072	1108.59903090028	8
3	7078	1109.229600447113	9
3	7083	1109.688873751579	10
3	7084	1109.698705205087	9
3	7095	1110.663858464279	10
3	7109	1113.01993844956	9
3	7120	1113.689919500465	10
3	7125	1114.063395357748	11
3	7126	1114.493454008733	10
3	7135	1115.29820785677	11
3	7147	1116.700630186586	12
3	7153	1117.650022813396	11
3	7164	1118.726026233348	12
3	7168	1119.710834271738	11
3	7179	1120.989516728295	12
3	7188	1122.901767426308	11
3	7199	1123.774550067219	12
3	7223	1128.020516447673	11
3	7226	1128.524197253209	10
3	7237	1129.432397663542	11
3	7242	1130.168246037582	12
3	7243	1130.929731027313	11
3	7252	1132.194544244889	12
3	7253	1132.489505630356	11
3	7256	1133.097498203578	10
3	7260	1133.701179843062	11
3	7261	1133.787876395366	10
3	7264	1134.40871478589	9
3	7268	1135.174804968411	10
3	7269	1135.200432832071	9
3	7273	1135.520771221507	10
3	7275	1135.636796162544	11
3	7276	1135.670298747902	10
3	7280	1136.001555479959	11
3	7281	1136.075025981755	10
3	7284	1136.492352313266	9
3	7287	1137.012545364953	8
3	7291	1137.012946123627	9
3	7293	1137.040272666134	10
3	7295	1137.291588939892	11
3	7297	1137.54123926623	12
3	7298	1137.789673407792	11
3	7301	1138.756192419303	10
3	7304	1139.254559971064	9
3	7308	1139.432536591272	10
3	7310	1139.618430955621	11
3	7311	1140.236544206224	10
3	7314	1140.916188144449	9
3	7317	1141.511021276794	8
3	7321	1141.635771289723	9
3	7323	1141.991642959978	10
3	7324	1142.258393915834	9
3	7327	1142.664310143188	8
3	7331	1142.808921739106	9
3	7333	1143.04261227207	10
3	7334	1143.441840328927	9
3	7338	1144.257066528404	10
3	7339	1144.331218146671	9
3	7342	1145.21930891075	8
3	7345	1145.924712501604	7
3	7349	1146.201596884648	8
3	7351	1146.327316659452	9
3	7352	1146.59423462455	8
3	7355	1147.37092029848	7
3	7359	1148.142882094633	8
3	7360	1148.315037830266	7
3	7364	1148.590136937194	8
3	7365	1149.138604790204	7
3	7369	1149.443817155891	8
3	7370	1149.622098484215	7
3	7373	1150.226731188315	6
3	7377	1150.445082674595	7
3	7379	1150.597546999917	8
3	7386	1150.751801177056	9
3	7387	1151.124485792592	8
3	7390	1151.738786749309	7
3	7394	1151.927921206762	8
3	7395	1152.172995749815	7
3	7398	1152.734289004095	6
3	7401	1153.575545612909	5
3	7404	1154.573784975149	4
3	7408	1155.054443677463	5
3	7409	1155.093589074817	4
3	7413	1155.111943758246	5
3	7415	1155.518004028488	6
3	7417	1155.863999198651	7
3	7418	1155.996827494586	6
3	7421	1156.509469396016	5
3	7424	1157.10692433822	4
3	7428	1157.187088953327	5
3	7429	1157.860475232406	4
3	7433	1157.987242046926	5
3	7434	1158.643465354667	4
3	7438	1158.744030939476	5
3	7440	1159.029857676355	6
3	7442	1159.112471251216	7
3	7443	1159.219518493908	6
3	7447	1159.376378205861	7
3	7449	1159.752810275259	8
3	7450	1160.153680044692	7
3	7453	1160.929317971645	6
3	7457	1161.162011395425	7
3	7458	1161.42281527794	6
3	7462	1161.482744248537	7
3	7464	1162.113397644904	8
3	7466	1162.287172485279	9
3	7467	1162.417568596173	8
3	7471	1163.062902579876	9
3	7472	1163.075229582097	8
3	7476	1163.254827965737	9
3	7483	1163.952296332078	10
3	7484	1164.425744127342	9
3	7493	1165.057956284444	10
3	7494	1165.381893000146	9
3	7503	1166.459200512464	10
3	7504	1166.917283855052	9
3	7512	1168.378884000237	8
3	7520	1169.450230933772	7
3	7524	1169.507644901982	8
3	7533	1171.092586189303	9
3	7553	1173.785214042087	10
3	7554	1174.259945233772	9
3	7557	1174.745290633105	8
3	7561	1174.818511028105	9
3	7562	1175.596018094989	8
3	7571	1176.484507961294	9
3	7573	1176.74314351434	10
3	7574	1176.772204208188	9
3	7582	1178.397590169824	8
3	7588	1178.826809205288	9
3	7590	1178.828023120011	10
3	7595	1180.05467937517	11
3	7596	1180.16716429149	10
3	7605	1180.990886672741	11
3	7606	1181.817583452772	10
3	7614	1183.485166101951	9
3	7625	1184.700674844512	10
3	7629	1185.530717819558	9
3	7638	1186.608667746525	10
3	7639	1186.811005449203	9
3	7653	1188.268213868163	10
3	7654	1188.887397378452	9
3	7657	1189.410402686756	8
3	7666	1190.291642119696	9
3	7667	1190.925983175451	8
3	7670	1191.876718178859	7
3	7676	1192.223401320531	8
3	7680	1193.006793689636	7
3	7688	1194.255147094234	6
3	7694	1194.779619339204	7
3	7703	1196.097176703485	6
3	7711	1197.38910176456	5
3	7714	1197.866682969826	4
3	7717	1198.72269968656	3
3	7721	1198.737828182818	4
3	7735	1200.191640909812	5
3	7752	1202.326073946554	6
3	7762	1203.670749964909	7
3	7764	1204.049237097315	8
3	7765	1204.123339932972	7
3	7769	1204.150096732914	8
3	7771	1204.194435512953	9
3	7773	1204.493986726003	10
3	7774	1204.773658214976	9
3	7778	1204.959467353842	10
3	7784	1205.937039636542	9
3	7788	1205.965257403825	10
3	7794	1207.318409142085	9
3	7800	1207.880317255305	10
3	7805	1208.442038971303	11
3	7806	1209.132415962406	10
3	7809	1209.679029820487	9
3	7813	1209.826726097041	10
3	7815	1210.042219866774	11
3	7817	1210.178152045934	12
3	7818	1210.259390011989	11
3	7821	1211.009164946527	10
3	7824	1211.540596931335	9
3	7827	1212.358380263672	8
3	7831	1212.885058334855	9
3	7833	1213.065941157626	10
3	7834	1213.211907569832	9
3	7837	1213.62782019293	8
3	7841	1214.112289616503	9
3	7842	1214.208283224516	8
3	7846	1214.216471793809	9
3	7848	1214.491352019008	10
3	7849	1214.72288382724	9
3	7852	1215.419763129578	8
3	7856	1215.990216658652	9
3	7857	1216.195932408842	8
3	7861	1216.784118369093	9
3	7862	1216.932492988604	8
3	7865	1217.532017004724	7
3	7868	1218.416202913785	6
3	7871	1218.846050472559	5
3	7875	1219.308313320694	6
3	7876	1219.448914934137	5
3	7879	1220.03529682723	4
3	7885	1220.604367500055	5
3	7889	1221.508597258898	4
3	7895	1221.629742369818	5
3	7897	1221.653229682414	6
3	7899	1221.788853889047	7
3	7903	1222.897042991454	6
3	7909	1223.470069781402	7
3	7913	1224.441320630955	6
3	7917	1224.6663660199	7
3	7924	1225.556835712313	8
3	7925	1225.612211922742	7
3	7928	1226.03584890156	6
3	7932	1226.208403997907	7
3	7933	1226.960054270736	6
3	7937	1227.410250377112	7
3	7938	1227.647113930014	6
3	7941	1228.187614485434	5
3	7945	1228.504850657714	6
3	7947	1228.627498875679	7
3	7953	1229.403137760934	6
3	7957	1229.546799043436	7
3	7958	1230.022299945726	6
3	7962	1230.277176872922	7
3	7964	1230.680243944959	8
3	7965	1230.776942999939	7
3	7969	1230.971601164905	8
3	7970	1231.416497141308	7
3	7973	1232.305641134688	6
3	7977	1232.440633457667	7
3	7978	1233.004720604047	6
3	7981	1233.610213830508	5
3	7984	1234.251595734013	4
3	7988	1234.61915333834	5
3	7989	1235.089536105282	4
3	7993	1235.178779624142	5
3	7994	1235.724131779	4
3	7998	1236.439841746444	5
3	7999	1236.5989694132	4
3	8002	1237.468432120839	3
3	8006	1237.892380103343	4
3	8007	1238.112944253767	3
3	8010	1239.000092538633	2
3	8014	1239.395571466705	3
3	8016	1239.707201889666	4
3	8017	1239.769381862786	3
3	8021	1239.772356528347	4
3	8022	1240.340023139492	3
3	8026	1240.415944251077	4
3	8027	1240.772745161318	3
3	8031	1240.834520865116	4
3	8032	1241.65959216049	3
3	8036	1241.974914895704	4
3	8038	1242.288161505644	5
3	8039	1242.364128850215	4
3	8043	1242.418455758238	5
3	8045	1242.440916397874	6
3	8047	1242.837945287554	7
3	8048	1243.30185590936	6
3	8052	1243.368864233038	7
3	8053	1244.280937035197	6
3	8057	1244.610556142042	7
3	8059	1244.939205626702	8
3	8060	1245.174975139277	7
3	8064	1245.31285803534	8
3	8065	1246.090852656264	7
3	8069	1246.547798859343	8
3	8070	1247.060586515164	7
3	8074	1247.735185192724	8
3	8075	1247.812890016755	7
3	8078	1248.461004325656	6
3	8087	1249.465311026244	7
3	8089	1249.894344814721	8
3	8090	1250.013316762682	7
3	8098	1251.275548847254	6
3	8101	1251.732680586448	5
3	8109	1252.664735560401	4
3	8112	1253.065006494525	3
3	8116	1253.113992506542	4
3	8123	1253.986144604912	5
3	8124	1254.59179036422	4
3	8128	1254.654449215058	5
3	8129	1255.448763347001	4
3	8133	1255.592631468738	5
3	8135	1256.112544722893	6
3	8136	1256.443667571343	5
3	8139	1256.904340213401	4
3	8142	1257.44313335461	3
3	8145	1258.08591346308	2
3	8149	1258.166840581045	3
3	8151	1258.196137035692	4
3	8153	1258.420794340479	5
3	8154	1258.756131572885	4
3	8157	1259.446401853956	3
3	8161	1259.897837826619	4
3	8162	1260.351398494424	3
3	8166	1260.738614474424	4
3	8167	1260.84811468162	3
3	8171	1260.86087492934	4
3	8173	1261.584224146804	5
3	8174	1261.587754448647	4
3	8177	1262.19121843521	3
3	8186	1263.049495434807	4
3	8188	1263.624764157516	5
3	8189	1263.636308908327	4
3	8197	1264.608702601822	3
3	8201	1264.837516134145	4
3	8207	1265.441305095473	3
3	8213	1265.621797241726	4
3	8218	1266.008302314773	5
3	8220	1266.259279402335	6
3	8221	1266.711548260557	5
3	8227	1267.241292458958	6
3	8232	1267.535683791193	7
3	8233	1268.163420367804	6
3	8241	1269.655960466484	5
3	8247	1270.078672842965	6
3	8251	1271.201322621856	5
3	8255	1271.276685186223	6
3	8259	1271.858088279937	7
3	8263	1272.686329699358	6
3	8266	1273.190609809015	5
3	8270	1273.195489522478	6
3	8272	1273.631794670526	7
3	8273	1273.85303148474	6
3	8277	1274.163849413925	7
3	8278	1274.371411116565	6
3	8281	1274.961042474727	5
3	8285	1275.154102906603	6
3	8286	1275.623970575542	5
3	8290	1275.838383777613	6
3	8292	1275.886238831676	7
3	8294	1276.296081045746	8
3	8295	1276.594462197465	7
3	8298	1277.039131956878	6
3	8301	1277.453265587524	5
3	8304	1278.016047603036	4
3	8308	1278.442204424104	5
3	8309	1278.468552655591	4
3	8313	1278.705005725301	5
3	8314	1279.16819722881	4
3	8318	1279.5172319089	5
3	8320	1279.801021882444	6
3	8321	1280.057954037799	5
3	8325	1280.716172361529	6
3	8326	1280.950979693611	5
3	8329	1281.506420352873	4
3	8332	1282.044277273216	3
3	8335	1282.561579261771	2
3	8339	1282.764171445997	3
3	8340	1283.470978487241	2
3	8343	1284.102981657167	1
3	8347	1284.756907613879	2
3	8348	1284.859697570843	1
3	8352	1284.886327928541	2
3	8354	1285.199827881627	3
3	8355	1285.371742354292	2
3	8359	1285.949234142928	3
3	8360	1286.264340799726	2
3	8364	1286.876984975945	3
3	8365	1287.11139986902	2
3	8369	1287.395583835913	3
3	8370	1287.644669986195	2
3	8374	1287.737361773985	3
3	8376	1287.93074840013	4
3	8378	1287.968036472488	5
3	8379	1288.078892907365	4
3	8383	1288.348570355247	5
3	8384	1288.7608277523	4
3	8388	1288.838606360998	5
3	8389	1289.28343506088	4
3	8393	1289.483619430567	5
3	8394	1289.863655023002	4
3	8397	1290.748148921183	3
3	8400	1291.156832486815	2
3	8404	1291.222985227374	3
3	8405	1291.806421323638	2
3	8409	1292.133036081393	3
3	8410	1292.441485424485	2
3	8419	1292.929499758374	3
3	8421	1293.373054744736	4
3	8423	1293.374022820178	5
3	8425	1293.59014501502	6
3	8426	1293.680410182249	5
3	8435	1294.268499830109	6
3	8436	1294.850321742572	5
3	8440	1295.108364493231	6
3	8441	1295.328832151793	5
3	8445	1295.698633098107	6
3	8446	1295.84112962294	5
3	8449	1296.546746084658	4
3	8452	1297.193707453278	3
3	8456	1297.506209012794	4
3	8458	1297.696364220741	5
3	8460	1297.779783319884	6
3	8461	1297.918361025076	5
3	8464	1298.539327945798	4
3	8468	1298.613375361962	5
3	8470	1299.173330478543	6
3	8471	1299.31634183913	5
3	8474	1299.866436126879	4
3	8477	1300.276049856194	3
3	8483	1300.730653654214	4
3	8485	1300.996428719403	5
3	8490	1301.036093905015	6
3	8492	1301.066867876311	7
3	8494	1301.535261038898	8
3	8495	1301.687439519544	7
3	8503	1303.087213340732	6
3	8506	1303.500663823778	5
3	8510	1303.778660739965	6
3	8511	1304.120315715675	5
3	8515	1304.532909244386	6
3	8516	1304.619262209958	5
3	8519	1305.424492492578	4
3	8522	1306.311105274274	3
3	8525	1307.23246498453	2
3	8529	1307.337634649938	3
3	8531	1307.36276630354	4
3	8533	1307.408589406818	5
3	8535	1307.812944661029	6
3	8536	1307.86094771503	5
3	8539	1308.342554121423	4
3	8547	1309.690241679135	3
3	8555	1310.180432838627	4
3	8563	1310.822484589032	5
3	8565	1311.09394422959	6
3	8567	1311.619334798311	7
3	8568	1311.639806663669	6
3	8571	1312.612637864757	5
3	8574	1313.491942746989	4
3	8578	1313.754578547898	5
3	8580	1314.045654707756	6
3	8581	1314.080556668952	5
3	8585	1314.258655006145	6
3	8586	1314.485125094797	5
3	8589	1315.10877042851	4
3	8593	1315.29673593939	5
3	8595	1315.483691761028	6
3	8596	1315.961744157044	5
3	8599	1316.819071445107	4
3	8602	1317.77879612614	3
3	8605	1318.533939139224	2
3	8609	1318.781556114785	3
3	8610	1319.179586709063	2
3	8613	1319.981174994684	1
3	8616	1320.451685267226	0
3	8620	1320.478720932891	1
3	8622	1320.89917769883	2
3	8623	1320.990977090323	1
3	8626	1321.68353228197	0
3	8630	1321.952439923345	1
3	8631	1322.407697730284	0
3	8635	1322.745162337829	1
3	8636	1323.116180942306	0
3	8650	1324.572071735608	1
3	8652	1324.661292635321	2
3	8658	1325.965205300004	1
3	8661	1326.420165135954	0
3	8670	1327.166112496214	1
3	8671	1327.713703340115	0
3	8677	1328.010740826913	1
3	8679	1328.193899091301	2
3	8684	1328.952197773034	3
3	8685	1329.028699187897	2
3	8688	1329.854557783073	1
3	8691	1330.605679026162	0
3	8715	1335.178835763229	1
3	8716	1335.349288402471	0
3	8720	1335.655043660432	1
3	8721	1336.241911979784	0
3	8725	1336.962251886913	1
3	8726	1337.18385878794	0
3	8735	1338.465052109217	1
3	8737	1338.786627150666	2
3	8738	1338.964167172163	1
3	8746	1340.435699030644	0
3	8752	1340.565550240917	1
3	8757	1341.49346245233	2
3	8759	1341.638377871505	3
3	8760	1342.102849434436	2
3	8764	1342.521256197826	3
3	8765	1342.658484421557	2
3	8768	1343.072615544478	1
3	8781	1344.73930654086	0
3	8787	1344.807849221823	1
3	8791	1345.477251313997	2
3	8822	1349.145471327049	3
3	8959	1369.857143573674	4
3	9008	1375.738289361431	5
3	9023	1377.779616274447	6
3	9066	1385.719951995301	5
3	9072	1386.004056164652	6
3	9076	1386.823017620367	5
3	9087	1387.769454401151	6
3	9089	1388.268456560502	7
3	9093	1389.324578584896	6
3	9101	1390.60185467133	5
3	9105	1390.731085640237	6
3	9107	1390.772849268735	7
3	9114	1391.855173014136	8
3	9115	1392.053885817367	7
3	9123	1393.220327862378	6
3	9129	1393.617490947644	7
3	9134	1394.206835727048	8
3	9135	1394.800177491902	7
3	9138	1395.622457264064	6
3	9146	1396.508359219533	5
3	9154	1397.690859398599	4
3	9160	1398.263873894036	5
3	9162	1398.484234178776	6
3	9167	1399.189350939595	7
3	9168	1399.256201055254	6
3	9172	1399.282940900398	7
3	9174	1399.963729292837	8
3	9175	1400.163244964675	7
3	9179	1400.81916655328	8
3	9180	1401.024794570803	7
3	9184	1401.441951503585	8
3	9185	1401.463541212938	7
3	9189	1401.857954497033	8
3	9190	1402.220490876519	7
3	9194	1402.453202009937	8
3	9195	1402.661834345692	7
3	9198	1403.653403774117	6
3	9202	1404.361485369366	7
3	9203	1404.379081843727	6
3	9206	1405.193649218351	5
3	9210	1405.671373711031	6
3	9211	1406.17354944961	5
3	9215	1406.661640324572	6
3	9216	1406.785878312707	5
3	9220	1406.799526568871	6
3	9221	1407.414130479962	5
3	9225	1407.593094858678	6
3	9227	1407.697937261613	7
3	9228	1408.215401048985	6
3	9232	1408.473687306748	7
3	9233	1408.644476838856	6
3	9236	1409.252207236764	5
3	9240	1409.566470450352	6
3	9241	1409.882740085226	5
3	9245	1410.249614146983	6
3	9246	1410.29176583004	5
3	9250	1410.677514369945	6
3	9251	1411.032599222127	5
3	9254	1411.926228131193	4
3	9258	1411.948366371882	5
3	9260	1412.464223135677	6
3	9261	1412.593216383436	5
3	9265	1413.086087713303	6
3	9266	1413.300072690823	5
3	9269	1413.855132666116	4
3	9273	1414.122961811645	5
3	9274	1414.672967479124	4
3	9278	1414.746003962038	5
3	9279	1415.391544610613	4
3	9282	1416.184844888539	3
3	9285	1416.808803922522	2
3	9288	1417.300247273759	1
3	9291	1417.957119335259	0
3	9295	1418.257835642176	1
3	9296	1418.51179764087	0
3	9300	1418.705218337706	1
3	9302	1419.026526744126	2
3	9304	1419.234078100709	3
3	9305	1419.399786605757	2
3	9309	1419.515826815835	3
3	9316	1420.143959390392	4
3	9317	1420.623764733529	3
3	9321	1420.641569303669	4
3	9322	1421.035532665743	3
3	9330	1422.205415509526	2
3	9334	1422.528979119877	3
3	9335	1423.062872390753	2
3	9339	1423.106861813353	3
3	9340	1423.765349466797	2
3	9344	1424.115643251217	3
3	9351	1424.665553605382	4
3	9352	1424.889124165034	3
3	9358	1425.473303617995	4
3	9363	1425.68160732093	5
3	9364	1426.596758359555	4
3	9373	1427.958150206495	5
3	9374	1427.98116232094	4
3	9377	1428.391584946519	3
3	9386	1429.477282921367	4
3	9387	1429.661332355837	3
3	9396	1430.951540990515	4
3	9397	1431.018446035755	3
3	9405	1432.461233484304	2
3	9411	1432.752500646527	3
3	9416	1433.022092695631	4
3	9417	1433.328008641094	3
3	9426	1433.940793702716	4
3	9428	1434.56638431037	5
3	9429	1434.641921985779	4
3	9432	1435.567786166702	3
3	9438	1436.099535195181	4
3	9442	1436.955005922007	3
3	9446	1437.32314708181	4
3	9447	1437.698926337461	3
3	9450	1438.201595698322	2
3	9454	1438.493961492655	3
3	9456	1438.768180269053	4
3	9457	1438.989037351289	3
3	9463	1439.236084672887	4
3	9468	1440.137942084731	5
3	9470	1440.542887646108	6
3	9471	1440.572435215187	5
3	9480	1441.668427741299	6
3	9481	1442.004749784178	5
3	9484	1442.798476764399	4
3	9490	1443.266243570286	5
3	9494	1444.360096063258	4
3	9500	1444.568340718829	5
3	9505	1445.004456736056	6
3	9506	1445.897093199405	5
3	9515	1447.266375927911	6
3	9516	1447.30434140044	5
3	9527	1448.452383709501	6
3	9529	1448.542361585567	7
3	9538	1450.184703693238	6
3	9547	1451.330187695112	7
3	9553	1452.269300548758	6
3	9572	1454.68296557732	7
3	9601	1457.997169178006	8
3	9610	1458.661282513676	9
3	9612	1458.785694429643	10
3	9626	1460.395946358165	11
3	9666	1467.75169823759	10
3	9680	1469.598258201098	11
3	9681	1469.783443773657	10
3	9690	1471.049030340981	11
3	9691	1471.322990783377	10
3	9694	1471.759254610658	9
3	9697	1472.346069582159	8
3	9700	1472.779265061373	7
3	9703	1473.48600146354	6
3	9707	1473.796870931438	7
3	9709	1473.822291141735	8
3	9711	1473.930946984131	9
3	9713	1473.957646396797	10
3	9714	1474.057764625436	9
3	9717	1474.866612749107	8
3	9721	1475.574104600903	9
3	9722	1475.61091623416	8
3	9726	1475.782958554991	9
3	9728	1475.823464100606	10
3	9729	1476.352660254928	9
3	9733	1476.501332048903	10
3	9734	1477.339090813537	9
3	9737	1477.968086320096	8
3	9740	1478.635238030068	7
3	9744	1478.732327724068	8
3	9746	1479.072121115292	9
3	9747	1479.150243943771	8
3	9751	1479.333647107957	9
3	9752	1479.853121487731	8
3	9755	1480.735755187347	7
3	9759	1480.891030012393	8
3	9761	1481.101850927613	9
3	9762	1481.3983353284	8
3	9765	1482.241277675405	7
3	9769	1482.440400013599	8
3	9770	1482.995386057794	7
3	9774	1483.296791586131	8
3	9775	1483.519487950792	7
3	9779	1484.061153518017	8
3	9780	1484.440402231905	7
3	9783	1485.247499842038	6
3	9787	1485.592347155064	7
3	9789	1485.783021781873	8
3	9790	1485.864342349376	7
3	9794	1486.45174136466	8
3	9795	1486.54850806117	7
3	9799	1486.705295054871	8
3	9800	1487.321841632649	7
3	9804	1488.155183416425	8
3	9805	1488.269013041705	7
3	9808	1489.170903548347	6
3	9811	1489.776389616663	5
3	9814	1490.288613398867	4
3	9818	1490.708949267786	5
3	9819	1491.101755033694	4
3	9823	1491.425720723486	5
3	9825	1491.453043604964	6
3	9829	1491.889125055672	7
3	9833	1492.636959947952	6
3	9839	1493.237491649268	7
3	9841	1493.301972737861	8
3	9846	1493.621199286563	9
3	9847	1493.91643320781	8
3	9850	1494.527846510315	7
3	9856	1495.105822476779	8
3	9860	1495.825822545801	7
3	9863	1496.362564314416	6
3	9872	1497.070170905086	7
3	9874	1497.514565142426	8
3	9876	1497.566842486209	9
3	9877	1497.814627356388	8
3	9883	1498.219286404221	9
3	9887	1499.295053402081	8
3	9891	1499.518779836612	9
3	9898	1499.911889141366	10
3	9900	1500.182827783693	11
3	9901	1500.603676858105	10
3	9905	1501.226023964032	11
3	9907	1501.346375522233	12
3	9908	1501.381872602159	11
3	9912	1501.412390210621	12
3	9914	1501.552937869979	13
3	9915	1502.329806355646	12
3	9919	1502.607432729521	13
3	9920	1502.917231140638	12
3	9924	1503.598017437447	13
3	9925	1503.859364598271	12
3	9928	1504.73881970181	11
3	9931	1505.583630502577	10
3	9935	1505.886551049437	11
3	9936	1506.56373576329	10
3	9939	1507.160366610046	9
3	9942	1508.027714946987	8
3	9946	1508.414511965182	9
3	9948	1508.684975322904	10
3	9949	1508.781191776302	9
3	9952	1509.297353759529	8
3	9955	1510.159113533497	7
3	9959	1510.477030852606	8
3	9960	1510.814391228492	7
3	9964	1510.996127465902	8
3	9965	1511.319455817091	7
3	9968	1511.777734477521	6
3	9972	1511.995833434757	7
3	9973	1512.266335593426	6
3	9976	1513.000380152307	5
3	9980	1513.574349882573	6
3	9987	1514.306267007743	7
3	9989	1514.379146189882	8
3	9991	1514.713062800444	9
3	9992	1514.802235469577	8
3	10000	1516.139866057626	7
3	10004	1516.57727962993	8
3	10005	1516.911225812166	7
3	10013	1518.453352389886	6
3	10021	1520.188292877684	5
3	10025	1520.355353106268	6
3	10031	1521.381164438865	5
3	10035	1521.438557558702	6
3	10039	1522.124845207361	7
3	10043	1522.735267220141	6
3	10047	1522.758627483459	7
3	10053	1524.457117333805	6
3	10061	1525.660539766338	5
3	10070	1526.275706359642	6
3	10071	1526.95936241721	5
3	10075	1527.145854967759	6
3	10081	1528.373528640328	5
3	10084	1529.155495893938	4
3	10088	1529.19022580194	5
3	10089	1530.132160271501	4
3	10093	1530.780114958713	5
3	10094	1530.963674216933	4
3	10097	1531.563466771209	3
3	10101	1531.991143802853	4
3	10102	1532.026618580596	3
3	10106	1532.630343262338	4
3	10107	1532.805563435872	3
3	10110	1533.531145480025	2
3	10114	1533.558863875901	3
3	10115	1534.387437440019	2
3	10119	1534.42126643766	3
3	10120	1534.813107092662	2
3	10129	1535.619544385287	3
3	10131	1536.049835838917	4
3	10132	1536.314718225955	3
3	10135	1537.141478825252	2
3	10141	1537.622007818797	3
3	10145	1539.051057924827	2
3	10148	1539.491746052805	1
3	10152	1539.601956747543	2
3	10154	1539.607100201602	3
3	10161	1540.441346444222	4
3	10162	1540.781805872344	3
3	10166	1540.990364816958	4
3	10172	1541.831269589704	3
3	10176	1541.9413175776	4
3	10178	1542.728516767721	5
3	10179	1542.815613048416	4
3	10183	1542.91558562009	5
3	10190	1543.767310228919	6
3	10191	1544.162997754556	5
3	10199	1545.616813637581	4
3	10208	1546.85440381948	5
3	10209	1546.963601749608	4
3	10218	1547.896582214987	5
3	10219	1548.325432309493	4
3	10227	1549.711090296352	3
3	10230	1550.558130843177	2
3	10234	1550.562607523287	3
3	10236	1550.822004399315	4
3	10237	1550.966484448904	3
3	10241	1551.196396945373	4
3	10242	1551.381739649301	3
3	10246	1551.73718716298	4
3	10247	1551.869985500754	3
3	10251	1551.870462685277	4
3	10252	1552.511360604719	3
3	10255	1553.360749700603	2
3	10259	1553.753511630248	3
3	10261	1553.889193038066	4
3	10262	1554.295327135858	3
3	10266	1554.398215052889	4
3	10267	1554.791379104585	3
3	10271	1555.091357387854	4
3	10272	1555.250678745501	3
3	10275	1556.154329074484	2
3	10279	1556.160884973981	3
3	10280	1556.617777966878	2
3	10284	1556.701626820534	3
3	10285	1557.21776316006	2
3	10288	1558.111748332561	1
3	10291	1558.673743932213	0
3	10310	1561.344272245813	1
3	10311	1561.405264134102	0
3	10317	1562.019693360273	1
3	10322	1562.568390124696	2
3	10324	1562.809235869635	3
3	10325	1563.033460268334	2
3	10329	1563.09168718754	3
3	10330	1563.453352994847	2
3	10333	1564.098595791825	1
3	10337	1564.253231563639	2
3	10339	1564.336643624079	3
3	10340	1564.948044929516	2
3	10344	1565.165620840053	3
3	10346	1565.610468907026	4
3	10347	1565.914701368057	3
3	10350	1566.760583589927	2
3	10354	1567.118125988636	3
3	10355	1567.507936627746	2
3	10358	1568.055069916278	1
3	10362	1568.47618877893	2
3	10363	1568.890239455972	1
3	10367	1569.514404730207	2
3	10368	1569.646171168845	1
3	10371	1570.471248210363	0
3	10375	1570.571881102995	1
3	10377	1570.644918151535	2
3	10378	1571.275782416157	1
3	10382	1571.61853330257	2
3	10383	1572.188080067422	1
3	10386	1573.019179931191	0
3	10395	1574.149358078447	1
3	10397	1574.286689906852	2
3	10398	1574.646079441161	1
3	10401	1575.642202694017	0
3	10425	1580.309751479064	1
3	10426	1580.65199502263	0
3	10460	1586.661355616012	1
3	10461	1586.807731492462	0
3	10467	1586.952242785657	1
3	10472	1587.677467391541	2
3	10473	1588.032449277787	1
3	10482	1588.805215335162	2
3	10483	1589.471669625415	1
3	10486	1589.882979470416	0
3	10495	1590.616367788646	1
3	10509	1592.481317685865	2
3	10519	1593.804964697652	3
3	10520	1593.88049707596	2
3	10523	1594.341987734491	1
3	10531	1595.626521079166	0
3	10535	1595.976313113158	1
3	10536	1596.119825981109	0
3	10542	1596.597886069631	1
3	10547	1597.098883724881	2
3	10549	1597.419045874277	3
3	10550	1597.609719437005	2
3	10558	1598.713414957624	1
3	10567	1599.314821180456	2
3	10568	1599.846756500582	1
3	10571	1600.259190670186	0
3	10575	1600.553139382332	1
3	10576	1600.853203826229	0
3	10580	1601.099585668243	1
3	10581	1601.739281086874	0
3	10585	1602.29504700857	1
3	10586	1602.610991321941	0
3	10590	1603.092332438199	1
3	10591	1603.203994311131	0
3	10600	1604.716782854475	1
3	10601	1605.348622398598	0
3	10605	1605.763403758623	1
3	10606	1605.878412409088	0
3	10610	1606.258216437368	1
3	10611	1606.654391604809	0
3	10615	1606.886092821477	1
3	10617	1606.909498035117	2
3	10618	1607.437779342763	1
3	10622	1607.479602342586	2
3	10623	1608.096627361381	1
3	10632	1609.073612504484	2
3	10633	1609.324936005853	1
3	10642	1610.805329648952	2
3	10643	1610.905584477967	1
3	10652	1611.57168005547	2
3	10654	1612.006650386086	3
3	10655	1612.16714207149	2
3	10658	1612.851234811972	1
3	10664	1613.455765806524	2
3	10669	1613.64946184413	3
3	10671	1613.907885640994	4
3	10672	1614.15618372253	3
3	10675	1614.843895488007	2
3	10679	1615.186377515667	3
3	10680	1615.60890343353	2
3	10684	1615.731170554858	3
3	10685	1616.281164433861	2
3	10688	1616.835003600882	1
3	10691	1617.469892534621	0
3	10700	1620.81529703814	1
3	10701	1621.199959572604	0
3	10705	1621.387752401654	1
3	10706	1622.080956442015	0
3	10710	1622.459591031411	1
3	10711	1622.934159439908	0
3	10715	1623.091524442038	1
3	10716	1623.526640461305	0
3	10725	1625.628240552517	1
3	10726	1625.67002176442	0
3	10730	1626.047996922617	1
3	10731	1626.474383083962	0
3	10750	1629.698019557924	1
3	10752	1629.708443655372	2
3	10753	1630.208544558506	1
3	10757	1630.673762905565	2
3	10758	1631.088556151684	1
3	10761	1631.537467850918	0
3	10765	1631.707719850722	1
3	10766	1632.098904052829	0
3	10775	1633.08029580254	1
3	10776	1633.318789384175	0
3	10780	1633.33376915884	1
3	10787	1634.030519983409	2
3	10789	1634.303936838082	3
3	10790	1634.599953425057	2
3	10793	1635.559705313468	1
3	10797	1636.015438505215	2
3	10798	1636.436315659839	1
3	10801	1637.4150170958	0
3	10810	1638.56702226587	1
3	10811	1639.136220798937	0
3	10820	1640.019404297056	1
3	10822	1640.02427434854	2
3	10823	1640.623983071782	1
3	10826	1641.234235313898	0
3	10850	1650.112435930082	1
3	10851	1650.23103566983	0
3	10857	1650.625611899971	1
3	10861	1651.388417937962	0
3	10867	1651.990885817639	1
3	10874	1652.496315619079	2
3	10888	1655.147708704631	1
3	10897	1656.189734289958	2
3	10904	1656.787717099708	3
3	10905	1657.573083765647	2
3	10908	1658.163511861004	1
3	10912	1658.302789888133	2
3	10913	1658.99342417296	1
3	10916	1659.703930569375	0
3	10925	1660.893269491476	1
3	10926	1660.96334101768	0
3	10930	1661.112110198327	1
3	10931	1661.579184221251	0
3	10935	1662.054103854277	1
3	10936	1662.157718744835	0
3	10940	1662.319904906752	1
3	10941	1662.733871394729	0
3	10950	1663.845428449976	1
3	10957	1664.543347161179	2
3	10958	1665.314539784303	1
3	10966	1666.437531590013	0
3	10985	1669.265450570823	1
3	10986	1669.601414762943	0
3	10995	1670.458891973097	1
3	10997	1670.580879463286	2
3	10999	1671.06937904557	3
3	11000	1671.391243035852	2
3	11003	1672.221130975329	1
3	11007	1672.269533168646	2
3	11009	1672.272062761401	3
3	11010	1672.746592396537	2
3	11013	1673.705023349395	1
3	11016	1674.60335632222	0
3	11020	1675.144032827861	1
3	11021	1675.339634064299	0
3	11030	1676.594669262638	1
3	11031	1677.182880201254	0
3	11035	1677.319001197324	1
3	11036	1677.993874498101	0
3	11040	1678.267064640522	1
3	11041	1678.446103132533	0
3	11045	1678.623794335052	1
3	11046	1679.157827120943	0
3	11055	1680.699069465068	1
3	11056	1680.787547935453	0
3	11060	1680.800520637142	1
3	11061	1681.737251893944	0
3	11065	1681.789928134899	1
3	11066	1682.338595656586	0
3	11070	1682.344779584727	1
3	11071	1682.873221886625	0
3	11075	1683.036700705252	1
3	11076	1683.485901506805	0
3	11085	1684.760681356514	1
3	11087	1684.978782518686	2
3	11089	1685.048509330297	3
3	11090	1685.264501169789	2
3	11093	1685.862518984312	1
3	11097	1686.470309288063	2
3	11098	1686.783269543806	1
3	11102	1686.796739878475	2
3	11103	1687.484578682668	1
3	11106	1688.233009101264	0
3	11120	1690.165584997534	1
3	11121	1690.630498016647	0
3	11125	1690.847258108036	1
3	11126	1691.18081189154	0
3	11130	1691.690271870377	1
3	11131	1692.091327758201	0
3	11135	1692.29756255548	1
3	11136	1692.6481097494	0
3	11140	1692.801293410088	1
3	11142	1693.377521677662	2
3	11143	1693.479485738066	1
3	11147	1693.68097146687	2
3	11148	1693.998514860098	1
3	11152	1694.111564711244	2
3	11153	1694.457888729752	1
3	11156	1695.314326528435	0
3	11170	1698.567556952306	1
3	11171	1698.803885100631	0
3	11177	1699.154765529278	1
3	11179	1699.228202127461	2
3	11183	1700.268169857224	1
3	11187	1700.778985960457	2
3	11188	1701.234151972493	1
3	11192	1701.723301293171	2
3	11193	1702.003931419074	1
3	11197	1702.257903626145	2
3	11198	1702.44356996374	1
3	11201	1702.908599992644	0
3	11205	1703.378069381061	1
3	11206	1703.575712174958	0
3	11210	1703.601255526793	1
3	11212	1703.993132023795	2
3	11213	1704.049118836772	1
3	11219	1704.583887416251	2
3	11224	1705.409299662048	3
3	11225	1705.683458289679	2
3	11233	1706.904700133286	1
3	11237	1707.374657273828	2
3	11238	1707.796592551458	1
3	11242	1707.919188242158	2
3	11244	1707.948144629667	3
3	11246	1708.158189032932	4
3	11247	1708.33370444075	3
3	11250	1709.264756454935	2
3	11254	1709.634686976327	3
3	11255	1709.815336227825	2
3	11258	1710.38053195834	1
3	11262	1710.856192798801	2
3	11263	1711.35336401047	1
3	11267	1711.487483367835	2
3	11268	1711.789981480304	1
3	11272	1712.298073176927	2
3	11273	1712.683145105036	1
3	11276	1713.333789258253	0
3	11280	1713.448292493587	1
3	11281	1714.261293532456	0
3	11285	1714.696922670873	1
3	11286	1715.054639232474	0
3	11295	1715.880973052593	1
3	11297	1716.323529819627	2
3	11298	1716.494981361977	1
3	11307	1717.382583090113	2
3	11308	1718.112587100552	1
3	11316	1718.99082533848	0
3	11325	1720.008533101189	1
3	11326	1720.255327122526	0
3	11340	1722.837671120213	1
3	11341	1723.434648759083	0
3	11345	1723.741343268316	1
3	11346	1723.937896018501	0
3	11350	1723.953522109622	1
3	11351	1724.745971739877	0
3	11360	1726.376983346373	1
3	11361	1726.570747696566	0
3	11405	1736.90117026556	1
3	11406	1737.399526639255	0
3	11415	1738.646232371103	1
3	11416	1738.935498286989	0
3	11430	1740.544017175891	1
3	11431	1741.210422822803	0
3	11440	1741.802415768439	1
3	11441	1742.1887431428	0
3	11450	1742.960436226862	1
3	11451	1743.572698737045	0
3	11470	1746.721315011426	1
3	11471	1747.109006257759	0
3	11480	1748.283546959275	1
3	11481	1748.4294738083	0
3	11487	1749.121937873625	1
3	11491	1750.062472835634	0
3	11515	1755.771994543589	1
3	11516	1756.01942896286	0
3	11525	1757.19284847519	1
3	11526	1757.402578989134	0
3	11540	1759.443560974239	1
3	11541	1759.983196068735	0
3	11550	1761.503569460386	1
3	11551	1761.612106497707	0
3	11565	1763.480931001073	1
3	11566	1764.324030648291	0
3	11570	1764.472603399044	1
3	11571	1765.241605609914	0
3	11585	1768.045939767409	1
3	11586	1768.725509018739	0
3	11597	1770.027042167769	1
3	11601	1771.455610264821	0
3	11610	1772.219397609461	1
3	11611	1772.908908009327	0
3	11627	1774.734412658203	1
3	11632	1775.620833953138	2
3	11633	1775.695462872585	1
3	11636	1776.549079589484	0
3	11640	1777.052924568015	1
3	11641	1777.081140436357	0
3	11655	1779.918793690562	1
3	11656	1780.554406602433	0
3	11680	1785.160681676841	1
3	11682	1785.511403030458	2
3	11683	1785.783145754105	1
3	11687	1786.175556138882	2
3	11688	1786.514044129868	1
3	11691	1787.178106602534	0
3	11695	1787.890118048656	1
3	11696	1788.075166054975	0
3	11765	1810.826537086409	1
3	11766	1811.08691449097	0
3	11770	1811.157716038495	1
3	11777	1812.209785232492	2
3	11778	1812.322741832646	1
3	11787	1813.079025991379	2
3	11788	1813.601961491458	1
3	11796	1814.908917156202	0
3	11810	1816.412579853536	1
3	11811	1816.683775387281	0
3	11827	1818.140373282202	1
3	11831	1819.351131605292	0
3	11835	1819.521344563358	1
3	11842	1820.285016890288	2
3	11843	1820.851350622093	1
3	11849	1821.040688340391	2
3	11854	1821.837229126393	3
3	11855	1822.669887360818	2
3	11863	1824.296572026824	1
3	11867	1824.450393060798	2
3	11874	1825.263065881986	3
3	11875	1825.790351882186	2
3	11883	1827.046055177628	1
3	11887	1827.441682598441	2
3	11888	1827.81820696516	1
3	11891	1828.691518324362	0
3	11895	1828.793541311564	1
3	11896	1829.182243350269	0
3	11900	1829.208337603526	1
3	11902	1829.23392846735	2
3	11903	1829.814633199181	1
3	11906	1830.512308011045	0
3	11935	1837.294670694322	1
3	11936	1837.729534393304	0
3	11940	1838.281287564945	1
3	11941	1838.31005918401	0
3	11945	1838.473323918846	1
3	11946	1839.034082457225	0
3	11990	1849.235125560353	1
3	11991	1849.27127192977	0
3	11997	1849.321608108766	1
3	12001	1850.670067272728	0
3	12015	1852.512539732226	1
3	12016	1852.957183824924	0
3	12040	1863.631691946394	1
3	12041	1863.71124977984	0
3	12052	1865.004865703552	1
3	12054	1865.054646886257	2
3	12073	1868.234754151082	1
3	12081	1869.683224712707	0
3	12095	1870.851407365183	1
3	12096	1871.445549768619	0
3	12120	1875.407831172042	1
3	12121	1875.923601707678	0
3	12125	1876.210273620903	1
3	12126	1876.479860335218	0
3	12145	1879.107639613852	1
3	12146	1879.601704524282	0
3	12155	1880.659475867888	1
3	12156	1880.713289276288	0
3	12170	1882.405545375505	1
3	12241	1891.940972456219	2
3	12261	1894.483932314649	3
3	12273	1896.651897760446	4
3	12277	1897.319545787347	3
3	12312	1900.804275031644	4
3	12361	1907.175878015891	5
3	12509	1929.605102318722	4
3	12520	1930.478127128909	5
3	12559	1935.91192288465	4
3	12568	1936.582900928907	5
3	12569	1937.230810257571	4
3	12578	1938.142266515443	5
3	12579	1938.460267623572	4
3	12582	1939.269205424108	3
3	12586	1939.345731363223	4
3	12590	1939.661280191072	5
3	12594	1940.234855960321	4
3	12600	1940.41628503668	5
3	12604	1942.060258406319	4
3	12612	1943.468325434077	3
3	12620	1945.108432276324	2
3	12629	1946.184364596402	3
3	12630	1946.692717067814	2
3	12638	1948.336508607269	1
3	12647	1948.784110170293	2
3	12648	1949.666989885793	1
3	12656	1951.116746046683	0
3	12660	1951.19922681664	1
3	12667	1952.30112006146	2
3	12668	1952.515725721801	1
3	12671	1953.229511361393	0
3	12685	1955.618295467994	1
3	12686	1955.744839198686	0
3	12692	1956.375148227025	1
3	12697	1956.846680474689	2
3	12698	1957.510699831586	1
3	12701	1958.478567200465	0
3	12705	1958.561177912443	1
3	12712	1959.538452984216	2
3	12713	1959.773707057241	1
3	12722	1960.548543610489	2
3	12723	1961.098223366946	1
3	12726	1961.623187663903	0
3	12740	1963.025593812185	1
3	12742	1963.505482303125	2
3	12743	1963.536571070063	1
3	12746	1964.290682829381	0
3	12750	1964.478130558668	1
3	12751	1964.749701690371	0
3	12755	1964.878126358126	1
3	12756	1965.30707021181	0
3	12760	1965.323153039012	1
3	12761	1965.833098766557	0
3	12770	1968.074536044989	1
3	12772	1968.244398530467	2
3	12773	1968.386349735601	1
3	12777	1968.992087636174	2
3	12778	1969.287776559271	1
3	12782	1969.291498692427	2
3	12783	1969.757746944349	1
3	12786	1970.362447887059	0
3	12805	1974.338059741402	1
3	12806	1974.873330233236	0
3	12810	1974.980910219834	1
3	12811	1975.663503139689	0
3	12820	1977.049674752381	1
3	12821	1977.251682431137	0
3	12825	1977.784529903917	1
3	12826	1978.055602413442	0
3	12835	1979.533291416834	1
3	12836	1980.277984846716	0
3	12840	1980.464650633845	1
3	12842	1980.46953500321	2
3	12843	1981.169697294112	1
3	12846	1981.665932932131	0
3	12850	1981.901140859652	1
3	12852	1982.053664826645	2
3	12853	1982.503384238349	1
3	12857	1982.661963088966	2
3	12859	1983.133373344083	3
3	12860	1983.441321053503	2
3	12864	1983.643279327895	3
3	12865	1984.420192382818	2
3	12868	1984.863408796217	1
3	12872	1984.917195410515	2
3	12873	1985.512815167948	1
3	12876	1986.377861369082	0
3	12890	1988.895706430186	1
3	12891	1989.569935713447	0
3	12905	1991.206364490624	1
3	12906	1991.826457195407	0
3	12915	1993.940162770669	1
3	12916	1994.32275751792	0
3	12925	1996.326017137363	1
3	12927	1996.79776915351	2
3	12928	1996.937459307771	1
3	12931	1997.432121644124	0
3	12940	1998.910774510293	1
3	12941	1999.141608729591	0
3	12967	2003.09744226766	1
3	12971	2003.611986308255	0
3	12982	2004.371250566685	1
3	12986	2005.237938737719	0
3	13010	2011.892414493559	1
3	13012	2012.515868698613	2
3	13013	2012.669741838093	1
3	13016	2013.078344136004	0
3	13055	2021.886589519597	1
3	13056	2022.437403476132	0
3	13065	2024.009475737894	1
3	13066	2024.149884556454	0
3	13070	2024.414242029128	1
3	13076	2025.84510449398	0
3	13105	2031.723291108003	1
3	13106	2032.273286978765	0
3	13110	2032.511924253736	1
3	13111	2033.116382349846	0
3	13125	2035.219330467869	1
3	13127	2035.499976168329	2
3	13128	2035.73163922437	1
3	13132	2035.828242484799	2
3	13133	2036.631231494187	1
3	13137	2037.086161168643	2
3	13138	2037.384111800775	1
3	13141	2038.228551362021	0
3	13145	2038.318702417003	1
3	13146	2039.033264253367	0
3	13200	2063.169574631372	1
3	13201	2063.204003919933	0
3	13265	2086.080191167111	1
3	13266	2086.884449146725	0
3	13270	2087.003084862076	1
3	13271	2087.645575108928	0
3	13275	2088.112379808625	1
3	13277	2088.217060237581	2
3	13278	2088.529497976545	1
3	13282	2088.789145980305	2
3	13283	2089.303419167492	1
3	13286	2090.128784582102	0
3	13290	2090.418795862969	1
[...]
6	155430	25368.026006814116	3.794003057196
6	155489	25375.901673528901	3.731215877884
6	155492	25376.634656477556	7.190768474617
6	155686	25407.256510885443	3.994743070751
6	155813	25424.821771929518	3.559186530466
6	155875	25433.77636957738	18.948203715735
6	155890	25435.786034761755	4.52742058443
6	155940	25443.51129328894	30.233147268366
6	155989	25449.68417072889	22.470290341327
6	155994	25450.284405477592	2.960072975852
6	156296	25493.950215488072	11.729672405982
6	156364	25504.50161699403	1.117761585482
6	156392	25508.240985465859	2.763211316648
6	156521	25530.868682783816	8.073094431168
6	156559	25536.774636615042	1.452628374216
6	156671	25552.557746445578	11.61090127335
6	156770	25569.591362651749	4.289672551476
6	156792	25573.274946979671	3.57818229206
6	156829	25578.984209052246	11.070879917948
6	156857	25583.54069690118	8.924750602932
6	156894	25588.768865863429	14.400444759665
6	156912	25591.999468849417	4.917616375689
6	156977	25602.709269984833	2.222166403569
6	157062	25629.420227159024	1.083804775382
6	157065	25630.3575243823	4.561048950437
6	157123	25639.793209765879	6.642996833703
6	157129	25641.032089494662	6.821425687119
6	157192	25651.006805872058	17.595847069487
6	157322	25693.334440672676	10.302326170843
6	157374	25712.947381259252	0.961564645963
6	157385	25715.421400786408	2.598712095817
6	157488	25730.047761447701	5.756468159858
6	157513	25733.676715116921	2.008649138532
6	157525	25735.056999613598	3.764066112615
6	157579	25741.613357604409	24.176031315025
6	157604	25746.261145571779	1.339359653548
6	157618	25747.752369597528	1.411978243626
6	157746	25767.04735534147	7.216641900525
6	157892	25790.257789764308	1.10919153938
6	157944	25798.149783063946	0.742645180729
6	158017	25808.556417550395	0.591918272983
6	158149	25825.651043266447	7.869423142997
6	158162	25827.56924576002	18.227903548862
6	158250	25846.589418844778	2.074452511895
6	158260	25849.267543451283	2.241505102654
6	158290	25859.678918383416	3.550334459231
6	158322	25864.674269088782	3.840289548668
6	158375	25874.382063339842	19.75869608582
6	158380	25875.177556328559	0.732200321974
6	158435	25894.679934651491	10.11597578821
6	158475	25904.396659536775	0.930210161719
6	158500	25909.010932209123	0.559271910112
6	158613	25926.269041977032	11.640158077516
6	158643	25930.113461104082	13.392294396851
6	158689	25936.381378320884	16.985172711472
6	158699	25937.988544379221	23.722219094317
6	158709	25939.594618824311	20.604757366312
6	158734	25943.676075734944	9.164091312878
6	158747	25946.067467213051	3.05156391158
6	158757	25947.526300367109	10.588860567219
6	158830	25958.220867673122	9.610952704133
6	158873	25964.631504340285	29.317789918101
6	158979	25980.439836067337	0.712176301253
6	159042	25987.771721634552	3.280892988954
6	159075	25992.949444197354	11.324170801195
6	159189	26008.770554722522	3.193876385066
6	159223	26013.936560214034	3.421733024986
6	159297	26024.153594802836	8.963891221212
6	159330	26028.650511947464	4.300451810212
6	159506	26053.736366997941	28.267643151805
6	159516	26055.329941519352	3.861250052557
6	159566	26062.268668289346	7.51981552805
6	159579	26064.026589540349	13.885557886363
6	159759	26092.389678478169	13.923394759982
6	159942	26124.108540325545	9.945104484738
6	159969	26129.061883854253	3.233047211898
6	159997	26133.970961027861	1.62422507307
6	160075	26158.263078032072	7.692009174991
6	160157	26186.733922799245	0.667578016031
6	160231	26198.239377916875	11.972852166399
6	160254	26201.890624430472	0.439100657543
6	160339	26212.176131724728	2.787235244089
6	160342	26212.715961029403	10.270779640807
6	160362	26216.018246369086	1.226415482604
6	160421	26225.350031682593	3.547945108678
6	160460	26229.819843631308	2.47335919593
6	160534	26239.778928232077	10.076653577104
6	160624	26267.645331273567	4.110146223236
6	160721	26282.897241726969	8.285589112483
6	160742	26285.986615506732	1.107739031715
6	160755	26295.60863522363	0.768285450852
6	160760	26297.365336518627	0.462927576993
6	160888	26326.415853683058	15.807722108512
6	160906	26329.51791368021	11.900902847184
6	161075	26358.9586326004	2.746432310485
6	161102	26362.736799429856	3.770385253756
6	161165	26379.373918512983	1.286975087702
6	161177	26381.808910543453	2.194667916962
6	161224	26388.698112085255	7.521571116869
6	161317	26405.114738353505	5.605348218516
6	161478	26428.229333958983	3.769644430971
6	161527	26435.062505489704	19.495160082258
6	161534	26435.586095522786	1.082525136731
6	161565	26440.002256324584	2.56213120686
6	161606	26444.529333247112	2.195546240187
6	161745	26465.071438813817	11.882061143343
6	161753	26466.746978632083	22.872573555856
6	161756	26467.472422665266	10.376694914711
6	161867	26481.635926850699	3.867449653392
6	161912	26488.083025271632	8.408795761882
6	161933	26491.52308700108	21.63089042411
6	162101	26516.379460324055	15.416410444869
6	162160	26523.80634499	2.024168725597
6	162194	26528.429096681657	6.363519082732
6	162250	26548.519875915509	0.429040005151
6	162280	26556.896749644566	2.959216752208
6	162360	26568.259130310982	10.687212679423
6	162392	26574.579067754449	0.46900455975
6	162530	26597.44709842487	2.776172867961
6	162557	26602.387523289376	32.643216431253
6	162623	26611.03111813979	1.970160269761
6	162626	26611.872418744515	9.062451383255
6	162789	26635.320553195687	4.041598582889
6	162794	26636.115111190198	9.179439223898
6	162807	26638.361218277994	7.614332692149
6	162810	26639.088153023436	12.243912894018
6	162838	26643.497446197715	41.524155305042
6	162858	26646.410602545157	2.699720343629
6	162903	26652.309849015646	33.981808645152
6	162924	26655.480210457113	0.732771659045
6	162980	26664.861582703009	4.805410118652
6	163015	26670.552952973179	1.21381392978
6	163126	26686.038816352242	15.307390296044
6	163195	26697.288183523582	0.537082286204
6	163317	26712.852861703055	4.288543843765
6	163436	26728.811608596152	9.160648930623
6	163457	26732.351150428044	10.920736379953
6	163583	26751.300794684705	3.897889935472
6	163716	26770.305539829618	1.241020584704
6	163790	26781.158151411225	24.068182554881
6	163851	26788.965252340173	2.397894528586
6	163949	26803.184987610167	3.496813982361
6	163972	26806.176377260506	21.942917183193
6	164024	26812.761991514038	2.995445114678
6	164096	26822.506760362589	5.435772423268
6	164345	26858.600423940419	24.091191612952
6	164426	26870.77111480549	7.996135824957
6	164579	26893.059149151307	19.444428195569
6	164665	26904.547312304669	3.749135238496
6	164899	26949.412501030198	1.250920036888
6	164917	26951.731901255684	4.423548051046
6	164999	26962.28880403183	8.118909452181
6	165066	26970.916239655686	26.924379838945
6	165089	26973.983084521458	0.746155601094
6	165176	26986.8260945941	1.378155810271
6	165326	27007.821896117472	8.459403267452
6	165366	27012.950167439146	24.183376965062
6	165377	27014.740735602159	12.431163856944
6	165446	27023.15546615125	7.656666766917
6	165494	27031.019322307281	1.601810794717
6	165564	27042.961251274788	3.073520919083
6	165625	27052.44583204027	1.434620133385
6	165648	27056.343329566826	7.969115146762
6	165728	27067.877847416715	1.048883693211
6	165780	27081.118825326633	0.714679067349
6	165822	27090.151540491472	2.163475256413
6	165845	27095.312115513173	0.893422550719
6	165885	27102.517012496715	4.691475604858
6	165987	27117.276520734391	8.733638643895
6	166012	27120.628308418597	4.309655429223
6	166025	27122.23741048334	13.563844879967
6	166055	27126.65750923992	12.247928693623
6	166082	27131.010054141673	8.165153283925
6	166093	27132.683087232448	4.589276701922
6	166165	27142.462979091304	11.536101323867
6	166243	27154.210692025788	10.07516548954
6	166326	27165.891835015202	0.909096438472
6	166363	27171.000765819967	5.64643805556
6	166376	27173.585027498639	1.492184933379
6	166575	27222.725442522056	4.678065208597
6	166635	27239.812590605045	6.27757805332
6	166790	27265.93713415232	1.229529953301
6	166829	27272.090588805819	7.840082928825
6	166937	27298.969308929099	1.980411757889
6	167072	27324.618548595248	10.35031270115
6	167221	27350.427596616874	8.021194872269
6	167244	27353.798298878352	20.691320311341
6	167350	27369.28549420653	10.988827629146
6	167358	27370.320203687075	0.960319063718
6	167405	27376.497344677906	9.504737583637
6	167576	27399.776389540641	11.708585854874
6	167669	27415.84958809703	3.494531331437
6	167811	27435.504138731682	1.919052110751
6	167848	27441.155852102633	12.279433571709
6	168155	27485.900959132218	0.937982683969
6	168170	27488.462778448851	16.36928570888
6	168209	27493.746838614649	5.017694540669
6	168219	27494.839356206476	3.231649796331
6	168228	27495.578258065532	0.975740135989
6	168249	27499.347902698374	8.810615130675
6	168302	27507.07723235765	2.135459829165
6	168370	27513.99114183595	0.926892611346
6	168533	27539.890340144722	4.168446276168
6	168655	27556.959508933567	2.876818603368
6	168678	27560.591668923826	5.662599529309
6	168712	27566.199498442257	1.419026482138
6	168905	27593.621089030921	11.32431238057
6	168990	27606.406526333864	11.495465297102
6	169216	27637.196267874092	5.881583473552
6	169252	27642.488654315211	1.603040989322
6	169300	27649.441943828502	12.310931144013
6	169311	27651.496914605303	14.623414449571
6	169385	27661.498635847234	1.454741363034
6	169390	27662.47998431895	9.187306910317
6	169573	27685.709093027441	0.861139026094
6	169581	27686.6494675731	7.034865188148
6	169661	27698.923020808093	2.652196092492
6	169676	27700.667800168108	3.18659069461
6	169679	27701.153872630486	8.17462062821
6	169777	27714.772785796898	6.249640944638
6	169780	27715.408893179961	2.599478041478
6	169803	27719.30569172173	4.747594749478
6	169847	27724.659627067971	1.956198549732
6	169860	27726.261667338641	2.352892860711
6	169976	27741.208157713268	21.069403026869
6	170044	27751.058005962498	16.161805614755
6	170153	27766.164784104913	1.821263036333
6	170199	27773.632656912204	19.666400515211
6	170335	27793.577225097899	10.321774509934
6	170360	27796.967663973361	13.928787480513
6	170392	27800.967056695862	1.272706195957
6	170409	27803.190174465418	14.561915825547
6	170466	27810.884741122439	12.137647742707
6	170501	27816.962199134496	11.943855975321
6	170523	27819.949503451842	1.962047364304
6	170588	27827.583369099791	3.919875072689
6	170606	27830.472901452541	8.258954949012
6	170609	27831.190379907073	29.384024276604
6	170622	27833.406087515153	22.247393895462
6	170625	27833.971451849606	34.101595946126
6	170648	27837.743904917896	0.774859629271
6	170670	27840.634588822605	18.781904429462
6	170683	27843.200179553799	4.581777935584
6	170765	27856.731353462974	9.721210509719
6	170830	27866.415583231367	0.917293996548
6	171013	27892.381830676246	10.438667583329
6	171076	27900.801190151201	13.666957336839
6	171115	27905.284720528657	6.536922652399
6	171339	27936.702669660627	0.664580433338
6	171481	27956.112933974405	4.109021711924
6	171498	27958.241054756911	13.74661803742
6	171597	27971.928862828686	15.452922876108
6	171638	27977.444864212134	7.667092548698
6	171641	27978.41757963092	2.932303857756
6	171697	27986.58787191335	2.848512596198
6	171928	28019.208889198416	27.375889089924
6	171990	28027.425073063719	20.249378325492
6	172059	28036.675959019149	1.941922727757
6	172079	28039.732447226924	7.358852366417
6	172092	28042.483547804012	15.458920528114
6	172246	28064.926477035245	47.529805187568
6	172405	28086.033110766365	13.24066221938
6	172433	28089.8714804772	2.204285861375
6	172448	28092.209017194639	30.548830450372
6	172476	28096.610295453265	4.730167282147
6	172528	28104.723082009627	7.583569119085
6	172533	28105.674957012216	3.63233508588
6	172563	28110.311936252581	1.310357308324
6	172621	28117.73952542182	2.192229890445
6	172696	28126.739649171493	1.246632042346
6	172708	28128.261061401729	6.67687427727
6	172762	28133.867078723823	12.711726140151
6	172765	28134.275018961885	4.680925896466
6	172846	28145.583537695155	13.697312392911
6	172865	28148.923660678945	5.707764566442
6	172910	28155.189164155272	4.007869623213
6	172997	28167.758764034524	0.818389282994
6	173054	28176.458593308894	4.527790755143
6	173096	28182.410449757348	0.635071127969
6	173159	28191.254495179248	6.266231314564
6	173531	28241.923821636676	37.105196560593
6	173539	28243.138325690213	4.678665630577
6	173542	28243.960630831044	5.237935702696
6	173637	28256.989146232155	6.356460339119
6	173645	28258.22639166109	8.362302716602
6	173656	28260.526016363564	11.09628453888
6	173677	28264.1098429721	1.355705644165
6	173782	28290.987431777171	0.770055559324
6	173817	28296.640117770929	12.697109673673
6	173822	28297.344686659036	6.219958991951
6	173830	28299.234879235811	0.817499182886
6	173877	28308.272666442543	6.219885548796
6	173956	28323.441464420927	9.523861120455
6	174003	28328.937182307671	11.747190284452
6	174043	28333.902945009163	9.538417203447
6	174066	28337.702478687149	1.898490043839
6	174108	28343.318044115894	27.788234648991
6	174111	28344.304242390452	3.470711415706
6	174157	28350.932499695692	7.795519396208
6	174222	28366.372278078549	2.023917582357
6	174304	28380.582008995789	1.336052939112
6	174445	28401.28032628263	10.510439974333
6	174448	28401.801330904408	0.908952505766
6	174531	28414.75848772356	11.000224410944
6	174582	28422.10330079489	3.349581658001
6	174600	28425.164732998782	2.667688477346
6	174646	28433.361771225419	2.9607614461
6	174688	28438.394049222351	1.157478359578
6	174724	28444.226912325809	11.257144779544
6	174747	28457.19179106887	0.534640039084
6	174904	28484.986910155604	9.95545938027
6	174998	28499.600867442519	1.376601288885
6	175043	28505.830856699695	3.700879859817
6	175085	28511.450446647837	7.309367147328
6	175098	28513.686838737562	25.087415597691
6	175103	28514.480076716155	1.927466263704
6	175116	28516.395369388316	2.533675531094
6	175158	28522.182048423231	2.996108823508
6	175161	28522.948242888755	6.248954758401
6	175287	28549.772035031345	2.664517552633
6	175307	28553.4378279816	1.042499361137
6	175325	28557.206861643034	0.971748846959
6	175589	28614.898258219111	35.105784951731
6	175670	28625.157501848416	8.596402688318
6	175681	28627.543634811604	15.777608253782
6	175711	28631.291927101232	12.746341829206
6	175726	28633.574396830288	0.971365487876
6	175805	28648.721705090129	2.906093782264
6	175941	28673.143728597388	13.251368620689
6	175987	28679.908521718398	9.715158462626
6	176080	28691.369825173874	7.146994068267
6	176100	28693.643775782508	7.821572983236
6	176153	28701.575941771741	28.912362666719
6	176175	28704.441925606604	1.822488395089
6	176178	28704.974587886741	3.332367657513
6	176288	28720.76136524896	29.378856389572
6	176371	28733.227691912417	19.581248105938
6	176461	28748.966678693386	2.20523123494
6	176551	28762.038741301847	7.341875986218
6	176636	28772.403367845724	5.392627523227
6	176694	28780.288768884549	11.303104647655
6	176766	28789.917547600475	0.660473197996
6	176795	28793.674100493911	5.454929051222
6	176823	28798.353335650583	5.313501371887
6	176922	28818.857608183377	0.622000794951
6	177006	28844.282302063237	1.130012264256
6	177056	28851.403551976522	2.379885979419
6	177084	28854.519110208703	0.873946469716
6	177215	28872.516007957887	16.559400551573
6	177218	28873.383742429549	7.731528490253
6	177394	28898.206263992098	24.42401431561
6	177435	28903.642348259736	6.811045196673
6	177597	28926.488724620409	6.456279494018
6	177723	28944.837360841317	7.530293659215
6	177770	28952.458090794041	38.651108768535
6	177874	28987.112235050698	1.048330251377
6	177987	29009.803810561623	3.156367797544
6	178002	29012.214802118971	1.574613634603
6	178045	29031.117090770249	1.762723482887
6	178107	29049.981977136597	6.219820260341
6	178130	29055.068564251133	15.414565172117
6	178155	29063.045671749264	1.386490848332
6	178167	29068.511404322815	0.774114890583
6	178221	29085.441556175969	5.050146770217
6	178355	29107.0343693336	1.059260872364
6	178377	29109.644310749973	7.003691976338
6	178388	29111.709111572894	8.565926672863
6	178572	29141.706251572532	2.193354089997
6	178680	29163.328004825191	7.640259411962
6	178773	29182.157951920204	8.256120741086
6	178908	29201.199328393588	1.58315659648
6	178942	29205.835295916028	2.678737020371
6	178953	29208.239231657801	30.522153274641
6	179171	29240.216292749404	3.738779956147
6	179305	29260.242519403093	4.903642159395
6	179317	29261.479020348036	3.995830498673
6	179335	29264.686681506907	22.452522383953
6	179431	29277.991297105637	17.722919662001
6	179455	29281.045478382736	0.787598857415
6	179505	29289.570019996939	10.044321362558
6	179603	29305.185804301076	3.879190846818
6	179646	29311.356981402816	3.64316045369
6	179669	29314.877598380664	12.90859287958
6	179709	29320.707009962662	2.937588904212
6	179762	29328.306811768759	7.142282735055
6	179777	29330.295706873703	0.473441439374
6	179790	29333.381446636028	10.087956580956
6	179857	29352.630455670916	4.590989706246
6	179929	29386.036322686003	6.51552669576
6	179961	29390.106302280884	4.178956814886
6	179989	29393.897158529025	7.012528450517
6	180104	29407.39447475916	13.191995317724
6	180122	29410.292481623518	13.179207356726
6	180160	29416.039746826304	21.308748663994
6	180213	29423.62366455302	17.971051280101
6	180318	29438.782796576874	1.508126194526
6	180328	29440.155131224937	16.851839407442
6	180358	29444.140587439037	2.533276562016
6	180709	29502.412743316114	1.48974126523
6	180783	29512.542185397995	15.703686297837
6	180815	29516.616427488614	6.141952983565
6	180950	29535.45726006882	4.735083132606
6	180982	29539.100494803104	6.813594167903
6	180985	29539.772849256347	21.221894879269
6	180996	29541.712782279111	11.688446138168
6	181004	29542.781110991712	8.559395565633
6	181070	29551.203761479388	20.031570425667
6	181284	29580.535600614441	6.459838260683
6	181448	29603.629345639221	1.042942751153
6	181483	29609.115557808461	8.953348319503
6	181486	29609.716983839622	9.371333670605
6	181612	29626.303068683794	3.391546836258
6	181640	29629.417455983938	1.101965949664
6	181813	29654.362179248719	3.987591001421
6	181828	29656.957591669481	4.585866879927
6	181831	29657.510929697739	2.659118831467
6	181886	29665.173677869129	1.899042035233
6	181951	29674.2729004701	12.246269002867
6	182030	29684.738276332511	15.353902394735
6	182157	29702.472372530063	7.337193445108
6	182187	29707.224782275165	0.908091578204
6	182273	29719.50690112127	1.162257989554
6	182334	29727.345509379254	1.389543598452
6	182419	29738.96014973264	3.851337525348
6	182427	29740.447618002899	10.295114918511
6	182452	29743.273538115003	11.511428873372
6	182596	29766.423414301372	0.648142106842
6	182772	29792.068733455829	5.174212851743
6	182794	29795.04633274522	1.097969994601
6	182825	29799.748851089873	6.514739305575
6	182830	29800.748292767788	0.834121868014
6	182965	29822.256524006703	1.077939731815
6	182970	29822.918134866429	15.086264366357
6	182997	29825.936930210338	1.359058732533
6	183013	29828.879032656559	13.038544890268
6	183067	29836.157769178748	0.703435977186
6	183075	29836.99668617133	4.181571219299
6	183124	29844.396235016929	25.907222628436
6	183181	29851.384714105793	2.350051824024
6	183194	29853.57531368702	1.044629599975
6	183284	29869.025049091837	4.962624366674
6	183436	29890.743462600706	3.027205669199
6	183456	29893.091989923368	2.297294527184
6	183468	29894.467857449601	1.273581939519
6	183485	29896.885616395583	19.436817601528
6	183490	29897.546449545592	1.507071406415
6	183528	29903.570391474298	4.195895358793
6	183582	29910.968496007387	14.286366895374
6	183585	29911.713074374579	12.950268625879
6	183590	29912.473054898584	1.870926504268
6	183603	29914.665544609453	6.633923470831
6	183735	29932.508052593429	5.149971963182
6	183738	29933.153704376711	3.41515487452
6	183770	29937.41867877129	1.793233216303
6	183788	29940.270376658585	3.275919021911
6	183902	29955.946796473165	17.784816415647
6	183907	29956.7743828584	40.696893128632
6	183939	29961.327301942325	1.04186495399
6	183942	29962.064261077392	2.513067791991
6	183967	29965.903070138442	2.442223754253
6	184019	29973.355835268647	3.067788125255
6	184085	29981.480527725209	1.084047184319
6	184106	29984.979690101229	7.205665411458
6	184160	29992.170454149738	5.679929201312

