version 2
run First_exit_8-1-20191114-11:42:23-8828
attr configname First_exit_8
attr datetime 20191114-11:42:23
attr experiment First_exit_8
attr inifile omnetpp.ini
attr iterationvars ""
attr iterationvarsf ""
attr measurement ""
attr network ResponseTimeNetwork
attr processid 8828
attr repetition 1
attr replication #1
attr resultdir results
attr runnumber 1
attr seedset 1
param **.Source.interArrivalTime exponential(4s)
param **.jobPriority bernoulli(0.4)
param **.PS.serviceTimeU1 "uniform(0.4s, 1.0s)"
param **.PS.serviceTimeU2 "uniform(1s, 1.2s)"
param **.SS1.serviceTime exponential(0.4s)
param **.SS2.serviceTime exponential(0.8s)
param **.PS.exitProbability bernoulli(0.8)

vector 0 ResponseTimeNetwork.QueueU2 queueLength:vector ETV
attr interpolationmode sample-hold
attr title "queue length, vector"
vector 1 ResponseTimeNetwork.QueueU1 queueLength:vector ETV
attr interpolationmode sample-hold
attr title "queue length, vector"
vector 2 ResponseTimeNetwork.sink lifeTimeU1:vector ETV
attr interpolationmode none
attr title "lifetime of arrived jobs U1, vector"
attr unit s
vector 3 ResponseTimeNetwork.sink totalServiceTimeU1:vector ETV
attr interpolationmode none
attr title "the total time spent  by arrived jobs U1, vector"
attr unit s
vector 4 ResponseTimeNetwork.sink lifeTime:vector ETV
attr interpolationmode none
attr title "lifetime of arrived jobs, vector"
attr unit s
vector 5 ResponseTimeNetwork.sink totalServiceTime:vector ETV
attr interpolationmode none
attr title "the total time spent  by arrived jobs, vector"
attr unit s
vector 6 ResponseTimeNetwork.sink lifeTimeU2:vector ETV
attr interpolationmode none
attr title "lifetime of arrived jobs U2, vector"
attr unit s
vector 7 ResponseTimeNetwork.sink totalServiceTimeU2:vector ETV
attr interpolationmode none
attr title "the total time spent  by arrived jobs U2, vector"
attr unit s
vector 8 ResponseTimeNetwork.SS2 queueLength:vector ETV
attr interpolationmode sample-hold
attr title "queue length, vector"
vector 9 ResponseTimeNetwork.SS1 queueLength:vector ETV
attr interpolationmode sample-hold
attr title "queue length, vector"
0	63180	10001.169103395212	1
0	63181	10001.388135076357	0
0	63205	10005.655681906635	1
0	63207	10005.899286579746	2
0	63213	10007.136970319353	1
0	63216	10008.010440792223	0
0	63320	10035.939800930725	1
0	63322	10036.417873593112	2
0	63323	10036.765233911671	1
0	63326	10037.277156984018	0
0	63330	10037.582565152531	1
0	63331	10037.927327283941	0
0	63335	10038.123848858561	1
0	63336	10038.688174909962	0
0	63340	10038.699302312089	1
0	63341	10039.223131877886	0
0	63345	10039.965175702851	1
0	63346	10040.08552418617	0
0	63350	10040.436256421861	1
0	63351	10041.06122799707	0
0	63370	10045.277408575994	1
0	63372	10045.456513430739	2
0	63373	10046.142585385564	1
0	63376	10047.012038476645	0
0	63380	10047.04659159502	1
0	63381	10047.420836001514	0
0	63407	10054.487903722727	1
0	63412	10054.905981006126	2
0	63413	10055.261492959119	1
0	63417	10055.46037767956	2
0	63418	10056.257509337959	1
0	63427	10056.974384649633	2
0	63429	10057.533199040849	3
0	63430	10057.938396229443	2
0	63434	10058.058718896269	3
0	63440	10059.266940264625	2
0	63448	10060.495593131788	1
0	63454	10060.881983562343	2
0	63459	10061.39395309957	3
0	63460	10062.220682130882	2
0	63463	10062.85635090823	1
0	63466	10063.356803771608	0
0	63470	10063.769090250433	1
0	63471	10064.243305514321	0
0	63475	10064.644552952451	1
0	63476	10064.71461972132	0
0	63485	10066.056673708626	1
0	63487	10066.314554656424	2
0	63488	10066.719892459852	1
0	63492	10066.753655280695	2
0	63493	10067.579896521545	1
0	63496	10068.569193168567	0
0	63500	10069.070894146543	1
0	63501	10069.125884449273	0
0	63540	10079.814059204555	1
0	63542	10079.838251857208	2
0	63543	10079.960058266503	1
0	63547	10080.058512152016	2
0	63549	10080.661602641486	3
0	63550	10080.68387107418	2
0	63553	10081.088143130178	1
0	63557	10081.356736613198	2
0	63558	10082.007119512065	1
0	63561	10082.419647794236	0
0	63565	10083.011219745079	1
0	63566	10083.023756857515	0
0	63575	10084.571235530782	1
0	63576	10084.727849287863	0
0	63592	10086.276499050042	1
0	63597	10086.945053042708	2
0	63604	10087.115861520557	3
0	63608	10087.209017748347	4
0	63613	10087.859167078904	5
0	63615	10087.987848528826	6
0	63667	10094.809115930448	7
0	63723	10103.789243170015	6
0	63732	10104.85826008714	7
0	63733	10105.326168508597	6
0	63739	10105.911362895755	7
0	63744	10106.684087518397	8
0	63745	10107.115690187693	7
0	63753	10108.559799393082	6
0	63757	10108.64254299428	7
0	63764	10110.136729837703	8
0	63765	10110.137830164425	7
0	63774	10111.418456950539	8
0	63775	10111.901408617154	7
0	63783	10113.621243447207	6
0	63789	10114.165226639597	7
0	63801	10115.310078125632	8
0	63803	10115.959547869819	9
0	63837	10120.239987436711	10
0	63859	10123.243915833633	11
0	63891	10128.001141124268	10
0	63902	10129.007442847175	11
0	63914	10131.023999264256	12
0	63928	10133.333661686958	11
0	63934	10133.428133047803	12
0	63943	10134.235770524946	13
0	63950	10135.14791861983	14
0	64027	10147.812376937971	13
0	64038	10148.797396781546	14
0	64047	10150.035144284836	13
0	64055	10151.48554909914	12
0	64058	10152.375979203919	11
0	64061	10153.198761037972	10
0	64065	10153.560180825598	11
0	64066	10153.740766737472	10
0	64072	10154.114714553936	11
0	64076	10155.631424199558	10
0	64084	10156.697970225244	9
0	64093	10157.777107203143	10
0	64094	10158.377534485796	9
0	64102	10160.240441693273	8
0	64106	10160.416344741124	9
0	64113	10160.716075961412	10
0	64114	10161.303840651131	9
0	64122	10162.712166223442	8
0	64125	10163.263940735068	7
0	64133	10164.419212967763	6
0	64139	10165.02912771081	7
0	64144	10165.355247388497	8
0	64146	10165.370954392008	9
0	64147	10165.992055566236	8
0	64163	10167.746989708274	9
0	64240	10178.563394508656	10
0	64254	10181.687735275364	9
0	64262	10182.862971652158	8
0	64268	10183.036913618052	9
0	64272	10184.57505467506	8
0	64278	10184.842665163163	9
0	64282	10185.87660416495	8
0	64286	10186.167630256451	9
0	64293	10187.012352195176	10
0	64294	10187.58521972834	9
0	64297	10188.13680492211	8
0	64300	10188.583915392541	7
0	64303	10189.032955170328	6
0	64307	10189.513818723814	7
0	64308	10189.907076501752	6
0	64312	10190.032011161231	7
0	64313	10190.624656905652	6
0	64317	10190.774966199731	7
0	64319	10191.019051210598	8
0	64320	10191.547341519174	7
0	64323	10192.062334515526	6
0	64326	10192.653261357172	5
0	64330	10192.891251790307	6
0	64331	10193.204677157149	5
0	64335	10193.533075636986	6
0	64337	10193.746919684528	7
0	64338	10194.138681369553	6
0	64341	10194.996591573021	5
0	64345	10195.040295069894	6
0	64347	10195.437588442634	7
0	64348	10195.710367563226	6
0	64352	10195.736039276924	7
0	64353	10196.309370797871	6
0	64356	10196.859514006738	5
0	64359	10197.260161351458	4
0	64363	10197.520208531199	5
0	64364	10198.020434989779	4
0	64368	10198.522702111708	5
0	64370	10198.723951566408	6
0	64371	10198.895961818144	5
0	64375	10199.157199693546	6
0	64377	10199.365371932319	7
0	64378	10199.381411962908	6
0	64382	10199.813096879402	7
0	64383	10199.966738984127	6
0	64386	10200.640283086615	5
0	64392	10200.8079312349	6
0	64397	10201.301128002098	7
0	64398	10201.723331412346	6
0	64407	10203.234835317889	7
0	64408	10203.66813494116	6
0	64417	10205.273516807447	7
0	64418	10205.368145657144	6
0	64426	10206.285413462622	5
0	64435	10207.186552506719	6
0	64436	10207.650245679263	5
0	64509	10218.248853244865	4
0	64520	10219.487794995835	5
0	64524	10220.293421679595	4
0	64527	10220.842601057328	3
0	64531	10221.068660424686	4
0	64533	10221.263355394803	5
0	64534	10221.335349880485	4
0	64538	10221.952913307727	5
0	64539	10222.001566771045	4
0	64542	10222.688382929889	3
0	64546	10223.09853754231	4
0	64547	10223.519783509662	3
0	64551	10224.405566214871	4
0	64552	10224.475008277548	3
0	64555	10224.90421751067	2
0	64559	10225.168416958246	3
0	64560	10225.860998648498	2
0	64563	10226.323799613351	1
0	64566	10227.179964754591	0
0	64570	10227.684668372526	1
0	64571	10228.124931248836	0
0	64590	10233.923169547652	1
0	64592	10233.953776477234	2
0	64594	10234.262494607682	3
0	64595	10234.270072820738	2
0	64598	10234.869259677038	1
0	64607	10235.292756532011	2
0	64608	10235.704575736683	1
0	64612	10235.945044969132	2
0	64613	10236.225628163668	1
0	64616	10237.19718875387	0
0	64625	10238.063673322358	1
0	64626	10238.667392629652	0
0	64630	10238.878594119583	1
0	64631	10239.309318785078	0
0	64650	10241.649842295742	1
0	64651	10242.292675040759	0
0	64685	10249.607222709911	1
0	64686	10249.639766391836	0
0	64690	10250.185553997628	1
0	64691	10250.272214259025	0
0	64695	10250.302650083498	1
0	64704	10251.519965652342	2
0	64728	10255.16209989889	1
0	64739	10255.80351961351	2
0	64743	10257.117752080647	1
0	64746	10257.588693342268	0
0	64770	10265.464703652613	1
0	64771	10265.622953778142	0
0	64805	10275.817300671199	1
0	64816	10277.616499656304	0
0	64830	10278.87775806643	1
0	64831	10279.581533802078	0
0	64845	10280.992319129596	1
0	64846	10281.456353224322	0
0	64860	10283.03611887445	1
0	64861	10283.122848138286	0
0	64875	10285.432819400293	1
0	64879	10285.66711905687	2
0	64886	10286.376687653762	3
0	64891	10287.00280613651	4
0	64892	10287.190774801467	3
0	64903	10288.481131560098	4
0	64912	10290.171449267259	3
0	64930	10292.964234162448	2
0	64933	10293.682518333709	1
0	64944	10294.436724213503	2
0	64946	10294.678486733184	3
0	64955	10296.117030243435	2
0	64959	10296.598282188695	3
0	64985	10300.004992412122	2
0	64998	10300.932806111292	3
0	65011	10302.980999825689	4
0	65087	10313.378792578754	5
0	65124	10319.754469994966	4
0	65130	10320.24112764539	5
0	65139	10321.819159512639	4
0	65150	10322.526584801327	5
0	65154	10323.687148609989	4
0	65162	10325.114290595333	3
0	65165	10325.961405192641	2
0	65171	10326.403731026878	3
0	65175	10327.070481992606	2
0	65183	10328.031273537036	1
0	65189	10328.76133519203	2
0	65193	10329.908603120968	1
0	65197	10330.498893608993	2
0	65201	10330.669541697496	3
0	65206	10330.771953384613	4
0	65207	10331.567843709375	3
0	65215	10332.832321564389	2
0	65224	10333.991067503407	3
0	65226	10334.27600798819	4
0	65227	10334.346429962759	3
0	65230	10335.127579560178	2
0	65234	10335.224132594449	3
0	65235	10335.643476836198	2
0	65239	10336.095629964284	3
0	65241	10336.098812065185	4
0	65242	10336.370730653592	3
0	65246	10336.634134826323	4
0	65248	10337.186690104342	5
0	65249	10337.216326916917	4
0	65252	10337.676474726527	3
0	65255	10338.209867293528	2
0	65258	10339.044418545068	1
0	65262	10339.340885840214	2
0	65264	10339.448600171545	3
0	65266	10339.820645858114	4
0	65267	10339.974229273154	3
0	65270	10340.570934460406	2
0	65273	10341.129588219431	1
0	65277	10341.456744270804	2
0	65278	10342.065500729532	1
0	65281	10342.5596707745	0
0	65287	10343.447139790674	1
0	65291	10344.216967032664	0
0	65295	10344.723924163336	1
0	65296	10344.9104559517	0
0	65300	10344.953142679509	1
0	65301	10345.37049665805	0
0	65327	10350.25509322613	1
0	65332	10350.85633095979	2
0	65334	10350.990432552985	3
0	65335	10351.167566592243	2
0	65344	10352.19467892262	3
0	65346	10352.415531843996	4
0	65347	10352.515412902083	3
0	65358	10353.725267517952	4
0	65360	10353.876173403699	5
0	65374	10355.210605455918	6
0	65396	10357.637251704489	7
0	65411	10359.299139330135	8
0	65433	10362.498913779502	9
0	65440	10363.340574501602	10
0	65474	10369.277665439987	9
0	65482	10370.493370105599	8
0	65488	10370.563036706323	9
0	65498	10372.263052788163	10
0	65505	10372.873046147576	11
0	65507	10373.078498427926	12
0	65508	10373.186105137917	11
0	65511	10373.908850392599	10
0	65519	10375.393865752399	9
0	65525	10376.059813463047	10
0	65530	10376.846636040199	11
0	65537	10377.152585926506	12
0	65548	10379.426442401942	11
0	65556	10380.859239171065	10
0	65560	10380.945340728233	11
0	65566	10382.4550935327	10
0	65594	10386.584624100283	9
0	65603	10387.872537035094	10
0	65604	10388.40011711837	9
0	65607	10389.188160915246	8
0	65611	10389.344568894056	9
0	65612	10389.620990156701	8
0	65615	10390.065610805426	7
0	65618	10390.845231781893	6
0	65621	10391.30960344611	5
0	65630	10392.614844411128	6
0	65634	10392.693835597248	7
0	65636	10392.767861532625	8
0	65641	10393.369686895328	9
0	65642	10393.98114012358	8
0	65645	10394.532360201368	7
0	65653	10396.048022438625	6
0	65656	10396.538577015737	5
0	65662	10396.740601479264	6
0	65667	10397.486346170004	7
0	65668	10397.742714784892	6
0	65677	10398.507696888916	7
0	65678	10399.177020326621	6
0	65687	10400.027264874436	7
0	65688	10400.662304834781	6
0	65697	10401.304371429444	7
0	65698	10401.831980457102	6
0	65706	10403.158445241061	5
0	65715	10403.770285622308	6
0	65717	10404.171513945372	7
0	65719	10404.358218341314	8
0	65720	10404.486802388719	7
0	65724	10404.859750548081	8
0	65730	10405.760019064686	7
0	65734	10405.89934709118	8
0	65735	10406.376398393363	7
0	65739	10406.719264970014	8
0	65745	10408.251731333779	7
0	65754	10410.016002498805	8
0	65755	10410.066630350696	7
0	65759	10410.478541071174	8
0	65766	10411.060599843001	9
0	65768	10411.51289485625	10
0	65769	10411.789931804864	9
0	65777	10413.118080843697	8
0	65781	10413.307377497065	9
0	65787	10414.349517236408	8
0	65790	10414.780943999943	7
0	65794	10414.937047444199	8
0	65795	10415.548413427119	7
0	65799	10415.629591843351	8
0	65801	10415.796416405903	9
0	65802	10416.528412522646	8
0	65805	10417.281656582458	7
0	65808	10418.250821964759	6
0	65811	10418.805922299474	5
0	65814	10419.374772968925	4
0	65818	10419.780082176871	5
0	65819	10419.854710745708	4
0	65823	10420.033810588141	5
0	65824	10420.700596952055	4
0	65827	10421.393799949566	3
0	65831	10421.966500290929	4
0	65832	10422.076879479166	3
0	65836	10422.395681498549	4
0	65838	10422.455983765816	5
0	65839	10422.600014957728	4
0	65843	10422.994583871492	5
0	65844	10423.209398935259	4
0	65848	10423.869748777641	5
0	65849	10423.985884829321	4
0	65852	10424.522595708528	3
0	65855	10424.999180129766	2
0	65859	10425.413584985549	3
0	65860	10425.823974042469	2
0	65863	10426.562882629679	1
0	65866	10427.090355854611	0
0	65870	10427.417438695926	1
0	65871	10427.82823362573	0
0	65880	10428.903845297504	1
0	65881	10429.047812747323	0
0	65885	10429.304555486713	1
0	65887	10429.464975643038	2
0	65888	10429.565866518832	1
0	65891	10430.307508533235	0
0	65900	10433.361596931944	1
0	65901	10433.726296715332	0
0	65910	10435.63074197078	1
0	65911	10435.972874783453	0
0	65945	10452.542634511798	1
0	65946	10452.96280957123	0
0	65980	10460.255537236115	1
0	65981	10460.318370315895	0
0	65992	10461.693495577709	1
0	66004	10463.389009048749	2
0	66028	10466.728996158388	1
0	66066	10471.98747239895	0
0	66080	10475.047051189926	1
0	66081	10475.206865170249	0
0	66090	10476.041488099412	1
0	66092	10476.219605030049	2
0	66093	10477.00895426257	1
0	66096	10477.800400366704	0
0	66100	10478.412735758028	1
0	66101	10478.622578992764	0
0	66110	10479.896377737162	1
0	66111	10480.632502956801	0
0	66120	10482.788975552538	1
0	66121	10482.925842982314	0
0	66130	10483.818208289066	1
0	66131	10484.545083874344	0
0	66135	10484.548682363767	1
0	66137	10484.960115873615	2
0	66138	10485.18645608306	1
0	66142	10485.653479265279	2
0	66143	10486.098407191942	1
0	66146	10486.67535189746	0
0	66160	10489.171685485259	1
0	66161	10489.464633458719	0
0	66165	10489.517100751771	1
0	66166	10490.119140576717	0
0	66170	10490.273162761451	1
0	66174	10490.514534844186	2
0	66178	10491.760200888251	1
0	66187	10492.730655082021	2
0	66188	10493.233945132612	1
0	66197	10494.460267099886	2
0	66198	10494.596994256235	1
0	66211	10496.194638647286	0
0	66215	10496.19658467095	1
0	66221	10497.677716333333	0
0	66225	10497.746595057634	1
0	66231	10499.275275643223	0
0	66237	10499.807425730502	1
0	66242	10500.351783436808	2
0	66243	10500.750489691047	1
0	66252	10501.61596309869	2
0	66273	10504.530526838412	1
0	66282	10505.66515289911	2
0	66283	10506.331969487488	1
0	66286	10506.891822524748	0
0	66292	10507.101259330446	1
0	66297	10507.995017916354	2
0	66298	10508.074929013529	1
0	66307	10508.866141524177	2
0	66308	10509.151784401952	1
0	66317	10510.741217470417	2
0	66318	10510.754331607797	1
0	66326	10512.571316266858	0
0	66365	10535.55558809615	1
0	66366	10536.305978659622	0
0	66405	10546.926511286838	1
0	66406	10547.269813961227	0
0	66420	10549.497676135996	1
0	66421	10549.940548993223	0
0	66455	10555.778721964202	1
0	66491	10560.987977992605	0
0	66520	10565.681722494638	1
0	66527	10566.250431344529	2
0	66529	10566.337812169568	3
0	66530	10566.81373487555	2
0	66543	10569.042334859749	1
0	66554	10569.881793882464	2
0	66556	10570.022490819055	3
0	66560	10570.748860577145	2
0	66569	10571.436380578627	3
0	66570	10571.990076642833	2
0	66573	10572.498631652608	1
0	66577	10572.708045697695	2
0	66578	10573.342711498472	1
0	66584	10573.483093249785	2
0	66589	10574.437168459238	3
0	66590	10574.900518307113	2
0	66598	10576.444592119543	1
0	66606	10577.811165343527	0
0	66610	10578.034323070022	1
0	66611	10578.292487858491	0
0	66630	10581.609622630675	1
0	66631	10581.998952776279	0
0	66635	10582.501239433654	1
0	66636	10582.858958946859	0
0	66760	10624.543393429874	1
0	66761	10624.71111642023	0
0	66790	10631.053393900016	1
0	66791	10631.290205381046	0
0	66802	10632.276206209833	1
0	66804	10632.548441966024	2
0	66813	10634.372366190496	1
0	66817	10634.615607156664	2
0	66818	10634.839059388897	1
0	66822	10635.102637134418	2
0	66823	10635.284459421484	1
0	66826	10636.042340978215	0
0	66832	10636.721825450293	1
0	66834	10636.745898794773	2
0	66838	10637.182753996205	1
0	66841	10637.853241470064	0
0	66845	10637.872023007468	1
0	66852	10638.999616182284	2
0	66853	10639.179217355213	1
0	66856	10639.727933472422	0
0	66865	10640.568625503052	1
0	66867	10640.835629075745	2
0	66868	10640.883432120581	1
0	66871	10641.331042628673	0
0	66875	10641.632117325626	1
0	66877	10641.829305281953	2
0	66878	10641.844383058635	1
0	66881	10642.495102041991	0
0	66885	10643.240814488049	1
0	66886	10643.305795656781	0
0	66890	10643.51928923965	1
0	66891	10643.790830885743	0
0	66895	10644.225927143818	1
0	66896	10644.534202105629	0
0	66905	10646.63197059504	1
0	66906	10647.283170979886	0
0	66955	10667.835859999085	1
0	66956	10668.36043855369	0
0	66960	10668.38231015447	1
0	66962	10669.053465293469	2
0	66963	10669.245574930617	1
0	66967	10669.848640802967	2
0	66973	10670.593670459026	1
0	66977	10670.594116533256	2
0	66984	10671.984128609087	3
0	66985	10672.334846502337	2
0	66993	10673.792316649415	1
0	67001	10675.190066374679	0
0	67010	10675.862608837568	1
0	67014	10676.03026511543	2
0	67019	10676.204971536957	3
0	67025	10677.401403707851	2
0	67036	10678.731989587973	3
0	67065	10682.584104766816	2
0	67068	10683.304709932886	1
0	67071	10683.707522611393	0
0	67085	10685.402943396033	1
0	67087	10685.560433987933	2
0	67088	10685.711083670209	1
0	67091	10686.137389648861	0
0	67095	10686.382906663757	1
0	67097	10686.662466786823	2
0	67098	10686.883539956777	1
0	67101	10687.488725068389	0
0	67105	10688.191667352827	1
0	67106	10688.484928120455	0
0	67115	10689.298775165663	1
0	67122	10690.08495517979	2
0	67123	10690.30994087817	1
0	67127	10691.031936097057	2
0	67128	10691.125875395544	1
0	67131	10691.643767884568	0
0	67145	10694.323348696916	1
0	67146	10694.850986323944	0
0	67150	10695.486739104487	1
0	67151	10695.796122020875	0
0	67180	10705.432954093034	1
0	67181	10705.699581235313	0
0	67210	10711.670582225383	1
0	67211	10712.478139091308	0
0	67220	10712.98589444196	1
0	67221	10713.719321275667	0
0	67230	10715.104083508656	1
0	67231	10715.450096862695	0
0	67240	10716.290655502828	1
0	67241	10717.023977311213	0
0	67255	10718.325786617504	1
0	67256	10718.594055051403	0
0	67280	10732.102614156266	1
0	67281	10732.468542293998	0
0	67315	10750.616894795047	1
0	67316	10750.871284040938	0
0	67335	10755.673685695741	1
0	67337	10755.823337587494	2
0	67339	10756.13220581444	3
0	67340	10756.287081004608	2
0	67348	10757.707982346624	1
0	67352	10757.786213514747	2
0	67354	10758.201100303478	3
0	67355	10758.205730087658	2
0	67358	10758.662807013955	1
0	67372	10760.01401030036	2
0	67374	10760.30347614096	3
0	67376	10760.475204255739	4
0	67377	10760.818866948294	3
0	67380	10761.626847810414	2
0	67383	10762.433535968209	1
0	67387	10762.81264547719	2
0	67388	10763.151001588092	1
0	67392	10763.403217595747	2
0	67393	10763.676148733473	1
0	67397	10763.73277989878	2
0	67398	10764.570066050556	1
0	67402	10764.763978320705	2
0	67403	10765.077486404194	1
0	67407	10765.220478935742	2
0	67408	10766.019850310659	1
0	67412	10766.657661274248	2
0	67413	10766.9000254567	1
0	67417	10766.965010844821	2
0	67418	10767.395873888231	1
0	67422	10767.909765709388	2
0	67423	10768.228131500001	1
0	67427	10768.755425027699	2
0	67428	10768.996453477929	1
0	67431	10769.435061651582	0
0	67455	10773.253326983079	1
0	67457	10773.549333164559	2
0	67458	10774.106355015533	1
0	67461	10774.547796907807	0
0	67475	10776.222195489214	1
0	67477	10776.247552088351	2
0	67478	10776.973545388473	1
0	67481	10777.914513873044	0
0	67485	10777.957355232995	1
0	67491	10779.429341783342	0
0	67495	10779.742183073937	1
0	67496	10779.998036427018	0
0	67500	10780.429080754762	1
0	67501	10780.977902198038	0
0	67510	10783.388000057959	1
0	67511	10783.635369066111	0
0	67540	10787.073060291315	1
0	67541	10787.518207774261	0
0	67550	10788.343413620558	1
0	67551	10789.017999551488	0
0	67580	10793.733482715317	1
0	67581	10793.75856660387	0
0	67589	10794.208152006192	1
0	67591	10794.423762994955	2
0	67599	10794.953673189989	3
0	67655	10803.291808413216	2
0	67664	10804.259639017698	3
0	67665	10804.751513879062	2
0	67669	10804.898587122092	3
0	67670	10805.33395345436	2
0	67674	10805.722298819968	3
0	67675	10806.312850540844	2
0	67678	10807.284486146285	1
0	67681	10807.937896815655	0
0	67690	10808.570848251292	1
0	67691	10809.316307425209	0
0	67695	10809.351988863945	1
0	67696	10809.807726020216	0
0	67700	10809.883419809272	1
0	67701	10810.438115755226	0
0	67705	10810.652960477703	1
0	67706	10811.404386905897	0
0	67720	10814.348026314081	1
0	67721	10814.584879951337	0
0	67740	10816.776762261739	1
0	67746	10817.541675766054	0
0	67750	10818.005680021541	1
0	67752	10818.150866204035	2
0	67758	10818.951222008336	1
0	67764	10819.331059196316	2
0	67768	10820.551654680315	1
0	67774	10821.117584375863	2
0	67778	10821.649735455689	1
0	67782	10822.023362119283	2
0	67783	10822.095695788608	1
0	67791	10823.200985483508	0
0	67795	10823.43215979017	1
0	67799	10823.716846972901	2
0	67804	10824.072682726276	3
0	67805	10824.163974195774	2
0	67811	10824.797434466923	3
0	67815	10825.753635719846	2
0	67821	10825.928694831402	3
0	67825	10827.265548957288	2
0	67828	10827.732814701842	1
0	67834	10828.009773097387	2
0	67838	10828.868864171169	1
0	67842	10829.39402578689	2
0	67848	10830.11462359732	1
0	67851	10830.546468757381	0
0	67855	10831.087227462156	1
0	67856	10831.394914148058	0
0	67860	10831.508108031838	1
0	67862	10832.085191511936	2
0	67863	10832.106670558089	1
0	67872	10833.350002919397	2
0	67873	10833.37081949451	1
0	67882	10834.156660463856	2
0	67884	10834.396186514692	3
0	67885	10834.692832668415	2
0	67889	10834.991980682799	3
0	67890	10835.188895135476	2
0	67894	10835.778951098522	3
0	67895	10835.924110894614	2
0	67899	10836.704402591909	3
0	67900	10836.900682434916	2
0	67904	10837.09126201512	3
0	67905	10837.87946854598	2
0	67909	10838.286404440439	3
0	67910	10838.794913187261	2
0	67914	10839.591322728049	3
0	67921	10839.915602590673	4
0	67922	10840.152479397888	3
0	67930	10841.918342890694	2
0	67934	10841.96968729268	3
0	67935	10842.481156846146	2
0	67941	10842.956355050737	3
0	67946	10843.313272686757	4
0	67947	10843.955768844775	3
0	67955	10845.476171316217	2
0	67964	10846.125015571502	3
0	67966	10846.1407359018	4
0	67967	10846.948976321389	3
0	67973	10847.386786293145	4
0	67978	10848.124195845038	5
0	67980	10848.326975878514	6
0	67981	10848.611933892976	5
0	67985	10848.655391505546	6
0	67991	10849.910474513343	5
0	67994	10850.523030790186	4
0	67998	10851.340031688743	5
0	67999	10851.401489047112	4
0	68003	10851.902366154176	5
0	68004	10852.050583173113	4
0	68007	10852.573256823199	3
0	68011	10852.993890493447	4
0	68012	10853.29976706967	3
0	68015	10854.141699527821	2
0	68019	10854.920119951646	3
0	68020	10855.027623765508	2
0	68023	10855.842397106683	1
0	68027	10855.868062938554	2
0	68029	10856.700419807917	3
0	68031	10856.719108327793	4
0	68032	10856.745839089353	3
0	68036	10856.887884089169	4
0	68038	10857.223066442667	5
0	68039	10857.622244973725	4
0	68043	10857.679121197347	5
0	68045	10858.32000865221	6
0	68046	10858.366426772822	5
0	68049	10859.26515527257	4
0	68052	10859.741347020224	3
0	68055	10860.388335516315	2
0	68058	10860.816018875374	1
0	68062	10860.865889343462	2
0	68064	10860.893553108774	3
0	68066	10861.134407443162	4
0	68068	10861.262375701783	5
0	68069	10861.378297699953	4
0	68072	10862.004685193824	3
0	68075	10862.667810100887	2
0	68079	10863.193834949373	3
0	68080	10863.257740108354	2
0	68084	10863.467042387188	3
0	68085	10864.130812896799	2
0	68093	10865.471410419151	1
0	68097	10865.994271274862	2
0	68104	10866.717331416467	3
0	68105	10867.064350237568	2
0	68109	10867.098952279101	3
0	68115	10868.39936046471	2
0	68124	10869.271994547317	3
0	68126	10869.853791635172	4
0	68127	10870.001683856976	3
0	68133	10870.487430645576	4
0	68137	10871.275945036403	3
0	68141	10871.486648642055	4
0	68143	10871.486682319379	5
0	68145	10871.826578942317	6
0	68146	10872.109472237025	5
0	68149	10872.615853656559	4
0	68155	10873.174287962673	5
0	68160	10873.209568454668	6
0	68162	10873.821567137044	7
0	68163	10873.829174079197	6
0	68172	10874.736314155707	7
0	68173	10874.796234347728	6
0	68179	10875.456627288476	7
0	68184	10876.089180396508	8
0	68186	10876.301393412625	9
0	68187	10876.302450665842	8
0	68193	10877.080676036714	9
0	68197	10877.929687245387	8
0	68200	10878.443199044197	7
0	68204	10878.790742201504	8
0	68206	10879.014989366699	9
0	68207	10879.132111039116	8
0	68211	10879.196199253452	9
0	68218	10880.040106031436	10
0	68219	10880.271521520299	9
0	68227	10881.480189758131	8
0	68235	10882.732249015441	7
0	68244	10883.646044596105	8
0	68245	10884.105403223505	7
0	68254	10885.018821620942	8
0	68255	10885.927627457597	7
0	68264	10887.231290812854	8
0	68266	10887.395836756439	9
0	68267	10887.572287636308	8
0	68270	10888.230567465128	7
0	68273	10888.63535758407	6
0	68277	10888.65382350138	7
0	68278	10889.299592144612	6
0	68282	10889.500791541173	7
0	68283	10889.772278807509	6
0	68287	10890.06545338791	7
0	68289	10890.257748375552	8
0	68290	10890.665394782798	7
0	68294	10891.270235686205	8
0	68295	10891.329946066264	7
0	68299	10891.471490123108	8
0	68301	10891.540338803241	9
0	68303	10891.855662201495	10
0	68304	10891.91018829561	9
0	68308	10892.855422041002	10
0	68309	10892.880957459949	9
0	68312	10893.508618173294	8
0	68316	10893.530820578036	9
0	68317	10894.088848428672	8
0	68321	10894.42291507564	9
0	68322	10894.949459496477	8
0	68326	10895.545190265026	9
0	68328	10895.653275744558	10
0	68329	10895.925375357374	9
0	68333	10896.118728946804	10
0	68334	10896.371800506079	9
0	68338	10896.96539316047	10
0	68339	10897.195568011432	9
0	68343	10897.699819981467	10
0	68344	10898.115909183548	9
0	68348	10898.439232614518	10
0	68349	10899.040052435138	9
0	68352	10899.841916087373	8
0	68356	10900.499651262229	9
0	68358	10900.559356648642	10
0	68359	10900.74937265982	9
0	68363	10900.882021667785	10
0	68364	10901.203421957894	9
0	68368	10901.838581665029	10
0	68369	10902.12380696904	9
0	68372	10902.712621060909	8
0	68376	10902.89766975385	9
0	68378	10903.090236215693	10
0	68379	10903.472852019138	9
0	68382	10904.203749081317	8
0	68386	10904.480999581301	9
0	68387	10904.665236020239	8
0	68390	10905.10435546959	7
0	68394	10905.163772154853	8
0	68395	10905.614880562166	7
0	68398	10906.270400128851	6
0	68401	10906.726473507203	5
0	68405	10906.782093498388	6
0	68412	10907.774138832534	7
0	68414	10908.061120671	8
0	68415	10908.236721057782	7
0	68419	10908.377911502678	8
0	68420	10908.725493626913	7
0	68424	10909.001879321182	8
0	68430	10910.06078341162	7
0	68439	10911.304888560492	8
0	68440	10911.760758828336	7
0	68443	10912.22850605651	6
0	68446	10912.682188058609	5
0	68449	10913.100865216657	4
0	68453	10913.836505471466	5
0	68454	10914.030716615134	4
0	68457	10914.851320446572	3
0	68460	10915.606172476439	2
0	68464	10916.047254103971	3
0	68465	10916.31490194249	2
0	68469	10916.427660695723	3
0	68471	10916.753777427959	4
0	68472	10917.213686817382	3
0	68476	10917.21472901023	4
0	68477	10917.677778134877	3
0	68481	10918.32805082901	4
0	68482	10918.53935687203	3
0	68485	10919.462465644498	2
0	68489	10919.780222895137	3
0	68490	10920.283900469132	2
0	68493	10920.85960677933	1
0	68497	10920.914684599007	2
0	68499	10921.124154281696	3
0	68500	10921.505814499325	2
0	68503	10922.022995440346	1
0	68506	10922.569956577579	0
0	68510	10922.802819572875	1
0	68512	10922.992473201471	2
0	68514	10923.152841959328	3
0	68515	10923.355898293304	2
0	68521	10923.793707090837	3
0	68526	10924.908368062761	4
0	68527	10925.109254781679	3
0	68540	10927.590786651718	2
0	68549	10928.323048619966	3
0	68550	10928.833011841551	2
0	68564	10930.606533250981	3
0	68565	10930.878829550334	2
0	68576	10932.175300337057	3
0	68585	10934.179144147141	2
0	68593	10935.662019299725	1
0	68596	10936.073515139157	0
0	68605	10938.591340770058	1
0	68606	10938.60992281437	0
0	68610	10938.650999296148	1
0	68617	10939.445736640749	2
0	68618	10940.198318605545	1
0	68622	10940.83627100948	2
0	68623	10940.976560159634	1
0	68627	10941.462839192962	2
0	68628	10941.515504796757	1
0	68632	10942.257921419229	2
0	68633	10942.415277970955	1
0	68639	10942.76936701665	2
0	68644	10943.699576005333	3
0	68645	10943.823482124555	2
0	68654	10944.759068352746	3
0	68656	10945.171166740412	4
0	68657	10945.305088246941	3
0	68660	10946.005128560822	2
0	68663	10946.822649606365	1
0	68667	10947.388375375031	2
0	68668	10947.643305053563	1
0	68672	10947.820421996755	2
0	68673	10948.199800845656	1
0	68677	10948.253908120194	2
0	68678	10948.610287614308	1
0	68681	10949.499647465303	0
0	68695	10951.688105512116	1
0	68696	10951.972816036946	0
0	68705	10953.525041341779	1
0	68707	10953.562923379278	2
0	68708	10953.761575378875	1
0	68717	10954.544343848129	2
0	68718	10955.034977464636	1
0	68721	10955.893985339792	0
0	68730	10956.531169247487	1
0	68732	10957.213290071448	2
0	68733	10957.25737176461	1
0	68742	10958.422705970175	2
0	68744	10958.460981893521	3
0	68745	10958.534406835426	2
0	68748	10959.295645697115	1
0	68751	10959.881527283628	0
0	68757	10960.146476795517	1
0	68761	10961.269696815571	0
0	68785	10969.20728251698	1
0	68786	10969.465550056354	0
0	68795	10970.697520444542	1
0	68796	10970.977739384082	0
0	68800	10970.985889982428	1
0	68801	10971.730099737608	0
0	68805	10971.945052537436	1
0	68807	10971.989888793163	2
0	68809	10972.214337744527	3
0	68810	10972.486290962725	2
0	68814	10973.176956084508	3
0	68815	10973.184760070696	2
0	68819	10973.411940516771	3
0	68820	10973.923122421709	2
0	68824	10973.955556848667	3
0	68825	10974.332094181619	2
0	68829	10974.79888104213	3
0	68830	10974.89357823358	2
0	68833	10975.812644012795	1
0	68836	10976.277022767403	0
0	68840	10976.759937108737	1
0	68841	10977.062216447723	0
0	68845	10977.263379567056	1
0	68846	10977.937883998743	0
0	68850	10978.135984058117	1
0	68851	10978.921276815525	0
0	68880	10987.395687393912	1
0	68881	10987.512860429013	0
0	68885	10987.551816452311	1
0	68886	10988.466264843946	0
0	68890	10988.698683999302	1
0	68891	10989.429779553651	0
0	68895	10989.473267211099	1
0	68896	10989.937574248533	0
0	68900	10990.008101671366	1
0	68901	10990.784453615132	0
0	68905	10991.280599301091	1
0	68907	10991.328764030667	2
0	68908	10991.34771643044	1
0	68912	10991.832005509281	2
0	68913	10992.048124777903	1
0	68917	10992.049038500037	2
0	68918	10992.476941890228	1
0	68924	10992.665147636609	2
0	68929	10993.853263169303	3
0	68930	10994.41119525149	2
0	68934	10994.728699877308	3
0	68936	10995.067624526867	4
0	68942	10995.9277810799	3
0	68951	10996.862585875362	4
0	68952	10996.983355348841	3
0	68955	10997.835726220165	2
0	68963	10999.046422145986	1
0	68967	10999.226697777081	2
0	68974	10999.87535829414	3
0	68975	11000.317454810073	2
0	68978	11000.735544903395	1
0	68987	11002.003529003173	2
0	68988	11002.15216231016	1
0	69001	11004.303584879176	0
0	69015	11006.169626252119	1
0	69017	11006.769173751141	2
0	69018	11006.836737792559	1
0	69021	11007.464350360392	0
0	69025	11007.539430877895	1
0	69027	11007.581679445968	2
0	69028	11008.371255074062	1
0	69032	11009.051834345037	2
0	69033	11009.083385090802	1
0	69036	11009.873717248107	0
0	69045	11011.396861824243	1
0	69046	11011.431456699756	0
0	69050	11012.025586075655	1
0	69051	11012.286219789156	0
0	69055	11012.546147922574	1
0	69056	11012.735226540429	0
0	69060	11013.066865601799	1
0	69061	11013.665566521719	0
0	69070	11014.676322052412	1
0	69071	11015.200728319533	0
0	69075	11015.260309991235	1
0	69076	11015.651423131203	0
0	69100	11021.001605004201	1
0	69101	11021.09481344576	0
0	69110	11022.348400064958	1
0	69111	11022.821707425257	0
0	69120	11023.570957514619	1
0	69121	11024.223238166832	0
0	69140	11027.617740611039	1
0	69141	11028.168742484365	0
0	69152	11029.049650924007	1
0	69157	11029.884437206855	2
0	69158	11030.065399867761	1
0	69161	11030.65483327289	0
0	69170	11031.982378070682	1
0	69171	11032.063768499436	0
0	69180	11033.19068625097	1
0	69181	11033.38515354553	0
0	69210	11045.094095062944	1
0	69211	11045.508826418428	0
0	69220	11046.93634681811	1
0	69221	11047.078958629733	0
0	69290	11067.728202572718	1
0	69291	11067.868642911701	0
0	69300	11068.819251721968	1
0	69302	11069.256454362271	2
0	69303	11069.758157594002	1
0	69306	11070.300367234846	0
0	69330	11073.934170563349	1
0	69331	11074.344962477334	0
0	69340	11075.212755682316	1
0	69342	11075.524566710593	2
0	69343	11075.740510981312	1
0	69351	11077.203428378483	0
0	69360	11078.221683647966	1
0	69361	11078.392595547359	0
0	69390	11095.682608834092	1
0	69391	11096.134216096666	0
0	69400	11096.850364446419	1
0	69401	11097.148402728554	0
0	69430	11103.453790091879	1
0	69432	11103.512384245773	2
0	69433	11103.921705906805	1
0	69436	11104.695916954162	0
0	69440	11105.220469822589	1
0	69441	11105.392884325156	0
0	69455	11111.371175454035	1
0	69456	11111.676443253585	0
0	69485	11117.200713008214	1
0	69486	11117.377255786012	0
0	69500	11119.059781646049	1
0	69501	11119.760328226172	0
0	69510	11120.715805874945	1
0	69511	11121.083889739735	0
0	69540	11128.94586385219	1
0	69541	11129.10333247328	0
0	69550	11130.857915376435	1
0	69551	11131.16586909173	0
0	69575	11135.988442683138	1
0	69576	11136.178021377809	0
0	69585	11137.714066733717	1
0	69586	11138.266739575852	0
0	69590	11139.065844106314	1
0	69591	11139.16432259214	0
0	69595	11139.414115220444	1
0	69597	11139.816996268124	2
0	69598	11140.124667086414	1
0	69602	11140.962955966712	2
0	69603	11141.062348831733	1
0	69606	11141.812952373698	0
0	69610	11142.215517757493	1
0	69611	11142.729219517586	0
0	69625	11144.40621462453	1
0	69626	11145.243816435399	0
0	69630	11145.420386862134	1
0	69631	11145.669507055372	0
0	69801	11187.108518181496	1
0	69886	11199.829048458993	0
0	69905	11201.720497941846	1
0	69906	11202.598836281051	0
0	69920	11205.311071037063	1
0	69921	11205.428687361154	0
0	69930	11206.163584626154	1
0	69931	11206.743225948178	0
0	69940	11207.808704555663	1
0	69941	11208.288496615077	0
0	69950	11209.05330277186	1
0	69951	11209.780185085154	0
0	69962	11210.913836775284	1
0	69996	11216.321755292165	0
0	70005	11217.377430285315	1
0	70006	11217.633666549568	0
0	70015	11218.246482644403	1
0	70016	11218.845377756879	0
0	70025	11220.337469882602	1
0	70026	11220.504129515346	0
0	70045	11223.665703016794	1
0	70046	11224.080341654311	0
0	70100	11242.766608084946	1
0	70101	11242.813773234917	0
0	70105	11243.234742460823	1
0	70106	11243.385975627957	0
0	70110	11243.566893845592	1
0	70112	11243.619982421407	2
0	70113	11243.839893919259	1
0	70117	11244.124290196831	2
0	70118	11244.634440895619	1
0	70121	11245.339941732895	0
0	70130	11246.674200179739	1
0	70131	11247.10695554161	0
0	70145	11249.212200531146	1
0	70147	11250.016158491654	2
0	70148	11250.062963361497	1
0	70152	11250.261391248073	2
0	70153	11250.523837821902	1
0	70157	11250.553351064326	2
0	70158	11250.959284828388	1
0	70162	11251.482053359465	2
0	70163	11251.868120249891	1
0	70166	11252.337141870586	0
0	70197	11264.337377549304	1
0	70201	11265.017276787011	0
0	70210	11265.630434312092	1
0	70211	11266.019063224781	0
0	70220	11267.393408721725	1
0	70221	11267.782659001367	0
0	70230	11269.034429988078	1
0	70231	11269.222363943977	0
0	70240	11270.267096415128	1
0	70242	11270.500178441232	2
0	70243	11270.549251397417	1
0	70252	11271.413799783572	2
0	70253	11272.133173769105	1
0	70256	11272.954445711568	0
0	70260	11273.139195905072	1
0	70261	11273.531593391577	0
0	70267	11274.218679962483	1
0	70271	11275.204997592697	0
0	70277	11275.516264767457	1
0	70281	11276.786019601252	0
0	70290	11277.732979020286	1
0	70291	11278.131791170312	0
0	70300	11279.249168797478	1
0	70301	11279.582159765806	0
0	70310	11281.676237032842	1
0	70311	11282.083176346582	0
0	70315	11282.353325717957	1
0	70316	11282.777384574425	0
0	70325	11284.890731185987	1
0	70326	11285.563345545464	0
0	70335	11286.79642635748	1
0	70339	11286.995889446949	2
0	70344	11287.469159093856	3
0	70345	11287.851344287339	2
0	70348	11288.547011318514	1
0	70352	11288.927515900081	2
0	70353	11289.430255310926	1
0	70357	11289.474727045209	2
0	70358	11290.065318322824	1
0	70361	11290.61467326818	0
0	70365	11291.031306059849	1
0	70366	11291.208473422741	0
0	70375	11293.080312350714	1
0	70376	11293.305168771769	0
0	70385	11294.739002575975	1
0	70387	11295.021573112964	2
0	70388	11295.270421359732	1
0	70392	11295.593263447803	2
0	70394	11295.719881998751	3
0	70396	11295.898773752069	4
0	70397	11296.197732288015	3
0	70401	11296.643260366263	4
0	70402	11297.16166688888	3
0	70406	11297.268817252445	4
0	70407	11297.811556075696	3
0	70411	11297.916934408233	4
0	70412	11298.22957706344	3
0	70416	11298.323334987867	4
0	70417	11298.698689518819	3
0	70420	11299.149431495458	2
0	70424	11299.222171384302	3
0	70425	11299.610570248585	2
0	70429	11299.697551549881	3
0	70430	11300.117332175091	2
0	70433	11300.619677029174	1
0	70436	11301.429417278754	0
0	70440	11301.440253600629	1
0	70441	11301.918671178954	0
0	70450	11302.64971181629	1
0	70452	11302.999916155888	2
0	70453	11303.006243424897	1
0	70457	11303.250560556671	2
0	70459	11303.380196079972	3
0	70460	11303.574356007005	2
0	70464	11303.988585718444	3
0	70465	11304.189595374779	2
0	70469	11304.2616317969	3
0	70470	11304.917406434787	2
0	70474	11305.100570787336	3
0	70475	11305.586196501448	2
0	70479	11305.870119451344	3
0	70481	11305.935769375115	4
0	70482	11306.262915950769	3
0	70485	11306.761319830955	2
0	70489	11306.772752265779	3
0	70491	11306.871575512806	4
0	70492	11307.691739719023	3
0	70496	11307.919986537837	4
0	70498	11307.999772464536	5
0	70499	11308.248872681183	4
0	70503	11308.557073437723	5
0	70504	11308.934363059036	4
0	70508	11309.389017266404	5
0	70509	11309.46759688271	4
0	70513	11309.569729838673	5
0	70514	11310.380830753863	4
0	70517	11311.065545426391	3
0	70520	11311.608401845058	2
0	70524	11312.246393582703	3
0	70525	11312.488134192477	2
0	70528	11313.302074907661	1
0	70531	11314.084291121118	0
0	70535	11314.357111438962	1
0	70537	11314.811003073851	2
0	70538	11315.035058862005	1
0	70542	11315.420275486734	2
0	70543	11315.633318354596	1
0	70547	11315.73955062259	2
0	70549	11315.85481859673	3
0	70550	11316.070824782398	2
0	70554	11316.128908041871	3
0	70555	11316.914503129652	2
0	70558	11317.716049780125	1
0	70571	11319.485039331332	0
0	70577	11320.134562426651	1
0	70579	11320.35506525176	2
0	70583	11321.251672620221	1
0	70586	11321.959073972876	0
0	70590	11322.170690748024	1
0	70597	11322.807082701487	2
0	70598	11322.964347689447	1
0	70602	11323.058787688535	2
0	70604	11323.09968624453	3
0	70616	11324.678921569043	4
0	70625	11325.498778346695	5
0	70629	11326.570288957224	4
0	70632	11327.029540915309	3
0	70655	11329.18212160476	4
0	70665	11330.763476837719	5
0	70684	11333.759799527085	4
0	70695	11334.722066190721	5
0	70755	11344.314834335612	6
0	70756	11344.329304757795	5
0	70760	11344.967764969524	6
0	70761	11345.212960054666	5
0	70767	11345.663487380095	6
0	70771	11347.183275766006	5
0	70775	11347.339784450169	6
0	70781	11348.261658696492	5
0	70784	11348.877957238571	4
0	70792	11350.417727278021	3
0	70798	11350.756135948447	4
0	70803	11351.157272688671	5
0	70804	11351.357248532387	4
0	70810	11351.791809271414	5
0	70812	11351.848479861972	6
0	70814	11352.042240092943	7
0	70821	11352.726931047648	8
0	70830	11354.258690805954	7
0	70839	11355.62369304512	8
0	70840	11355.739788497181	7
0	70846	11355.899499695291	8
0	70850	11356.899793105887	7
0	70861	11357.932029972259	8
0	70873	11359.154229279714	9
0	70897	11363.630667450361	8
0	70900	11364.205705685996	7
0	70904	11364.377998518138	8
0	70905	11364.858856277623	7
0	70909	11365.153267785223	8
0	70916	11366.07484821251	9
0	70917	11366.260778803042	8
0	70926	11367.000205064406	9
0	70927	11367.227775679238	8
0	70930	11367.879200077558	7
0	70934	11368.378723274833	8
0	70935	11368.861891685974	7
0	70939	11369.22567554382	8
0	70940	11369.791979741899	7
0	70944	11370.266019675028	8
0	70945	11370.490501787455	7
0	70949	11370.937822092737	8
0	70951	11371.029806186502	9
0	70952	11371.199734605511	8
0	70955	11372.156717477448	7
0	70959	11372.217659988417	8
0	70961	11372.326464420378	9
0	70962	11372.571859001357	8
0	70966	11372.950745109699	9
0	70967	11373.385789253412	8
0	70970	11373.930691981025	7
0	70973	11374.719217945484	6
0	70982	11375.997718993325	7
0	70983	11376.233088651102	6
0	70989	11376.646418029178	7
0	70994	11377.225182036351	8
0	70995	11377.484730070678	7
0	70999	11378.089258733923	8
0	71000	11378.089905229758	7
0	71004	11378.141136430631	8
0	71006	11378.488835640466	9
0	71007	11378.669778696576	8
0	71011	11378.97618338691	9
0	71012	11379.121546699747	8
0	71016	11379.257179108459	9
0	71017	11379.822787573317	8
0	71026	11380.951148756774	9
0	71027	11381.156862584025	8
0	71038	11382.41298606849	9
0	71165	11400.389749211294	10
0	71229	11408.365622486403	11
0	71311	11420.623355937631	12
0	71333	11424.299214482437	11
0	71341	11425.568277868664	10
0	71345	11425.768978025682	11
0	71346	11426.172204605013	10
0	71352	11426.512342946918	11
0	71357	11427.540671375203	12
0	71358	11427.560457003106	11
0	71361	11428.126332172927	10
0	71374	11428.903150291142	11
0	71384	11430.113366466725	12
0	71394	11431.759337192027	13
0	71425	11436.309532073548	12
0	71433	11437.743565926922	11
0	71436	11438.473150015937	10
0	71445	11439.951370721348	11
0	71446	11439.985076537438	10
0	71452	11440.413250101328	11
0	71457	11440.983886135507	12
0	71458	11441.288722806087	11
0	71461	11441.698588448053	10
0	71465	11442.397682394917	11
0	71466	11442.56422451319	10
0	71470	11442.582820584935	11
0	71471	11443.288540067	10
0	71474	11444.130055519741	9
0	71477	11444.702412919316	8
0	71480	11445.162307215889	7
0	71483	11445.92874298942	6
0	71486	11446.843227311724	5
0	71489	11447.344226789463	4
0	71492	11447.751136099117	3
0	71496	11447.957474495033	4
0	71497	11448.622773262009	3
0	71501	11448.800024241472	4
0	71502	11449.467745647568	3
0	71506	11449.655661129659	4
0	71507	11450.272486537404	3
0	71511	11450.527575954682	4
0	71513	11450.809796569634	5
0	71515	11450.968710575388	6
0	71516	11451.185247372219	5
0	71519	11451.710782683536	4
0	71523	11452.041223621412	5
0	71524	11452.646830863541	4
0	71528	11453.362351026518	5
0	71530	11453.410342245475	6
0	71531	11453.645843430784	5
0	71534	11454.047106750252	4
0	71538	11454.583249104442	5
0	71539	11454.691695756128	4
0	71543	11454.984320062264	5
0	71545	11455.037665108237	6
0	71546	11455.32922016558	5
0	71550	11455.651871811763	6
0	71551	11456.282269584562	5
0	71554	11456.739513844519	4
0	71557	11457.148315452493	3
0	71560	11457.801864140795	2
0	71564	11458.187731425366	3
0	71566	11458.596111193802	4
0	71567	11458.646540968015	3
0	71571	11458.872857367206	4
0	71572	11459.396114899905	3
0	71576	11459.423395242525	4
0	71577	11460.130696904741	3
0	71581	11461.06425968275	4
0	71582	11461.109700251266	3
0	71586	11461.146535013551	4
0	71588	11461.196405225893	5
0	71590	11461.711095851807	6
0	71592	11461.833297673966	7
0	71593	11462.078012453753	6
0	71596	11462.494069956231	5
0	71600	11462.641535890996	6
0	71602	11462.699223460709	7
0	71603	11463.234369337966	6
0	71606	11464.029647655634	5
0	71610	11464.611758390247	6
0	71612	11464.693822640219	7
0	71614	11464.895869612882	8
0	71615	11464.969435989054	7
0	71619	11465.116555833017	8
0	71620	11465.490559246473	7
0	71623	11466.215506351542	6
0	71627	11466.508233379947	7
0	71628	11466.809169733979	6
0	71631	11467.480290887121	5
0	71635	11467.70781979979	6
0	71637	11467.959414684543	7
0	71638	11468.25898534226	6
0	71641	11468.81863048597	5
0	71645	11469.427994079155	6
0	71647	11469.539675520597	7
0	71648	11469.576312848029	6
0	71651	11470.559324997605	5
0	71655	11470.683280651358	6
0	71657	11470.729332070106	7
0	71658	11471.337532266357	6
0	71661	11472.098147706117	5
0	71665	11472.439572308512	6
0	71666	11472.751884033799	5
0	71670	11473.093456986195	6
0	71672	11473.433823084456	7
0	71673	11473.603945811827	6
0	71677	11473.785561059486	7
0	71678	11474.411494905351	6
0	71682	11474.899960140908	7
0	71683	11475.127302465344	6
0	71687	11475.576073077432	7
0	71688	11475.874745191064	6
0	71692	11476.400046314312	7
0	71694	11476.60645896841	8
0	71695	11476.833052562259	7
0	71698	11477.30695654474	6
0	71702	11477.876807148056	7
0	71703	11477.942487139849	6
0	71707	11478.375736273626	7
0	71708	11478.925332199398	6
0	71711	11479.811619968747	5
0	71715	11480.055616481209	6
0	71716	11480.223207982292	5
0	71719	11480.780039698712	4
0	71722	11481.439882352517	3
0	71725	11481.903755155194	2
0	71729	11482.014620833257	3
0	71731	11482.222314627123	4
0	71733	11482.449268115959	5
0	71734	11482.87966838096	4
0	71738	11483.085817587254	5
0	71739	11483.306111911113	4
0	71742	11483.838689078611	3
0	71745	11484.473184116964	2
0	71749	11484.531418559833	3
0	71751	11484.746788435217	4
0	71752	11485.062569450202	3
0	71756	11485.28614375934	4
0	71758	11485.422199078859	5
0	71759	11485.467098055302	4
0	71763	11485.7773355346	5
0	71764	11486.334969989338	4
0	71768	11486.352899141039	5
0	71770	11486.450527184651	6
0	71772	11486.721520100555	7
0	71773	11487.154936258995	6
0	71777	11487.336098793714	7
0	71779	11487.634348479066	8
0	71781	11487.827114165659	9
0	71782	11488.068184744974	8
0	71786	11488.154963105708	9
0	71787	11488.660277967004	8
0	71791	11488.830733079503	9
0	71792	11489.36134183252	8
0	71795	11490.077371945733	7
0	71799	11490.110128847876	8
0	71801	11490.159383843668	9
0	71803	11490.310036342035	10
0	71804	11490.767603014305	9
0	71807	11491.469091995282	8
0	71810	11491.931146540761	7
0	71814	11492.396441082441	8
0	71816	11492.536860849593	9
0	71817	11492.765934415663	8
0	71820	11493.408361246473	7
0	71824	11493.512813201147	8
0	71825	11494.353175937886	7
0	71829	11494.456695173779	8
0	71831	11494.557909448201	9
0	71832	11494.777323639755	8
0	71836	11495.071991344093	9
0	71837	11495.51194499134	8
0	71841	11495.823188061388	9
0	71842	11496.136898075732	8
0	71846	11496.362838730652	9
0	71848	11496.860120416842	10
0	71849	11496.936509905931	9
0	71853	11497.265080248705	10
0	71854	11497.456144525472	9
0	71858	11497.66218586586	10
0	71860	11497.75738514821	11
0	71861	11498.236998887395	10
0	71865	11498.301452629716	11
0	71867	11498.397821321911	12
0	71868	11499.210019829485	11
0	71872	11499.674527975629	12
0	71873	11499.921139427635	11
0	71877	11500.038701153512	12
0	71878	11500.918876817112	11
0	71881	11501.758203544828	10
0	71885	11501.931125062136	11
0	71887	11502.194261744115	12
0	71888	11502.216496938967	11
0	71892	11502.961270453893	12
0	71893	11503.20754172703	11
0	71896	11503.672633185226	10
0	71899	11504.34179141022	9
0	71903	11504.347059835736	10
0	71905	11504.905346953694	11
0	71906	11504.99626472959	10
0	71910	11505.178684928448	11
0	71912	11505.302696513547	12
0	71913	11505.397320424148	11
0	71917	11505.48782435785	12
0	71918	11505.858883477456	11
0	71921	11506.493124307354	10
0	71925	11506.527860155286	11
0	71927	11507.181449873404	12
0	71928	11507.371181559644	11
0	71931	11507.857469156	10
0	71934	11508.327028836903	9
0	71938	11508.575612870793	10
0	71939	11508.92241419194	9
0	71942	11509.723373815266	8
0	71946	11509.754206907031	9
0	71947	11510.273428031791	8
0	71950	11510.837546179665	7
0	71954	11510.996364967133	8
0	71955	11511.391496215377	7
0	71959	11511.698020993369	8
0	71960	11512.104469962873	7
0	71964	11512.463045235302	8
0	71965	11512.966664277472	7
0	71969	11513.200340009478	8
0	71970	11513.657047064498	7
0	71973	11514.290336325567	6
0	71976	11514.905496752577	5
0	71980	11515.335210037267	6
0	71982	11515.351504006381	7
0	71983	11515.534117950581	6
0	71986	11516.509013712488	5
0	71990	11516.699701854295	6
0	71991	11516.990722305316	5
0	71994	11517.455189571425	4
0	72002	11518.65553605532	3
0	72008	11519.098456287934	4
0	72010	11519.130539150312	5
0	72015	11519.451468239373	6
0	72017	11520.004835582289	7
0	72018	11520.044160404138	6
0	72024	11520.066908963054	7
0	72029	11521.16547368129	8
0	72031	11521.297884747113	9
0	72033	11521.407138381704	10
0	72035	11521.424734094719	11
0	72036	11521.615000791976	10
0	72042	11521.65673180695	11
0	72047	11522.856957698145	12
0	72048	11523.008512305131	11
0	72052	11523.022470039936	12
0	72053	11523.568589355739	11
0	72056	11524.434390463902	10
0	72060	11524.88674731835	11
0	72061	11524.964355936123	10
0	72065	11525.123138115922	11
0	72066	11525.913209960272	10
0	72070	11526.191452231101	11
0	72071	11526.860668379941	10
0	72075	11527.24160140105	11
0	72076	11527.367144097003	10
0	72079	11528.271558170195	9
0	72082	11528.693456303503	8
0	72086	11529.041779152268	9
0	72088	11529.333101828878	10
0	72089	11529.526027514122	9
0	72093	11529.764964437212	10
0	72094	11530.303722512943	9
0	72098	11530.576745393315	10
0	72099	11531.114703962707	9
0	72102	11531.568807875446	8
0	72106	11531.600403242281	9
0	72108	11531.688754073085	10
0	72109	11532.526894778001	9
0	72112	11533.083530105033	8
0	72116	11533.269944337478	9
0	72118	11533.356822310942	10
0	72119	11533.650145402492	9
0	72123	11534.239876326165	10
0	72124	11534.638629764586	9
0	72127	11535.310322377307	8
0	72131	11535.557588815069	9
0	72132	11536.104278159316	8
0	72136	11536.42485824916	9
0	72137	11536.790767169127	8
0	72141	11536.958878218263	9
0	72142	11537.287626038946	8
0	72146	11537.411301548533	9
0	72147	11538.109878981894	8
0	72150	11538.90123884742	7
0	72153	11539.448006615963	6
0	72157	11539.594697516905	7
0	72158	11539.892604167096	6
0	72161	11540.709065190645	5
0	72165	11541.03327578261	6
0	72166	11541.49386226124	5
0	72169	11542.278662526457	4
0	72172	11542.933241222835	3
0	72175	11543.334888762458	2
0	72178	11543.862273750816	1
0	72181	11544.407074444125	0
0	72185	11544.954825256648	1
0	72186	11545.374020629971	0
0	72195	11546.492709789011	1
0	72197	11546.623216830583	2
0	72199	11546.731619575257	3
0	72200	11546.976472086447	2
0	72208	11548.324941271857	1
0	72212	11548.906862482128	2
0	72213	11548.979437110747	1
0	72217	11549.096711158522	2
0	72218	11549.64662466956	1
0	72222	11549.911661146408	2
0	72224	11550.183403080164	3
0	72226	11550.428997674472	4
0	72227	11550.584439043828	3
0	72231	11551.057767362413	4
0	72232	11551.19784759957	3
0	72236	11551.517469808924	4
0	72237	11552.151500773743	3
0	72241	11552.501982277454	4
0	72242	11553.070856234186	3
0	72245	11553.836573332303	2
0	72249	11553.837623562303	3
0	72250	11554.823759401158	2
0	72254	11554.91718398495	3
0	72255	11555.308676367613	2
0	72258	11556.117050483065	1
0	72261	11556.961258049017	0
0	72270	11558.506100885335	1
0	72271	11558.799579412982	0
0	72275	11559.109551583875	1
0	72276	11559.565404435087	0
0	72280	11559.662883405155	1
0	72282	11560.128673236856	2
0	72283	11560.199976756543	1
0	72287	11560.661828546262	2
0	72288	11561.069047300218	1
0	72292	11561.349177172975	2
0	72293	11561.573717546117	1
0	72296	11562.085552848762	0
0	72300	11562.469978447199	1
0	72302	11562.531128702981	2
0	72303	11563.076073361773	1
0	72307	11563.091492878699	2
0	72308	11564.047686658639	1
0	72311	11564.784628834322	0
0	72315	11564.805160780061	1
0	72316	11565.701568957724	0
0	72350	11590.581271727004	1
0	72351	11590.681928366937	0
0	72365	11593.81666425498	1
0	72371	11595.197547021441	0
0	72380	11596.256287187968	1
0	72381	11596.726212895362	0
0	72400	11601.862000283121	1
0	72401	11602.465799563926	0
0	72410	11604.215274666613	1
0	72412	11604.684011812409	2
0	72413	11604.70124173372	1
0	72416	11605.26716071519	0
0	72460	11620.827950402653	1
0	72462	11620.885537451086	2
0	72463	11621.265459630426	1
0	72466	11621.903739932479	0
0	72500	11628.047063779594	1
0	72501	11628.129253504858	0
0	72505	11628.268441390465	1
0	72507	11628.34036650603	2
0	72514	11629.428283961765	3
0	72515	11629.565919078155	2
0	72526	11630.939666280003	3
0	72555	11635.535233725154	2
0	72563	11636.352458215983	1
0	72567	11636.413867113784	2
0	72574	11637.450837441997	3
0	72590	11640.199865625811	2
0	72596	11640.834975099636	3
0	72603	11641.423684211199	4
0	72608	11642.531627310295	5
0	72609	11642.910544650874	4
0	72613	11643.125266401213	5
0	72614	11643.824911523715	4
0	72618	11644.515960405191	5
0	72619	11644.678260861256	4
0	72623	11644.908359102893	5
0	72624	11645.100783510751	4
0	72628	11645.400878659722	5
0	72629	11645.893023443281	4
0	72633	11646.678926945687	5
0	72634	11646.720304132964	4
0	72637	11647.577335864923	3
0	72641	11647.8085678272	4
0	72642	11648.198417248775	3
0	72646	11648.274572747836	4
0	72647	11649.038223082444	3
0	72650	11649.862967917847	2
0	72654	11650.447670910261	3
0	72655	11650.529457322939	2
0	72658	11650.965311314271	1
0	72662	11651.419084815735	2
0	72664	11651.752895106027	3
0	72665	11651.890547599283	2
0	72668	11652.690996419231	1
0	72671	11653.282027938275	0
0	72680	11655.009346826291	1
0	72682	11655.447997678911	2
0	72683	11655.861149270898	1
0	72687	11656.020573814941	2
0	72688	11656.52129304234	1
0	72692	11656.781131831896	2
0	72693	11657.310484555895	1
0	72697	11657.399195462167	2
0	72698	11658.103625272559	1
0	72701	11658.553985796049	0
0	72705	11659.316834140667	1
0	72706	11659.347193406028	0
0	72715	11660.139050689832	1
0	72716	11660.561820550467	0
0	72722	11660.72101542906	1
0	72729	11661.325190336712	2
0	72753	11665.391611488321	1
0	72761	11666.318966264808	0
0	72772	11667.001826005675	1
0	72777	11667.359203343767	2
0	72778	11668.280229529501	1
0	72786	11669.683683503089	0
0	72790	11669.836046002605	1
0	72794	11670.087222771248	2
0	72798	11671.097768096808	1
0	72801	11672.022533616978	0
0	72807	11672.106558816433	1
0	72809	11672.358576043406	2
0	72814	11672.648905857216	3
0	72815	11673.238001497318	2
0	72823	11674.813398022013	1
0	72827	11675.132233719815	2
0	72834	11675.649603165505	3
0	72835	11675.952865391871	2
0	72838	11676.808992438618	1
0	72842	11677.150863448052	2
0	72843	11677.232341698971	1
0	72847	11678.066398049587	2
0	72848	11678.087457758276	1
0	72852	11678.580968887329	2
0	72853	11678.658018605173	1
0	72857	11678.954068337523	2
0	72858	11679.385001334915	1
0	72867	11679.98573969359	2
0	72869	11680.19694212555	3
0	72870	11680.524897296069	2
0	72873	11681.322504569817	1
0	72876	11681.91744249998	0
0	72880	11682.112418054637	1
0	72881	11682.422525046527	0
0	72955	11695.912097075646	1
0	72956	11696.478890788096	0
0	72960	11696.764823295612	1
0	72961	11697.033790469269	0
0	72970	11699.356997471224	1
0	72971	11699.397124771054	0
0	72975	11699.554635388216	1
0	72976	11700.075154240036	0
0	72985	11701.331356242157	1
0	72986	11701.709447506243	0
0	72990	11702.016147914804	1
0	72996	11703.171091098325	0
0	73005	11703.63277135516	1
0	73007	11703.778825816736	2
0	73008	11704.391010591374	1
0	73012	11704.50353433254	2
0	73016	11704.947073853044	3
0	73021	11705.568369464667	4
0	73022	11705.773664769284	3
0	73031	11707.129030176401	4
0	73033	11707.144139654788	5
0	73034	11707.341338987915	4
0	73042	11708.730319641937	3
0	73050	11710.170711668429	2
0	73054	11710.242288785529	3
0	73061	11711.419997227035	4
0	73062	11711.432592423155	3
0	73066	11711.893895599118	4
0	73067	11712.005692329991	3
0	73070	11712.805178745964	2
0	73073	11713.41387029126	1
0	73077	11713.451445797529	2
0	73079	11713.626709043072	3
0	73081	11713.786546818397	4
0	73082	11714.308984188863	3
0	73085	11714.74425462092	2
0	73088	11715.249072057369	1
0	73094	11715.349332828071	2
0	73096	11715.370922806218	3
0	73098	11715.533568988237	4
0	73102	11716.84936880659	3
0	73111	11717.671563793091	4
0	73112	11718.289751425233	3
0	73116	11718.681613276251	4
0	73117	11719.285749811899	3
0	73123	11719.439452280546	4
0	73128	11720.257175624604	5
0	73129	11720.770928352825	4
0	73138	11721.604470218976	5
0	73139	11721.908092809455	4
0	73142	11722.491095119468	3
0	73145	11722.983277962436	2
0	73151	11723.352469448468	3
0	73153	11723.543470026258	4
0	73157	11724.609100813172	3
0	73166	11725.442158713507	4
0	73167	11725.991408979693	3
0	73171	11726.627223246928	4
0	73172	11726.82097626248	3
0	73175	11727.696162681781	2
0	73178	11728.173479752742	1
0	73186	11729.561200307763	0
0	73200	11731.251349735042	1
0	73202	11731.338203037135	2
0	73203	11731.581305693762	1
0	73207	11732.304327881614	2
0	73209	11732.454972575254	3
0	73210	11732.507792278772	2
0	73214	11732.663335825916	3
0	73215	11733.070762749083	2
0	73219	11733.379235080831	3
0	73220	11733.503628798548	2
0	73224	11733.732601870891	3
0	73226	11733.882151552413	4
0	73227	11734.437754100395	3
0	73230	11735.040384747667	2
0	73234	11735.754444870812	3
0	73235	11735.845367012985	2
0	73239	11735.889737301906	3
0	73240	11736.605118311077	2
0	73243	11737.143145174227	1
0	73246	11737.650187695698	0
0	73250	11737.967362873188	1
0	73252	11738.327293071087	2
0	73253	11738.458680973454	1
0	73256	11738.869312140085	0
0	73275	11742.56190515948	1
0	73276	11742.783449608997	0
0	73285	11743.853070348393	1
0	73286	11744.813923097451	0
0	73290	11745.005548921434	1
0	73292	11745.188681162795	2
0	73293	11745.739791336193	1
0	73297	11746.526207500968	2
0	73298	11746.64964661836	1
0	73301	11747.257247810348	0
0	73305	11748.039578607789	1
0	73306	11748.140701801985	0
0	73310	11748.21523108718	1
0	73311	11748.8018820209	0
0	73315	11749.223666380159	1
0	73316	11749.287715500131	0
0	73320	11749.869711510712	1
0	73321	11749.90306397458	0
0	73325	11750.161921675193	1
0	73326	11750.645947428471	0
0	73340	11755.196589446752	1
0	73341	11755.354658711049	0
0	73345	11755.98944494781	1
0	73346	11756.057409604731	0
0	73360	11759.117958229146	1
0	73362	11759.382120092461	2
0	73363	11759.576428092674	1
0	73367	11760.104772196911	2
0	73368	11760.32520422119	1
0	73372	11760.425534507729	2
0	73373	11761.156346180134	1
0	73376	11761.644935731946	0
0	73382	11761.888294090651	1
0	73384	11762.476558048991	2
0	73388	11762.946674276639	1
0	73391	11763.889196585987	0
0	73400	11766.898366875111	1
0	73402	11767.21262970455	2
0	73403	11767.454031494038	1
0	73406	11768.101928045565	0
0	73410	11768.339073834502	1
0	73411	11768.615051503258	0
0	73435	11783.298410777337	1
0	73436	11783.430065125079	0
0	73440	11784.129463380508	1
0	73441	11784.332287870246	0
0	73455	11786.974300975543	1
0	73456	11787.432237158714	0
0	73520	11800.997058201532	1
0	73521	11801.105875551333	0
0	73530	11801.647624388164	1
0	73532	11801.860099535172	2
0	73533	11802.422353202668	1
0	73541	11803.931653241678	0
0	73555	11805.505660127042	1
0	73556	11805.57397921104	0
0	73565	11806.532677407758	1
0	73566	11807.068602548772	0
0	73620	11824.031555890179	1
0	73622	11824.035824481186	2
0	73623	11824.108074785103	1
0	73632	11825.503359541114	2
0	73633	11825.577957056542	1
0	73637	11825.696100643329	2
0	73643	11826.579603561233	1
0	73652	11827.182671531342	2
0	73653	11827.885653484226	1
0	73656	11828.598823540085	0
0	73660	11828.777500528056	1
0	73664	11829.054749599082	2
0	73671	11829.354956891074	3
0	73678	11830.397269263825	4
0	73680	11830.621452603168	5
0	73685	11831.907780999969	6
0	73686	11831.909290986028	5
0	73690	11831.951967262283	6
0	73696	11833.230731850009	5
0	73700	11833.31965522193	6
0	73704	11833.573351783147	7
0	73706	11834.041953126259	8
0	73710	11835.054402854791	7
0	73713	11835.909808030663	6
0	73716	11836.668507502446	5
0	73720	11837.179920941507	6
0	73721	11837.269238991927	5
0	73725	11837.416255859466	6
0	73727	11838.016636776189	7
0	73728	11838.251801267018	6
0	73732	11838.532692662621	7
0	73733	11838.670808965418	6
0	73736	11839.124833709126	5
0	73740	11839.397753224091	6
0	73741	11839.526412528598	5
0	73744	11840.323221253262	4
0	73747	11840.798901845639	3
0	73750	11841.47250023031	2
0	73754	11841.804045554837	3
0	73755	11842.367085217949	2
0	73759	11842.563065494297	3
0	73760	11842.942913250424	2
0	73763	11843.521507284123	1
0	73767	11843.916031971525	2
0	73768	11843.934628679122	1
0	73772	11844.152164553439	2
0	73774	11844.154781735003	3
0	73776	11844.711798981255	4
0	73777	11844.748307215779	3
0	73781	11844.75739467985	4
0	73783	11845.222689483644	5
0	73784	11845.491276770675	4
0	73788	11845.837610625023	5
0	73789	11846.433223918437	4
0	73793	11846.640362979474	5
0	73794	11847.029581263273	4
0	73798	11847.114160895672	5
0	73799	11847.50014820712	4
0	73803	11847.79664235065	5
0	73805	11848.079990909434	6
0	73807	11848.10333632437	7
0	73808	11848.214274361807	6
0	73812	11848.29742412638	7
0	73814	11848.736673597766	8
0	73815	11848.849825890859	7
0	73818	11849.575390206728	6
0	73822	11849.697967011363	7
0	73824	11849.86739173826	8
0	73826	11850.084416330593	9
0	73827	11850.188743916465	8
0	73830	11851.153877510721	7
0	73833	11851.619378003137	6
0	73837	11851.770685008001	7
0	73838	11852.541449174642	6
0	73841	11853.347608515093	5
0	73845	11853.508236260943	6
0	73846	11853.892773752179	5
0	73849	11854.331164537681	4
0	73853	11854.557299012546	5
0	73854	11854.855357492793	4
0	73858	11855.047773229122	5
0	73859	11855.355463112363	4
0	73863	11855.555010135374	5
0	73864	11855.784601859128	4
0	73868	11856.384617388984	5
0	73870	11856.670947779366	6
0	73872	11856.728304284427	7
0	73873	11856.731549471229	6
0	73876	11857.425305380564	5
0	73880	11857.780181265283	6
0	73881	11858.146468725646	5
0	73884	11858.571833360972	4
0	73888	11858.65907419492	5
0	73890	11859.127172211904	6
0	73892	11859.324320317252	7
0	73893	11859.469123189742	6
0	73897	11860.211572296281	7
0	73898	11860.36775249707	6
0	73902	11861.14944149491	7
0	73903	11861.236794528444	6
0	73906	11862.024692160575	5
0	73909	11862.759478938379	4
0	73913	11863.061633754705	5
0	73915	11863.21962634215	6
0	73916	11863.384445408252	5
0	73919	11864.220497127888	4
0	73923	11864.685035067838	5
0	73925	11864.852103924601	6
0	73926	11865.192606870211	5
0	73929	11865.608150321744	4
0	73932	11866.175710553616	3
0	73936	11866.609369948182	4
0	73937	11866.754407134173	3
0	73941	11867.387737893432	4
0	73942	11867.743717489378	3
0	73946	11867.873748400042	4
0	73947	11868.215078413194	3
0	73951	11868.511928182473	4
0	73953	11868.778998130048	5
0	73954	11868.901476328481	4
0	73957	11869.697613042301	3
0	73960	11870.330558229737	2
0	73964	11870.748959898011	3
0	73965	11870.898293774003	2
0	73968	11871.793419349134	1
0	73972	11871.91546103786	2
0	73974	11872.685942857208	3
0	73975	11872.770621871283	2
0	73979	11872.777920178293	3
0	73980	11873.477321060454	2
0	73986	11873.877151348074	3
0	73993	11874.494467291835	4
0	74000	11875.334450332578	5
0	74005	11875.789260797694	6
0	74006	11876.476507160008	5
0	74010	11876.47789859157	6
0	74012	11876.531398544492	7
0	74021	11877.763674501347	8
0	74035	11879.833119905215	7
0	74049	11881.145627650191	8
0	74050	11881.798327867721	7
0	74053	11882.204910133813	6
0	74062	11883.29452953009	7
0	74063	11883.351044385635	6
0	74066	11884.107557976513	5
0	74075	11885.107188326659	6
0	74076	11885.473606907564	5
0	74079	11885.93807494858	4
0	74087	11887.805204549978	3
0	74090	11888.458095748244	2
0	74093	11889.079487257345	1
0	74096	11889.796091906993	0
0	74100	11889.90294480995	1
0	74101	11890.75927214258	0
0	74105	11890.873058498821	1
0	74106	11891.265890125126	0
0	74110	11891.386531807959	1
0	74112	11891.964496859902	2
0	74113	11892.035855377825	1
0	74117	11892.775689079113	2
0	74118	11892.790726308186	1
0	74121	11893.224797615117	0
0	74125	11893.35029980742	1
0	74126	11893.674732087307	0
0	74130	11894.1283439335	1
0	74132	11894.177140609384	2
0	74133	11894.191221132117	1
0	74136	11894.66260325642	0
0	74150	11897.473759654694	1
0	74152	11897.534115053296	2
0	74153	11897.950172314528	1
0	74156	11898.40870682878	0
0	74175	11903.395950971388	1
0	74176	11903.776312887666	0
0	74180	11904.187408342751	1
0	74182	11904.196976261819	2
0	74189	11904.800894122086	3
0	74191	11905.027261729819	4
0	74192	11905.410120384905	3
0	74198	11905.668215518449	4
0	74200	11905.704252474938	5
0	74204	11906.638286018462	4
0	74213	11908.025067210355	5
0	74214	11908.066383766101	4
0	74220	11908.513016607539	5
0	74224	11909.5360626135	4
0	74233	11910.2500130277	5
0	74234	11911.08178117899	4
0	74242	11912.400506360687	3
0	74251	11913.475281333759	4
0	74252	11913.946684960647	3
0	74261	11915.075242401269	4
0	74262	11915.703475245692	3
0	74271	11916.576729519819	4
0	74272	11916.963433751881	3
0	74280	11918.300347540106	2
0	74284	11918.499422880488	3
0	74285	11918.917315303113	2
0	74289	11919.110911284394	3
0	74290	11919.768402657516	2
0	74294	11919.981968040692	3
0	74295	11920.284382751489	2
0	74298	11920.883696153432	1
0	74302	11921.283408098111	2
0	74303	11921.400441724572	1
0	74306	11922.133502298731	0
0	74315	11923.451343386019	1
0	74317	11923.453909068582	2
0	74318	11923.686774281364	1
0	74326	11924.8894746772	0
0	74335	11925.704974865394	1
0	74336	11926.146325740031	0
0	74345	11927.826609655964	1
0	74346	11927.875856403633	0
0	74360	11929.814067380364	1
0	74361	11930.397764498409	0
0	74370	11931.228522282677	1
0	74371	11931.549636998488	0
0	74405	11937.293642705826	1
0	74406	11937.606229955096	0
0	74412	11938.035014196047	1
0	74416	11939.055695400013	0
0	74420	11939.155616847464	1
0	74427	11939.874767567658	2
0	74428	11940.3655116925	1
0	74431	11941.216572066814	0
0	74445	11943.33091098612	1
0	74446	11943.770798573611	0
0	74510	11975.841367597126	1
0	74511	11976.462609663374	0
0	74515	11976.795049907162	1
0	74516	11977.012250586135	0
0	74520	11977.254124420275	1
0	74521	11977.778530191259	0
0	74530	11980.61863431404	1
0	74532	11980.889246974119	2
0	74533	11981.02607830648	1
0	74537	11981.06120823318	2
0	74538	11981.874599469143	1
0	74542	11981.943392059978	2
0	74543	11982.35927967631	1
0	74546	11982.811347163345	0
0	74550	11982.857239621258	1
0	74552	11983.314179487061	2
0	74553	11983.577637865271	1
0	74556	11983.983173770474	0
0	74560	11984.199835290486	1
0	74561	11984.392906246071	0
0	74570	11985.236339298147	1
0	74571	11985.852664429478	0
0	74575	11985.957113672972	1
0	74577	11986.202876227058	2
0	74603	11990.171834701223	1
0	74606	11990.994890434637	0
0	74610	11991.212814257964	1
0	74611	11991.638759706605	0
0	74620	11993.943151359062	1
0	74621	11994.388078656212	0
0	74630	11995.392979378601	1
0	74631	11995.986529844793	0
0	74640	11996.773353221733	1
0	74641	11996.928837078328	0
0	74645	11997.255549913891	1
0	74646	11997.442274475873	0
0	74685	12006.217811781692	1
0	74686	12006.336655636456	0
0	74690	12006.441910222786	1
0	74697	12007.527809486948	2
0	74698	12007.730172322642	1
0	74706	12009.243945906868	0
0	74745	12021.481032785348	1
0	74747	12021.960181515106	2
0	74748	12022.218089412775	1
0	74757	12023.034618082279	2
0	74758	12023.451795508776	1
0	74767	12024.519442222597	2
0	74769	12024.709484769153	3
0	74770	12025.321600673737	2
0	74773	12026.216426643047	1
0	74776	12026.904102277353	0
0	74780	12027.058183004906	1
0	74781	12027.336687342094	0
0	74790	12027.92592102517	1
0	74791	12028.414945412004	0
0	74795	12028.714436019887	1
0	74796	12028.986234952366	0
0	74805	12030.074394042484	1
0	74806	12030.745327402071	0
0	74830	12037.156653543036	1
0	74831	12037.290403856858	0
0	74835	12037.437692836246	1
0	74842	12037.74688284094	2
0	74843	12038.71048339853	1
0	74854	12039.812415545811	2
0	74859	12039.949902535513	3
0	74860	12040.327321420246	2
0	74868	12041.616773022068	1
0	74874	12041.898897214983	2
0	74879	12042.155900854787	3
0	74895	12044.996442670197	2
0	74904	12045.990815382795	3
0	74905	12046.732834240756	2
0	74913	12048.542935377367	1
0	74917	12048.611307424541	2
0	74923	12049.795001545976	1
0	74927	12049.829623801217	2
0	74928	12050.711342438459	1
0	74934	12051.126230820658	2
0	74941	12051.549121009902	3
0	74950	12053.413040169431	2
0	74966	12055.352434598868	3
0	74980	12057.146315973447	2
0	74989	12057.805166578152	3
0	74998	12059.074111058764	4
0	75065	12068.05816448996	5
0	75179	12083.886870513444	4
0	75187	12085.149549066515	3
0	75191	12085.507735691284	4
0	75197	12086.652696655465	3
0	75201	12087.281115050482	4
0	75202	12087.420272925783	3
0	75206	12087.829336874433	4
0	75207	12088.071245476099	3
0	75211	12088.425630111312	4
0	75212	12088.94089462702	3
0	75221	12090.273123006287	4
0	75222	12090.332966423136	3
0	75231	12091.471393374062	4
0	75232	12091.779808259577	3
0	75235	12092.228325866869	2
0	75238	12093.06640193235	1
0	75241	12093.804715138868	0
0	75245	12094.233962373846	1
0	75247	12094.27697938981	2
0	75248	12094.450424321842	1
0	75252	12094.668235530781	2
0	75254	12094.701072741865	3
0	75255	12094.891828411174	2
0	75259	12095.398047589522	3
0	75260	12095.802017620959	2
0	75264	12096.191793412162	3
0	75265	12096.27470121622	2
0	75269	12096.375933195257	3
0	75270	12097.246472447421	2
0	75274	12097.517662284333	3
0	75275	12097.701017978331	2
0	75279	12097.803918452875	3
0	75280	12098.523368365792	2
0	75283	12099.148220994332	1
0	75286	12100.06686429154	0
0	75295	12101.589196905294	1
0	75296	12101.946050820966	0
0	75300	12102.056451213274	1
0	75306	12103.367598419451	0
0	75330	12106.379570897006	1
0	75331	12106.406110919873	0
0	75342	12107.427808854145	1
0	75344	12107.63429967308	2
0	75348	12107.876382788903	3
0	75408	12116.539592707298	4
0	75432	12120.677277311451	3
0	75440	12122.104683799763	2
0	75448	12123.167981434381	1
0	75456	12124.884289947059	0
0	75470	12126.38736668018	1
0	75471	12127.262216321132	0
0	75480	12128.132330880521	1
0	75481	12128.402238155701	0
0	75492	12129.412459665924	1
0	75502	12130.808707935532	2
0	75503	12131.164314433312	1
0	75507	12131.646648708105	2
0	75513	12133.141134189148	1
0	75524	12134.023216765477	2
0	75533	12135.515491581167	3
0	75543	12136.290587895667	4
0	75545	12136.58349469596	5
0	75554	12138.55714509197	4
0	75568	12140.468043231042	5
0	75569	12140.874407029464	4
0	75578	12142.130943618189	5
0	75579	12142.188287556204	4
0	75582	12142.591606490905	3
0	75586	12142.929128470509	4
0	75587	12143.381851682891	3
0	75591	12143.89234273488	4
0	75592	12144.12087930975	3
0	75596	12144.608355007678	4
0	75597	12144.876255913204	3
0	75601	12145.199692857752	4
0	75602	12145.398910674112	3
0	75605	12145.892194116706	2
0	75609	12146.012283795168	3
0	75610	12146.380163488289	2
0	75613	12147.01893156919	1
0	75617	12147.375154055728	2
0	75618	12147.721054130265	1
0	75622	12148.088794276421	2
0	75623	12148.703522928416	1
0	75626	12149.579080487632	0
0	75630	12149.632338670076	1
0	75631	12150.100812714345	0
0	75640	12152.39031501738	1
0	75641	12152.779519646204	0
0	75650	12153.793346309124	1
0	75652	12154.014771337353	2
0	75654	12154.073292210185	3
0	75655	12154.447444680567	2
0	75659	12154.991650201214	3
0	75661	12155.117128436734	4
0	75662	12155.28146484159	3
0	75665	12155.884338092153	2
0	75669	12156.174861549249	3
0	75671	12156.257936795999	4
0	75673	12156.289948962257	5
0	75674	12156.67091095443	4
0	75677	12157.390248136363	3
0	75681	12157.604250846807	4
0	75683	12157.745597344967	5
0	75684	12158.108955936554	4
0	75687	12158.646256439901	3
0	75690	12159.361743467116	2
0	75694	12159.493810779327	3
0	75696	12159.541379327674	4
0	75697	12160.337947531511	3
0	75700	12160.767310028152	2
0	75703	12161.758841351048	1
0	75711	12163.259907923268	0
0	75715	12163.648245544245	1
0	75716	12163.707904104518	0
0	75730	12165.647745526673	1
0	75731	12166.417611523418	0
0	75735	12166.874268387987	1
0	75737	12166.882769518062	2
0	75739	12166.965206214109	3
0	75740	12167.306361259314	2
0	75756	12168.977980910416	3
0	75760	12170.101337219894	2
0	75771	12171.26915917141	3
0	75778	12171.919797793962	4
0	75780	12172.008584199491	5
0	75785	12172.255667489385	6
0	75786	12172.534533805194	5
0	75795	12173.296785391982	6
0	75796	12173.860516906183	5
0	75799	12174.660445017021	4
0	75803	12175.283283341842	5
0	75804	12175.380021049527	4
0	75808	12175.482346172886	5
0	75809	12176.287227088425	4
0	75813	12176.305365342373	5
0	75815	12176.435265563016	6
0	75816	12177.273509383041	5
0	75819	12177.841733627885	4
0	75823	12178.456744685754	5
0	75825	12178.721573800304	6
0	75826	12178.806636366926	5
0	75829	12179.341644456496	4
0	75833	12179.370800138721	5
0	75834	12180.231070075536	4
0	75838	12180.286854554202	5
0	75840	12180.738373205195	6
0	75842	12180.827615561265	7
0	75843	12181.104229104545	6
0	75846	12181.66131028638	5
0	75850	12182.406671728819	6
0	75851	12182.615113707984	5
0	75855	12183.101558482738	6
0	75856	12183.32214104601	5
0	75859	12183.953391686434	4
0	75863	12184.370113297459	5
0	75865	12184.543718998071	6
0	75866	12184.566745091349	5
0	75870	12185.043692825612	6
0	75871	12185.343840843046	5
0	75877	12185.755376740964	6
0	75881	12186.869092784429	5
0	75885	12186.890927173653	6
0	75892	12188.066402483042	7
0	75893	12188.360664694084	6
0	75897	12188.89090947405	7
0	75898	12189.278104948744	6
0	75902	12189.551671825544	7
0	75908	12190.942096396794	6
0	75917	12191.84981101324	7
0	75918	12192.765612006538	6
0	75927	12193.420386830765	7
0	75928	12193.843231217541	6
0	75931	12194.409673271818	5
0	75934	12195.202230235726	4
0	75937	12196.16144430882	3
0	75941	12196.878219848797	4
0	75942	12197.124325176912	3
0	75945	12197.663017430321	2
0	75949	12197.767755003722	3
0	75951	12197.981108972632	4
0	75953	12198.281642110572	5
0	75954	12198.469642132359	4
0	75958	12199.099859089683	5
0	75959	12199.377920284845	4
0	75962	12200.352010330442	3
0	75966	12200.374113551742	4
0	75968	12200.449739987547	5
0	75969	12200.78969188484	4
0	75973	12200.878127013349	5
0	75974	12201.609871769674	4
0	75978	12201.675431361525	5
0	75980	12201.687645367011	6
0	75981	12202.515772285942	5
0	75985	12203.153439615642	6
0	75986	12203.452249505674	5
0	75989	12204.143020333327	4
0	75993	12204.312917684981	5
0	75995	12204.405504667866	6
0	75996	12204.864697701275	5
0	75999	12205.804985904578	4
0	76007	12206.675196573116	3
0	76013	12207.000729082828	4
0	76015	12207.324066239431	5
0	76020	12207.592931610712	6
0	76022	12207.967040812123	7
0	76023	12208.130416786602	6
0	76027	12208.454157822434	7
0	76028	12208.55824667879	6
0	76032	12208.686023498145	7
0	76036	12209.393063113751	8
0	76041	12209.729175001762	9
0	76043	12209.798128291118	10
0	76044	12210.091111535836	9
0	76053	12211.297825044117	10
0	76054	12211.345779966867	9
0	76062	12212.704222852203	8
0	76071	12214.288493115309	9
0	76072	12214.474912853704	8
0	76081	12216.097375857641	9
0	76082	12216.209336943065	8
0	76090	12218.012951739577	7
0	76093	12218.556952146513	6
0	76101	12220.414226145649	5
0	76110	12221.803283407151	6
0	76111	12221.970256766004	5
0	76114	12222.576873579181	4
0	76118	12222.762597004043	5
0	76119	12223.548160972146	4
0	76122	12224.025803281206	3
0	76125	12224.909723655905	2
0	76129	12225.085381447372	3
0	76131	12225.428191521165	4
0	76132	12225.826448522673	3
0	76135	12226.501028784576	2
0	76138	12227.277654996027	1
0	76142	12227.683992766584	2
0	76144	12228.075848259436	3
0	76145	12228.195061014524	2
0	76153	12229.83659493935	1
0	76157	12230.002122927478	2
0	76159	12230.138193405414	3
0	76161	12230.257340371062	4
0	76168	12230.546673201862	5
0	76169	12231.338377479349	4
0	76178	12232.681735276494	5
0	76179	12233.138609955671	4
0	76182	12233.889394150979	3
0	76191	12234.9763655138	4
0	76193	12235.587482107028	5
0	76194	12235.681848333615	4
0	76198	12235.690714551956	5
0	76199	12236.126471102263	4
0	76202	12236.722208087637	3
0	76211	12237.432942893955	4
0	76212	12238.047012454436	3
0	76218	12238.404773197743	4
0	76223	12238.716086763172	5
0	76224	12239.543051306043	4
0	76230	12239.735061124697	5
0	76235	12240.658049507153	6
0	76236	12241.380525947619	5
0	76247	12242.581972944516	6
0	76262	12244.848264700169	7
0	76268	12245.602267932497	6
0	76277	12246.800431308138	7
0	76279	12246.89304009817	8
0	76280	12247.379312942807	7
0	76291	12248.352155832592	8
0	76345	12256.549019555257	7
0	76348	12256.999229887755	6
0	76356	12257.704603275691	7
0	76361	12258.145379938806	8
0	76365	12258.981601068399	7
0	76369	12259.043491288348	8
0	76371	12259.20000058674	9
0	76377	12259.814078514951	8
0	76386	12260.626369548045	9
0	76388	12260.890544009312	10
0	76389	12261.218092106444	9
0	76398	12262.442357277538	10
0	76399	12262.462536000156	9
0	76402	12263.209237014338	8
0	76408	12263.708454461057	9
0	76412	12264.903359553985	8
0	76421	12265.495958168263	9
0	76422	12265.956115679279	8
0	76430	12267.352080282405	7
0	76436	12267.471144764562	8
0	76438	12267.890101220373	9
0	76442	12269.015613392344	8
0	76448	12269.708335156675	9
0	76452	12270.329845565906	8
0	76456	12270.756626057714	9
0	76457	12270.960912078548	8
0	76463	12271.397505938549	9
0	76467	12272.015811183233	8
0	76471	12272.5507634445	9
0	76472	12272.751808701944	8
0	76475	12273.697023054095	7
0	76484	12275.31643022334	8
0	76485	12275.363628484843	7
0	76489	12275.828357666744	8
0	76491	12276.343639099899	9
0	76492	12276.354477818099	8
0	76495	12277.353280268212	7
0	76498	12277.958255800952	6
0	76502	12278.180604104751	7
0	76503	12278.363792239244	6
0	76507	12278.773146070568	7
0	76508	12279.327277522183	6
0	76514	12279.936782697046	7
0	76526	12280.68916039095	8
0	76533	12281.438055099942	9
0	76562	12285.984718768273	8
0	76568	12286.503447124091	9
0	76573	12287.179777123762	10
0	76574	12287.482441712285	9
0	76582	12288.932312603549	8
0	76585	12289.387959280026	7
0	76591	12289.706081609606	8
0	76596	12290.091964598778	9
0	76598	12290.131997978541	10
0	76600	12290.161496001729	11
0	76606	12291.20797831204	10
0	76609	12291.670358230287	9
0	76623	12293.285027841658	10
0	76624	12293.354125300396	9
0	76632	12294.873389108732	8
0	76641	12296.054575097964	9
0	76642	12296.155779099903	8
0	76650	12297.745255140701	7
0	76659	12298.678196724583	8
0	76670	12299.462037272587	9
0	76675	12300.044816568703	10
0	76715	12305.369701871237	11
0	76726	12307.080944372361	10
0	76744	12310.007081489237	9
0	76753	12311.424324826863	10
0	76754	12311.594264401141	9
0	76760	12311.791229501057	10
0	76765	12312.519264147544	11
0	76766	12312.749911477994	10
0	76772	12313.282116290291	11
0	76777	12313.787392167987	12
0	76778	12314.08871461383	11
0	76782	12314.247447622115	12
0	76783	12314.669090273575	11
0	76786	12315.104218197632	10
0	76789	12315.941946651339	9
0	76793	12316.140673667676	10
0	76794	12316.636009374652	9
0	76800	12316.959609414649	10
0	76804	12318.445534636937	9
0	76810	12318.977700089317	10
0	76814	12319.710451410589	9
0	76818	12319.988954658487	10
0	76820	12320.345244728593	11
0	76821	12320.470536073874	10
0	76825	12320.82744546563	11
0	76826	12321.136922330986	10
0	76830	12321.383025568395	11
0	76831	12321.8944662634	10
0	76834	12322.309399393778	9
0	76838	12322.345515068568	10
0	76839	12323.272560095619	9
0	76842	12323.797778614582	8
0	76851	12325.278559982535	9
0	76852	12325.288886735374	8
0	76860	12326.318143162895	7
0	76866	12326.48476287795	8
0	76871	12326.863441711902	9
0	76872	12327.665371470963	8
0	76886	12329.458904112125	9
0	76887	12330.144853640319	8
0	76903	12331.934966665424	9
0	76912	12333.546779947327	8
0	76925	12335.575119761908	7
0	76929	12335.608393775476	8
0	76935	12337.123470448255	7
0	76944	12338.079617445118	8
0	76945	12338.626061269845	7
0	76953	12340.346292998799	6
0	76962	12341.230231050702	7
0	76963	12341.886501278233	6
0	76967	12341.898886750399	7
0	76974	12342.992899672886	8
0	76975	12343.473226833547	7
0	76983	12344.748787617142	6
0	76986	12345.684111755638	5
0	76989	12346.244729382562	4
0	76993	12346.334219440547	5
0	76995	12346.498868214998	6
0	76997	12346.668350337487	7
0	76999	12347.013460468673	8
0	77000	12347.046338879567	7
0	77004	12347.14863358647	8
0	77005	12347.65719142828	7
0	77008	12348.190209395456	6
0	77011	12348.636566946068	5
0	77015	12348.997259407436	6
[...]
9	127266	20677.183810931906	0
9	127299	20680.759284019328	1
9	127309	20682.153549199828	2
9	127311	20682.513541015561	1
9	127320	20683.022060406416	0
9	127338	20685.264558673555	1
9	127340	20685.765953475898	0
9	127371	20690.541617203176	1
9	127373	20690.94356709528	0
9	127386	20692.422924935118	1
9	127388	20692.736420761101	0
9	127396	20693.409105402975	1
9	127398	20693.726367621252	0
9	127527	20711.213637388361	1
9	127539	20712.408303419969	0
9	127559	20715.379912336036	1
9	127561	20715.86090103314	0
9	127580	20717.278002775931	1
9	127582	20717.495932282702	0
9	127605	20720.85686324486	1
9	127609	20721.225344590298	0
9	127634	20723.696214116694	1
9	127636	20723.767982478533	0
9	127644	20725.086076941578	1
9	127646	20725.194175998856	0
9	127662	20728.121380951771	1
9	127664	20729.006603502384	0
9	127667	20729.051998674547	1
9	127669	20729.118008574886	0
9	128062	20784.662341160937	1
9	128064	20784.893853074125	0
9	128337	20823.244885072753	1
9	128339	20823.669551143586	0
9	128871	20903.758023188208	1
9	128873	20903.859738438416	0
9	128923	20910.921073906999	1
9	128927	20911.015383431557	0
9	129006	20921.754981874945	1
9	129008	20922.262137151569	0
9	129045	20927.541180222706	1
9	129047	20927.920655406911	0
9	129052	20928.311115092124	1
9	129055	20928.968623240749	2
9	129057	20928.973598907426	1
9	129062	20929.999083411734	0
9	129077	20931.725010116483	1
9	129079	20931.84225925849	0
9	129097	20934.500952667454	1
9	129104	20935.050568159923	0
9	129144	20939.661277460531	1
9	129146	20939.837449500823	0
9	129741	21022.397857662425	1
9	129743	21022.602272262029	0
9	129758	21024.976308523998	1
9	129760	21025.260506424754	0
9	129865	21040.179831926937	1
9	129867	21040.341155897135	0
9	129870	21040.622567771601	1
9	129872	21040.853973279657	0
9	130336	21108.056326708334	1
9	130340	21108.608169798114	0
9	130564	21138.761535384034	1
9	130590	21141.424487537752	0
9	130742	21164.43245191029	1
9	130746	21164.49727116909	0
9	131881	21325.829986452918	1
9	131883	21326.068314604923	0
9	131886	21326.394685098716	1
9	131888	21327.259135318821	0
9	131906	21329.700254230295	1
9	131911	21330.40440742092	0
9	131917	21331.212392445933	1
9	131919	21331.541809686982	0
9	131956	21335.810129638435	1
9	131958	21336.57115711281	0
9	132270	21381.048710552788	1
9	132272	21381.187933318904	0
9	132290	21383.532861323839	1
9	132292	21383.657269610126	0
9	132370	21394.634933030044	1
9	132377	21395.899966265533	0
9	133089	21495.739560875576	1
9	133091	21496.213362782458	0
9	133464	21548.927111672799	1
9	133466	21549.024085015954	0
9	133477	21550.323205816516	1
9	133479	21550.463814278793	0
9	133509	21554.656903788217	1
9	133511	21554.732604522584	0
9	134337	21673.804051795043	1
9	134339	21673.892949601937	0
9	134396	21680.644442354423	1
9	134398	21681.064204583001	0
9	136088	21966.584428573197	1
9	136091	21967.136261493417	2
9	136093	21967.348361431144	1
9	136095	21967.583247132881	0
9	136129	21971.05363087522	1
9	136132	21971.87528963972	2
9	136134	21972.492757090845	1
9	136139	21972.801919016092	0
9	136210	21983.164853790478	1
9	136212	21983.518935541531	0
9	136313	21997.371441238404	1
9	136315	21997.671216614546	0
9	136348	22002.712323282176	1
9	136350	22003.021693627476	0
9	136620	22042.627881092649	1
9	136622	22042.667303947341	0
9	136645	22046.135005179911	1
9	136647	22046.254126318937	0
9	138587	22370.603350210876	1
9	138591	22371.137511154321	0
9	138778	22398.180108120608	1
9	138788	22399.428834982426	0
9	138813	22403.234064072687	1
9	138815	22403.836824811432	0
9	138928	22419.333642251036	1
9	138930	22419.804644600769	0
9	138933	22419.962186784242	1
9	138935	22420.416901154344	0
9	139534	22532.253143719497	1
9	139536	22532.654841741716	0
9	139621	22542.42145656604	1
9	139623	22542.446163105187	0
9	140896	22758.782148817947	1
9	140898	22758.880171538721	0
9	141169	22797.626474208921	1
9	141171	22797.633224043256	0
9	141227	22806.408137244011	1
9	141229	22806.842896965535	0
9	141239	22807.583479524196	1
9	141241	22807.702493836944	0
9	141554	22848.387929130927	1
9	141556	22848.431604542386	0
9	141559	22848.793805732973	1
9	141561	22848.796841146369	0
9	141581	22851.884368606725	1
9	141586	22852.803116843323	0
9	141599	22854.891174821717	1
9	141606	22856.241302554905	0
9	141611	22856.502157997501	1
9	141615	22856.604285013673	0
9	141669	22864.483145313916	1
9	141671	22865.077249912727	0
9	141699	22869.097030123064	1
9	141703	22869.627211167162	0
9	141731	22873.434813863804	1
9	141735	22873.591319897458	0
9	143235	23094.976840702616	1
9	143236	23095.112935544269	0
9	143250	23097.654709713391	1
9	143251	23097.813945839241	0
9	143255	23098.677341664595	1
9	143256	23098.854154652401	0
9	144211	23266.542655446958	1
9	144213	23266.61672772183	0
9	144226	23268.133827064717	1
9	144228	23268.51915846965	0
9	144251	23271.423973946059	1
9	144253	23271.480526676919	0
9	144462	23310.619178825838	1
9	144464	23310.964385464046	0
9	144740	23396.524375932238	1
9	144742	23396.642791208389	0
9	144750	23398.345976082369	1
9	144752	23398.405959352566	0
9	144760	23400.02896372815	1
9	144762	23400.284545237947	0
9	144770	23401.298946909368	1
9	144772	23401.427943931223	0
9	144825	23408.913939126669	1
9	144829	23409.169539710126	0
9	144859	23412.633057450871	1
9	144861	23412.650960088511	0
9	144874	23414.567466582913	1
9	144879	23415.709294591586	0
9	144899	23418.30647549084	1
9	144901	23418.61017621176	0
9	144904	23419.057921224642	1
9	144906	23419.521060784309	0
9	144935	23422.401732962621	1
9	144937	23422.472291133835	0
9	144940	23422.86666654809	1
9	144942	23422.905757955038	0
9	145375	23485.228136621273	1
9	145384	23486.249367965603	0
9	145403	23488.457558799066	1
9	145405	23488.528393392959	0
9	145408	23489.256116477955	1
9	145411	23490.000397127071	2
9	145413	23490.026169265689	1
9	145415	23490.627832457841	0
9	146567	23650.773575212961	1
9	146569	23651.215224748608	0
9	146946	23725.223035791061	1
9	146948	23725.362764136313	0
9	146951	23725.69073795505	1
9	146953	23725.724296698361	0
9	146958	23726.178240071294	1
9	146960	23726.502136033811	0
9	147013	23733.582771946593	1
9	147019	23733.945964800925	0
9	147081	23742.02462988902	1
9	147083	23742.456982938399	0
9	147112	23746.421055454678	1
9	147114	23746.607747279363	0
9	147132	23748.664413014019	1
9	147134	23748.924663220047	0
9	147354	23779.733379409937	1
9	147359	23780.930435947214	0
9	147507	23801.123454252406	1
9	147509	23801.225353785912	0
9	147537	23805.225067465715	1
9	147539	23805.386718019305	0
9	147569	23809.242839888168	1
9	147571	23809.286097171387	0
9	148581	23959.116552513297	1
9	148583	23959.39612872605	0
9	148604	23962.107186204679	1
9	148608	23962.630847811957	0
9	148739	23979.266342292464	1
9	148741	23979.491127477184	0
9	148812	23991.213005356974	1
9	148814	23991.661134533138	0
9	148820	23992.757972691458	1
9	148825	23993.287625694078	0
9	149468	24093.488946641677	1
9	149470	24093.494228038513	0
9	149940	24162.321436773597	1
9	149944	24162.72539626297	0
9	149970	24166.335535846402	1
9	149972	24166.337440479819	0
9	150085	24184.346228855527	1
9	150087	24184.354770430913	0
9	150737	24274.404626283286	1
9	150740	24275.008109308224	2
9	150744	24275.638776150695	1
9	150749	24275.848755456665	0
9	150865	24290.573489422262	1
9	150868	24291.183321907329	2
9	150870	24291.409079941126	1
9	150875	24292.300792235346	0
9	150890	24293.984852119167	1
9	150892	24294.568848488451	0
9	150897	24294.755335928504	1
9	150899	24294.765724716715	0
9	150914	24296.853376870141	1
9	150918	24297.04712440551	0
9	150953	24301.5829430915	1
9	150957	24301.985798168284	0
9	150960	24302.154709682991	1
9	150962	24302.571768692771	0
9	151074	24317.466120874234	1
9	151076	24317.933074083136	0
9	151079	24318.048213910223	1
9	151082	24318.8306689526	2
9	151087	24319.403804455839	1
9	151089	24319.571711068412	0
9	151160	24330.239358011126	1
9	151162	24330.353354150856	0
9	151257	24344.316342635876	1
9	151259	24344.469462157245	0
9	151277	24346.536936577042	1
9	151279	24346.797567764985	0
9	151290	24349.343034257838	1
9	151292	24349.518154579556	0
9	151307	24351.733696151762	1
9	151309	24351.76360424922	0
9	151906	24435.833246873094	1
9	151908	24436.271059755791	0
9	151923	24438.331841165673	1
9	151925	24438.732261610255	0
9	151970	24444.239801542749	1
9	151973	24445.018860625624	2
9	151975	24445.056034821692	1
9	151978	24445.98735362688	2
9	151980	24446.002155799381	1
9	151982	24446.264301125969	0
9	152066	24456.378056022348	1
9	152069	24457.023888628008	2
9	152071	24457.118397466398	1
9	152073	24457.156806646069	0
9	152076	24457.497863898017	1
9	152078	24457.743194434971	0
9	152081	24458.189532465078	1
9	152083	24458.337907021546	0
9	152146	24466.836699329138	1
9	152148	24466.983481334066	0
9	152174	24471.192897645532	1
9	152176	24471.194867038762	0
9	152228	24478.523468104897	1
9	152230	24478.742108559092	0
9	152233	24479.173767358165	1
9	152235	24479.713539416021	0
9	152238	24480.075323731413	1
9	152240	24480.086479272685	0
9	152250	24481.797355159752	1
9	152252	24481.868177481239	0
9	152255	24482.36772564315	1
9	152257	24482.371302873094	0
9	152277	24484.672780477589	1
9	152279	24484.924448855488	0
9	152287	24485.803959100608	1
9	152289	24486.249677307158	0
9	152302	24487.631505558181	1
9	152304	24488.017481320438	0
9	152307	24488.12446242688	1
9	152309	24488.28596715183	0
9	152736	24550.838818680362	1
9	152738	24550.985088739817	0
9	152746	24551.984911831941	1
9	152748	24552.006142235436	0
9	152771	24556.146039076297	1
9	152775	24556.862900801129	0
9	152828	24564.056761997758	1
9	152832	24564.288342134448	0
9	152906	24574.589664838842	1
9	152908	24574.898868029784	0
9	153106	24600.855781085701	1
9	153108	24600.99633583438	0
9	153202	24615.979447650078	1
9	153204	24616.439910202893	0
9	153462	24654.864628957778	1
9	153464	24655.305127779045	0
9	153827	24702.740644177525	1
9	153829	24702.943216779641	0
9	153849	24705.248300405556	1
9	153851	24705.394356373566	0
9	153859	24706.42069630582	1
9	153863	24706.776929363149	0
9	153866	24707.073390401538	1
9	153868	24707.664577970568	0
9	153899	24712.879084727086	1
9	153901	24712.975163100268	0
9	153906	24713.682888348319	1
9	153909	24714.090408710448	2
9	153911	24714.632357225149	1
9	153913	24714.763610610285	0
9	153931	24717.061403163673	1
9	153936	24717.581446141714	2
9	153938	24717.649167596711	1
9	153941	24718.22821576019	2
9	153943	24718.440127818968	1
9	153945	24718.463928567883	0
9	154040	24732.17620484085	1
9	154042	24732.900508934745	0
9	154050	24733.593451571383	1
9	154052	24733.593481111517	0
9	154067	24735.556187483075	1
9	154069	24736.130604212865	0
9	154072	24736.398539106793	1
9	154074	24736.415006448309	0
9	154100	24740.908773800603	1
9	154102	24741.425790545302	0
9	154105	24741.510622035631	1
9	154109	24741.96252765832	0
9	154672	24823.653278904374	1
9	154674	24823.805158009238	0
9	156191	25065.745359553639	1
9	156193	25066.235618188637	0
9	156199	25067.123165209601	1
9	156201	25067.266664800845	0
9	156226	25070.63811017383	1
9	156228	25070.781710135636	0
9	156251	25073.983612928363	1
9	156253	25074.139701918799	0
9	156258	25074.478429367682	1
9	156260	25075.075492587548	0
9	156263	25075.160856447564	1
9	156265	25075.647531894916	0
9	156268	25075.997359951222	1
9	156270	25076.107267522756	0
9	156277	25076.605326535096	1
9	156279	25077.136574047224	0
9	156282	25077.601831474257	1
9	156284	25078.205956841474	0
9	156297	25079.588550054151	1
9	156299	25079.617329347391	0
9	156490	25108.285153877095	1
9	156492	25108.724308362495	0
9	156495	25109.043187895336	1
9	156497	25109.306020863115	0
9	156664	25132.781710464196	1
9	156666	25132.981902143789	0
9	156686	25135.766761226827	1
9	156691	25136.250789936354	0
9	157666	25309.659231863295	1
9	157670	25310.008710142572	0
9	158207	25426.999966131197	1
9	158209	25427.295939527565	0
9	158220	25428.523250623187	1
9	158221	25428.62651096026	0
9	159284	25612.764468807091	1
9	159286	25612.805335104081	0
9	159360	25622.740614895633	1
9	159362	25622.864028180855	0
9	159706	25672.019152925925	1
9	159708	25672.087198816859	0
9	160060	25727.896340175251	1
9	160062	25728.011231001963	0
9	160105	25734.371305314822	1
9	160107	25734.642714867468	0
9	160127	25737.605668601625	1
9	160132	25738.225699840159	2
9	160134	25738.226616737734	1
9	160136	25738.446300727431	0
9	160169	25742.770541653037	1
9	160172	25743.627287433576	2
9	160174	25743.703199100449	1
9	160182	25744.461330444599	2
9	160184	25744.913755942238	1
9	160186	25745.151277332287	0
9	160192	25745.760415286431	1
9	160194	25745.894136282068	0
9	160231	25750.907874510903	1
9	160236	25751.408987102565	2
9	160238	25751.640218250864	1
9	160240	25751.843105598268	0
9	160246	25752.342813701136	1
9	160248	25752.552332524052	0
9	160595	25799.737916300049	1
9	160599	25799.924478292849	0
9	160607	25800.828648968948	1
9	160609	25800.965998692899	0
9	160764	25820.585866152843	1
9	160766	25820.677863772725	0
9	161112	25871.933834126007	1
9	161114	25872.168116258185	0
9	161120	25873.103654165028	1
9	161128	25874.460172923983	0
9	161186	25882.690440368674	1
9	161188	25883.031596039529	0
9	161254	25891.347564297006	1
9	161256	25891.598024448547	0
9	162829	26123.838229391526	1
9	162831	26124.231170953177	0
9	163107	26180.928118349568	1
9	163109	26180.968792781913	0
9	163361	26219.84153091682	1
9	163366	26220.582839113655	0
9	163381	26222.296133028882	1
9	163383	26222.346050867747	0
9	163386	26222.705724690462	1
9	163388	26222.854914609396	0
9	163406	26225.014384433794	1
9	163408	26225.0816974176	0
9	163441	26230.092835970389	1
9	163443	26230.928760740824	0
9	164349	26374.668410586012	1
9	164351	26375.079350793603	0
9	164359	26375.491828336152	1
9	164361	26375.877190877021	0
9	164937	26458.137247770044	1
9	164941	26458.839601173303	0
9	164952	26460.234577438426	1
9	164956	26461.312679092878	0
9	165248	26506.278914818075	1
9	165255	26506.94454039083	0
9	165301	26513.121849418991	1
9	165305	26513.948138003168	0
9	165308	26514.088576598559	1
9	165310	26514.57857069685	0
9	165313	26514.837259698566	1
9	165316	26515.343730984954	2
9	165318	26515.47214652578	1
9	165320	26515.586718342435	0
9	165323	26515.860610306822	1
9	165325	26516.412499747368	0
9	165328	26516.56404953762	1
9	165331	26516.965616917191	2
9	165333	26517.727695656079	1
9	165336	26517.950760499807	2
9	165338	26518.027624653815	1
9	165340	26518.335658683384	0
9	165483	26539.19936368158	1
9	165485	26539.202541347875	0
9	165490	26539.899161900952	1
9	165492	26540.043885077221	0
9	165497	26540.437830999493	1
9	165499	26540.713314581662	0
9	165525	26544.092063142918	1
9	165527	26544.093459719301	0
9	165551	26546.918305905676	1
9	165553	26547.226289447962	0
9	166021	26612.29645077041	1
9	166026	26613.10073404832	0
9	166051	26616.514269547534	1
9	166053	26616.829564828192	0
9	166071	26619.551749155853	1
9	166073	26619.860713469536	0
9	166563	26685.325796639015	1
9	166565	26685.460025810695	0
9	166898	26731.980378880055	1
9	166902	26732.358034572028	0
9	166919	26734.107957370469	1
9	166921	26734.195323532347	0
9	166940	26736.56325703825	1
9	166942	26736.601054132519	0
9	169200	27055.445266341031	1
9	169217	27057.557421473898	0
9	169564	27139.018014922469	1
9	169566	27139.244274102225	0
9	169594	27143.190671122131	1
9	169596	27143.594875844415	0
9	169612	27145.728739268902	1
9	169614	27145.955394848821	0
9	169948	27208.456168020918	1
9	169950	27208.500658248373	0
9	170114	27230.684307553136	1
9	170119	27232.053452818355	0
9	170551	27297.978395036295	1
9	170553	27298.13385796455	0
9	170604	27305.345069748921	1
9	170609	27306.618292536517	0
9	171986	27524.601316465353	1
9	171988	27524.765969651241	0
9	172041	27533.072175494123	1
9	172043	27533.205255634394	0
9	172075	27537.019566921339	1
9	172077	27537.473672147745	0
9	172367	27581.272747891793	1
9	172371	27582.187171282234	0
9	172382	27583.383385155943	1
9	172384	27583.795379734873	0
9	172850	27654.22723988758	1
9	172855	27654.901607342748	0
9	172871	27656.836584945326	1
9	172873	27657.190539618236	0
9	173287	27712.131296984177	1
9	173290	27712.580306286342	2
9	173294	27713.144872302566	1
9	173296	27713.235642800049	0
9	173309	27714.785925093364	1
9	173311	27715.39979768287	0
9	173327	27717.490877829842	1
9	173329	27717.714467401888	0
9	173342	27719.564783447307	1
9	173344	27719.713437130345	0
9	174106	27850.298560421624	1
9	174108	27850.453022976216	0
9	174178	27861.0213308934	1
9	174180	27861.18315768236	0
9	174212	27865.345677499833	1
9	174214	27865.501891624761	0
9	174244	27869.519080136051	1
9	174246	27869.577344700875	0
9	174249	27870.064885531352	1
9	174251	27870.183099387818	0
9	174673	27929.99313640169	1
9	174677	27930.457015900407	0
9	174693	27932.566878006589	1
9	174703	27934.085095528476	0
9	174709	27935.197914465731	1
9	174715	27935.474549538761	0
9	174984	27974.423633574164	1
9	174986	27974.429748627479	0
9	175006	27976.944233044871	1
9	175008	27977.260099935668	0
9	175029	27980.661847673572	1
9	175031	27980.861417931696	0
9	175054	27983.930961522583	1
9	175056	27984.138295065048	0
9	175071	27985.655369549833	1
9	175075	27985.99670545484	0
9	175080	27986.200396527985	1
9	175082	27986.380803691063	0
9	175085	27986.921828997537	1
9	175087	27986.942643646935	0
9	175209	28006.355410512286	1
9	175213	28006.670394283602	0
9	175531	28051.395449472894	1
9	175535	28051.668964576534	0
9	175543	28052.615210647299	1
9	175545	28052.75560759852	0
9	176024	28142.635769412787	1
9	176026	28142.729663950749	0
9	176069	28147.927728938013	1
9	176071	28148.150554009306	0
9	176126	28156.381299026804	1
9	176128	28156.729091250652	0
9	176155	28159.8863043099	1
9	176158	28160.490188509907	2
9	176163	28161.168946419779	3
9	176165	28161.818740301384	2
9	176170	28161.946759606828	1
9	176172	28162.187745716117	0
9	176180	28163.04790858634	1
9	176182	28163.382713704234	0
9	176185	28163.554579303071	1
9	176187	28163.554949217569	0
9	176201	28166.11519472509	1
9	176203	28166.1268959543	0
9	176221	28169.330503006589	1
9	176223	28169.753614563366	0
9	176263	28175.264908988943	1
9	176265	28175.42491643812	0
9	176276	28176.93174442731	1
9	176278	28177.200142476289	0
9	176563	28218.453549520662	1
9	176568	28219.298800154105	0
9	176982	28296.579073084944	1
9	176984	28296.623169790637	0
9	177057	28308.821632509065	1
9	177059	28309.30982312569	0
9	177324	28359.424784214762	1
9	177326	28359.674180165972	0
9	178532	28610.091967488932	1
9	178536	28610.411134993672	0
9	178717	28658.007115678179	1
9	178726	28659.353471610825	0
9	178797	28669.278321837136	1
9	178799	28669.302988185461	0
9	178836	28674.324832150213	1
9	178838	28674.668865559606	0
9	178841	28674.931040371455	1
9	178843	28675.332232939216	0
9	179094	28712.900844649233	1
9	179096	28713.113631701684	0
9	180769	28983.472739086705	1
9	180771	28983.572752910572	0
9	181090	29085.527974159341	1
9	181099	29086.178484820191	0
9	181244	29111.285410688473	1
9	181246	29111.428006841103	0
9	181600	29161.826639732408	1
9	181602	29161.906449936272	0
9	181619	29163.41335765679	1
9	181623	29163.827546664846	0
9	181644	29166.773405814837	1
9	181646	29167.315855030427	0
9	181649	29167.352964196974	1
9	181651	29167.51395946204	0
9	181682	29171.87378727404	1
9	181684	29171.902326556759	0
9	182021	29219.32952504596	1
9	182023	29219.580134604151	0
9	182640	29308.611077458711	1
9	182641	29309.00324771487	0
9	183064	29428.477837996879	1
9	183066	29428.536497115699	0
9	183132	29436.438141959853	1
9	183135	29437.437407411349	2
9	183137	29437.833614367127	1
9	183139	29437.985230661324	0
9	183636	29510.59440539788	1
9	183638	29510.731527856337	0
9	183661	29514.55097486774	1
9	183663	29514.563576606821	0
9	183783	29532.090164735464	1
9	183786	29532.794895144382	2
9	183788	29533.302488944376	1
9	183790	29533.600548660901	0
9	183801	29534.82181569712	1
9	183803	29534.9497000241	0
9	183828	29538.585265308216	1
9	183830	29538.732873147892	0
9	183848	29541.242021704435	1
9	183850	29541.476388371941	0
9	183856	29542.38807522875	1
9	183858	29542.686234366508	0
9	184243	29619.888586387985	1
9	184245	29620.032487577817	0
9	184405	29641.09700335657	1
9	184412	29641.762352277005	0
9	185562	29824.56639454553	1
9	185564	29824.614971630805	0
9	186547	29963.433512539925	1
9	186549	29963.564638065063	0

