version 2
run First_exit_2-15-20191023-00:19:41-5116
attr configname First_exit_2
attr datetime 20191023-00:19:41
attr experiment First_exit_2
attr inifile omnetpp.ini
attr iterationvars ""
attr iterationvarsf ""
attr measurement ""
attr network ResponseTimeNetwork
attr processid 5116
attr repetition 15
attr replication #15
attr resultdir results
attr runnumber 15
attr seedset 15
param **.Source.interArrivalTime exponential(4s)
param **.jobPriority bernoulli(0.4)
param **.PS.serviceTimeU1 "uniform(0.4s, 1.0s)"
param **.PS.serviceTimeU2 "uniform(1s, 1.2s)"
param **.SS1.serviceTime exponential(0.4s)
param **.SS2.serviceTime exponential(0.8s)
param **.PS.exitProbability bernoulli(0.2)

vector 0 ResponseTimeNetwork.SS1 queueLength:vector ETV
attr interpolationmode sample-hold
attr title "queue length, vector"
vector 1 ResponseTimeNetwork.SS2 queueLength:vector ETV
attr interpolationmode sample-hold
attr title "queue length, vector"
vector 2 ResponseTimeNetwork.QueueU1 queueLength:vector ETV
attr interpolationmode sample-hold
attr title "queue length, vector"
vector 3 ResponseTimeNetwork.QueueU2 queueLength:vector ETV
attr interpolationmode sample-hold
attr title "queue length, vector"
vector 4 ResponseTimeNetwork.sink lifeTimeU1:vector ETV
attr interpolationmode none
attr title "lifetime of arrived jobs U1, vector"
attr unit s
vector 5 ResponseTimeNetwork.sink lifeTime:vector ETV
attr interpolationmode none
attr title "lifetime of arrived jobs, vector"
attr unit s
vector 6 ResponseTimeNetwork.sink lifeTimeU2:vector ETV
attr interpolationmode none
attr title "lifetime of arrived jobs U2, vector"
attr unit s
0	0	0	0
0	5887	3734.405397380843	1
0	5889	3734.934448115398	0
0	27452	17705.954115644575	1
0	27454	17706.105304270481	0
1	0	0	0
1	2220	1368.378180913567	1
1	2221	1368.896694227049	0
1	2360	1459.524601362658	1
1	2364	1460.180536824699	0
1	3475	2224.899005952037	1
1	3476	2225.380741910137	0
1	6685	4184.46855596203	1
1	6689	4184.990388306077	0
1	11990	7651.287275301742	1
1	11991	7651.524167825365	0
1	12907	8244.88031150294	1
1	12911	8245.587574530854	0
1	13535	8666.145145155626	1
1	13536	8666.262001671517	0
1	14405	9160.42219970661	1
1	14406	9160.438040352053	0
1	16080	10134.801700966572	1
1	16081	10135.286404445882	0
1	16095	10136.808119542452	1
1	16096	10137.066951578554	0
1	16485	10410.650655344873	1
1	16486	10411.219837207257	0
1	18062	11362.050110828621	1
1	18071	11363.941349406886	0
1	19355	12199.220299661561	1
1	19359	12200.440130986919	0
1	22880	14607.771434588393	1
1	22881	14608.060229765703	0
1	25055	16169.518858413138	1
1	25056	16170.321485262048	0
1	36545	23452.344943200325	1
1	36546	23452.842960020976	0
1	37490	24070.167134382625	1
1	37491	24071.04160770637	0
1	39395	25249.639238335261	1
1	39401	25252.044821077673	0
1	42075	26721.592595191914	1
1	42076	26722.359943249051	0
1	42702	27132.371404893364	1
1	42704	27132.611828309395	0
1	45575	29159.370350028602	1
1	45576	29159.588520841565	0
2	0	0	0
2	30	17.016994075027	1
2	33	17.680126909176	0
2	50	21.074901583437	1
2	51	21.307225635911	0
2	55	21.570806151392	1
2	56	22.3063516768	0
2	75	29.785966230987	1
2	76	30.242367041088	0
2	110	45.681770125784	1
2	111	45.783793868936	0
2	145	57.852855174511	1
2	146	58.111831302495	0
2	255	135.412797479553	1
2	256	135.495996151474	0
2	465	289.300427771154	1
2	468	290.014419692363	0
2	475	291.549633144878	1
2	478	291.853073690207	0
2	525	318.196942525334	1
2	526	318.26827171894	0
2	545	326.196939694737	1
2	546	327.105159940654	0
2	670	434.507226732299	1
2	671	435.170246501991	0
2	675	435.508828375316	1
2	676	435.960286057813	0
2	680	436.604283044387	1
2	681	436.626219366517	0
2	690	437.357392874378	1
2	691	437.789203050572	0
2	695	438.123384808264	1
2	696	438.732263101337	0
2	710	442.086237467077	1
2	711	442.340863402123	0
2	740	457.415419804025	1
2	741	457.920216649086	0
2	760	465.142453545967	1
2	761	465.365098507999	0
2	840	510.364231540603	1
2	841	511.098939543971	0
2	890	536.541195641211	1
2	891	537.089149288716	0
2	990	624.445763551712	1
2	991	624.657118683526	0
2	1045	697.265469758838	1
2	1046	697.354839129208	0
2	1115	744.376299048318	1
2	1116	744.976661892093	0
2	1205	809.252882917716	1
2	1206	809.516662827993	0
2	1310	861.225693926273	1
2	1311	861.788253907712	0
2	1370	880.586731542991	1
2	1371	881.13728971837	0
2	1400	892.289313345453	1
2	1401	892.446149626259	0
2	1405	893.113092491322	1
2	1406	893.42755097591	0
2	1410	893.46108370495	1
2	1411	893.886076398032	0
2	1472	926.535804335942	1
2	1473	926.544889939779	0
2	1480	927.42540843767	1
2	1481	927.845094181567	0
2	1550	967.691487457873	1
2	1551	968.036939514184	0
2	1560	970.747126935902	1
2	1563	971.411821964435	0
2	1620	1008.229253213404	1
2	1621	1008.458234593011	0
2	1625	1008.632376197473	1
2	1626	1009.258652534587	0
2	1630	1009.617921994758	1
2	1631	1009.762280907407	0
2	1710	1053.862152788615	1
2	1711	1054.367538431383	0
2	1795	1100.344679326795	1
2	1796	1100.666796755685	0
2	1810	1110.46139456704	1
2	1811	1110.476062246342	0
2	1910	1187.626297221254	1
2	1914	1187.938157264063	2
2	1915	1188.564548266572	1
2	1918	1189.415986509793	0
2	1930	1192.11724570586	1
2	1931	1192.134594415238	0
2	1975	1217.486285184571	1
2	1976	1217.490931853087	0
2	1982	1217.521514694598	1
2	1983	1218.209891099616	0
2	1987	1218.497942938887	1
2	1988	1218.910985965601	0
2	2030	1244.779414722239	1
2	2031	1244.808397589264	0
2	2160	1331.91444098219	1
2	2161	1332.369336189994	0
2	2225	1368.964169751888	1
2	2226	1369.371729950301	0
2	2260	1383.835622626692	1
2	2261	1384.518063788807	0
2	2335	1450.409654544865	1
2	2336	1450.616864406084	0
2	2375	1461.479002844901	1
2	2376	1461.90922706887	0
2	2385	1463.328980140054	1
2	2386	1464.13376300422	0
2	2400	1471.595219426391	1
2	2401	1472.089094283371	0
2	2480	1535.741751289118	1
2	2481	1535.83642593828	0
2	2535	1580.471796101921	1
2	2536	1581.119109361106	0
2	2560	1584.501270147103	1
2	2563	1585.186788035559	0
2	2650	1656.925014328977	1
2	2653	1657.634292548917	0
2	2690	1665.762164033118	1
2	2691	1665.89311092831	0
2	2705	1668.764256063376	1
2	2706	1669.186405739329	0
2	2765	1715.685482122676	1
2	2766	1716.162939772024	0
2	2800	1736.506516239931	1
2	2801	1736.521517431744	0
2	2955	1861.081253701434	1
2	2956	1861.553506667495	0
2	2975	1867.114193722455	1
2	2976	1867.550128509904	0
2	3000	1891.931561541354	1
2	3001	1892.038779320069	0
2	3065	1931.833075113793	1
2	3066	1931.899948056566	0
2	3075	1932.48570778225	1
2	3076	1933.122664766304	0
2	3165	2014.643094706511	1
2	3168	2014.835038108993	0
2	3215	2043.875863300937	1
2	3216	2044.123418621475	0
2	3220	2044.430211087557	1
2	3221	2044.907596369449	0
2	3270	2079.092024677511	1
2	3271	2079.258100867439	0
2	3625	2320.58334889625	1
2	3626	2321.135317719691	0
2	3645	2331.365461807126	1
2	3646	2331.738914963352	0
2	3665	2336.92907399616	1
2	3666	2337.551302507843	0
2	3930	2538.925189452547	1
2	3931	2539.241988262849	0
2	3935	2539.788884066639	1
2	3936	2539.853607248457	0
2	3940	2539.992913305925	1
2	3941	2540.451703608537	0
2	4070	2619.50992346825	1
2	4071	2620.067869026084	0
2	4100	2636.572131286208	1
2	4101	2636.676835252772	0
2	4135	2659.111981428073	1
2	4136	2659.910074508178	0
2	4140	2660.381850296437	1
2	4143	2660.895747057336	0
2	4215	2722.053850684323	1
2	4216	2722.244989588322	0
2	4330	2776.106569442217	1
2	4331	2776.391204922092	0
2	4340	2778.491311962414	1
2	4341	2778.845879643005	0
2	4355	2783.657636591604	1
2	4357	2784.014225141173	2
2	4358	2784.60117910094	1
2	4361	2785.24066755054	0
2	4480	2907.990248458883	1
2	4481	2907.995309334262	0
2	4500	2915.938864111354	1
2	4501	2915.966840742982	0
2	4510	2916.814486025173	1
2	4511	2917.215339388775	0
2	4520	2918.335230921198	1
2	4521	2919.121569096327	0
2	4530	2920.549816626199	1
2	4531	2920.796910914902	0
2	4705	3054.174938223195	1
2	4706	3054.460976207907	0
2	4710	3054.613099921602	1
2	4711	3055.256468177912	0
2	4760	3087.51965336866	1
2	4763	3088.186585202051	0
2	4810	3110.189185687951	1
2	4811	3110.88358060108	0
2	4850	3127.224114362281	1
2	4851	3127.279600047412	0
2	4870	3131.584551899634	1
2	4871	3131.657725375297	0
2	4890	3150.464258713561	1
2	4891	3151.27819124153	0
2	4950	3213.080549587407	1
2	4951	3213.77446979801	0
2	5020	3250.259627772786	1
2	5022	3250.381450357471	2
2	5023	3250.547730715975	1
2	5026	3251.334128657712	0
2	5110	3300.413131075552	1
2	5113	3301.257679874163	0
2	5122	3302.56078202777	1
2	5123	3302.786476445982	0
2	5140	3312.724265942851	1
2	5141	3312.8426454736	0
2	5320	3427.267329133186	1
2	5321	3428.179223087544	0
2	5380	3477.397215059432	1
2	5381	3477.605569185633	0
2	5387	3478.260286208801	1
2	5388	3478.315355957383	0
2	5445	3528.894083957475	1
2	5446	3529.217055330669	0
2	5525	3564.382317571826	1
2	5526	3564.759302340462	0
2	5540	3569.903785013473	1
2	5541	3570.593960204648	0
2	5580	3603.759883299118	1
2	5581	3604.490708358758	0
2	5600	3615.783242758771	1
2	5601	3616.102524073219	0
2	5615	3618.382469874146	1
2	5616	3619.028068089408	0
2	5630	3622.343560427485	1
2	5633	3622.810368640775	0
2	5637	3623.319131579936	1
2	5638	3623.771824253405	0
2	5642	3624.026887033317	1
2	5644	3624.056077719688	2
2	5645	3624.291854563177	1
2	5648	3625.280108613762	0
2	5655	3626.440037461932	1
2	5656	3626.962544119273	0
2	5682	3636.274955758357	1
2	5683	3636.350698799335	0
2	5720	3660.623433837353	1
2	5721	3661.287739127143	0
2	5805	3698.25518113211	1
2	5806	3698.483528463807	0
2	5880	3733.852847924312	1
2	5881	3733.871140284931	0
2	5890	3734.934448115398	1
2	5891	3735.13056821176	0
2	5895	3736.015572735268	1
2	5896	3736.127011786449	0
2	5955	3771.345096450646	1
2	5956	3771.467055967234	0
2	6120	3859.629859439367	1
2	6123	3860.408924474733	0
2	6185	3899.012494658109	1
2	6186	3899.464289444892	0
2	6240	3933.511387575098	1
2	6242	3933.842699481663	2
2	6245	3934.18106485455	1
2	6248	3935.021237880678	0
2	6255	3935.600971507999	1
2	6258	3936.099127727828	0
2	6287	3949.132998353785	1
2	6288	3949.720453514696	0
2	6292	3949.826776784822	1
2	6294	3949.909856544313	2
2	6295	3950.504204482005	1
2	6299	3950.573216100503	2
2	6300	3951.094495277318	1
2	6303	3951.71957241737	0
2	6310	3952.99287487311	1
2	6311	3953.111886452723	0
2	6490	4075.387608184574	1
2	6491	4075.622074786549	0
2	6515	4083.734271106659	1
2	6516	4084.284070036504	0
2	6692	4185.703027529091	1
2	6693	4185.801694053993	0
2	6710	4188.368428190645	1
2	6711	4188.59827437209	0
2	6740	4200.970270346523	1
2	6741	4201.335845763615	0
2	6870	4300.874153906359	1
2	6871	4301.079444127508	0
2	6885	4327.408428101616	1
2	6886	4328.146632758255	0
2	7110	4488.937142733157	1
2	7111	4489.537118018783	0
2	7140	4508.129052647644	1
2	7141	4508.496259800304	0
2	7270	4561.449133954827	1
2	7273	4562.396436644494	0
2	7340	4607.829966136576	1
2	7343	4608.074521697537	0
2	7525	4728.531804867982	1
2	7526	4729.220908678072	0
2	7705	4861.619866973437	1
2	7706	4862.016805884848	0
2	7720	4867.597085853108	1
2	7721	4867.951013542521	0
2	7765	4898.596269349183	1
2	7766	4899.57055186291	0
2	7785	4912.015184951074	1
2	7786	4912.043754255593	0
2	7850	4960.048873407262	1
2	7851	4960.52506247858	0
2	7865	4964.034611810076	1
2	7866	4964.266607922493	0
2	7945	5013.718382373494	1
2	7946	5014.212986715656	0
2	7997	5034.404559976992	1
2	7998	5034.438492270068	0
2	8002	5034.814924557765	1
2	8003	5035.39113791629	0
2	8012	5036.433755324733	1
2	8013	5036.726185777478	0
2	8085	5080.874371902773	1
2	8086	5081.089241996554	0
2	8110	5095.549176363516	1
2	8111	5096.102634666155	0
2	8115	5096.170969065997	1
2	8116	5096.809361144847	0
2	8120	5097.003558876463	1
2	8121	5097.667338427149	0
2	8125	5097.936039327041	1
2	8126	5098.141306113351	0
2	8330	5219.559801701713	1
2	8331	5220.093838360495	0
2	8350	5227.816252122808	1
2	8351	5227.818989044181	0
2	8395	5258.264903435496	1
2	8396	5258.629071358833	0
2	8470	5324.243026544992	1
2	8471	5324.465411869725	0
2	8510	5358.360899103998	1
2	8511	5358.458996371806	0
2	8555	5374.081202743903	1
2	8556	5374.445991035907	0
2	8575	5383.186591156959	1
2	8576	5383.464667563162	0
2	8600	5387.778065006411	1
2	8601	5387.790701364197	0
2	8605	5388.204776003242	1
2	8606	5388.529380256387	0
2	8640	5414.986974512306	1
2	8641	5415.336979833412	0
2	8695	5450.330083845231	1
2	8696	5450.563883404391	0
2	8730	5464.280783864208	1
2	8731	5464.688699299895	0
2	8760	5481.265814406283	1
2	8761	5481.793758914283	0
2	8810	5525.088601161798	1
2	8811	5525.122722882355	0
2	8815	5525.135108397389	1
2	8816	5525.739639137868	0
2	8847	5546.872977170528	1
2	8848	5546.99843562602	0
2	9035	5640.945914374376	1
2	9036	5641.285164328537	0
2	9100	5686.702673836002	1
2	9101	5686.76441451843	0
2	9105	5687.526420861432	1
2	9106	5687.703791358798	0
2	9110	5687.796187921077	1
2	9111	5688.129155238216	0
2	9195	5735.291270700169	1
2	9196	5735.392705946603	0
2	9205	5736.582532884115	1
2	9206	5736.747632891918	0
2	9300	5815.850830915948	1
2	9301	5816.518165267116	0
2	9325	5821.039454963471	1
2	9326	5821.143337710074	0
2	9365	5854.36910943494	1
2	9366	5854.681295328794	0
2	9430	5895.001068609825	1
2	9431	5895.33699793575	0
2	9540	5956.953897479228	1
2	9541	5957.152032685453	0
2	9600	5992.871452903347	1
2	9601	5992.877840052856	0
2	9710	6115.351522775794	1
2	9713	6115.978966886141	0
2	9725	6121.21011174776	1
2	9726	6121.52140449328	0
2	9770	6159.582686072385	1
2	9771	6159.859065186086	0
2	9857	6249.662433196148	1
2	9858	6250.370870462521	0
2	9865	6251.716763169512	1
2	9866	6252.118327303087	0
2	9965	6314.592842657679	1
2	9966	6315.457282063161	0
2	9985	6320.068091688842	1
2	9986	6320.098201798546	0
2	9995	6326.06029989646	1
2	9996	6326.732779813454	0
2	10045	6394.228657250563	1
2	10046	6394.910696475801	0
2	10185	6468.083312131402	1
2	10186	6468.407637990373	0
2	10205	6476.517352365812	1
2	10206	6476.526396815392	0
2	10220	6483.20482425996	1
2	10221	6483.757976887226	0
2	10250	6505.898263113605	1
2	10251	6506.312874558546	0
2	10260	6506.913011090554	1
2	10261	6507.259313816136	0
2	10300	6521.996183472251	1
2	10302	6522.67963780402	2
2	10303	6522.794835882316	1
2	10308	6523.444549656574	0
2	10315	6524.152053720989	1
2	10316	6525.018729392959	0
2	10340	6530.106765720837	1
2	10343	6530.639054365868	0
2	10350	6531.066084353708	1
2	10351	6531.50211912011	0
2	10410	6593.814076792501	1
2	10412	6594.03263451369	2
2	10413	6594.152304018172	1
2	10416	6595.130792105221	0
2	10520	6680.314290353555	1
2	10521	6680.4185681108	0
2	10525	6680.872197685203	1
2	10526	6680.972600598176	0
2	10560	6703.254701348117	1
2	10561	6703.739014798783	0
2	10655	6774.079487447976	1
2	10656	6774.309758222928	0
2	10665	6775.390785118084	1
2	10666	6776.090648491671	0
2	10710	6818.774637497406	1
2	10711	6818.881767487556	0
2	10745	6833.581142726701	1
2	10746	6833.889734250498	0
2	10845	6938.348356012948	1
2	10846	6938.449708978184	0
2	10930	7021.725177948542	1
2	10931	7022.24178557295	0
2	11045	7119.280795133504	1
2	11046	7119.455445036683	0
2	11080	7131.057466937766	1
2	11081	7131.388304492512	0
2	11180	7170.164921327471	1
2	11181	7170.406637458962	0
2	11190	7171.213527190493	1
2	11195	7172.078280448022	0
2	11204	7173.551188943045	1
2	11205	7173.642304358858	0
2	11285	7224.802875827336	1
2	11286	7225.444619731136	0
2	11435	7324.306001506967	1
2	11438	7324.579078481664	0
2	11442	7324.729111582467	1
2	11443	7325.568208888724	0
2	11450	7326.535107292105	1
2	11451	7326.939908928649	0
2	11620	7441.349868602427	1
2	11621	7441.903512063624	0
2	11675	7474.787588813611	1
2	11676	7474.930890270739	0
2	11695	7479.272550570079	1
2	11696	7479.580567441621	0
2	11810	7546.29471752541	1
2	11811	7546.883335001184	0
2	11855	7564.071880088304	1
2	11856	7564.471136297649	0
2	11945	7624.55288009128	1
2	11946	7625.168782841933	0
2	11982	7649.96847723742	1
2	11983	7650.147543294386	0
2	12020	7667.63237005101	1
2	12021	7667.992751520377	0
2	12050	7684.814386277447	1
2	12051	7684.961022594641	0
2	12055	7685.10343646045	1
2	12056	7685.41549749726	0
2	12090	7703.779095001105	1
2	12091	7704.606889730104	0
2	12095	7704.751376940142	1
2	12096	7705.458274137339	0
2	12120	7715.999303934285	1
2	12121	7716.216056438214	0
2	12125	7716.862990720012	1
2	12126	7717.021211046497	0
2	12275	7813.42170268577	1
2	12276	7813.98782759992	0
2	12422	7896.434640815842	1
2	12423	7896.536610061421	0
2	12540	7999.432643069687	1
2	12541	7999.813507400033	0
2	12595	8033.883007559454	1
2	12596	8034.191119066483	0
2	12615	8058.706261634046	1
2	12616	8059.068755196898	0
2	12625	8059.990961350599	1
2	12626	8060.439812277375	0
2	12930	8248.332802795423	1
2	12933	8249.037979884252	0
2	13050	8328.134078945242	1
2	13051	8328.739814035867	0
2	13055	8328.820339482654	1
2	13056	8329.270046010839	0
2	13070	8336.424076806051	1
2	13071	8336.965460292696	0
2	13080	8343.577829774754	1
2	13081	8344.069890351306	0
2	13105	8351.817600288741	1
2	13106	8352.657789366492	0
2	13115	8354.066414022516	1
2	13116	8354.290135551556	0
2	13120	8354.60295803642	1
2	13121	8354.900361491819	0
2	13225	8444.379832913535	1
2	13226	8444.607842230776	0
2	13330	8518.820564577589	1
2	13331	8519.571715440803	0
2	13405	8572.883449879193	1
2	13406	8573.613173481945	0
2	13410	8574.239288670033	1
2	13411	8574.251937802445	0
2	13435	8592.463577340769	1
2	13436	8593.059289828256	0
2	13455	8600.330996991392	1
2	13456	8600.60255291878	0
2	13480	8632.45651782781	1
2	13483	8633.251045134101	0
2	13490	8633.958424215936	1
2	13491	8634.50140609168	0
2	13520	8663.437616832065	1
2	13521	8663.758663871502	0
2	13930	8886.290539818142	1
2	13931	8886.533900058249	0
2	13952	8901.671995544447	1
2	13953	8901.708321462554	0
2	13960	8902.447809471487	1
2	13961	8902.993851832515	0
2	13970	8904.361229315633	1
2	13971	8904.764694130587	0
2	14050	8971.958376409579	1
2	14051	8972.378470917352	0
2	14060	8976.120353732028	1
2	14061	8976.30760596918	0
2	14065	8976.984499975852	1
2	14066	8977.027490112065	0
2	14090	8982.632651725095	1
2	14091	8982.941400638386	0
2	14135	9021.558878746565	1
2	14136	9021.69557005857	0
2	14272	9100.255532899186	1
2	14273	9100.304550094666	0
2	14290	9108.601816682463	1
2	14291	9108.90366464387	0
2	14310	9116.057293739468	1
2	14311	9116.309777510568	0
2	14365	9140.799458397025	1
2	14367	9140.857270938894	2
2	14368	9141.10277059513	1
2	14371	9141.880656493612	0
2	14565	9260.69321723933	1
2	14566	9261.403596346525	0
2	14570	9261.578098729985	1
2	14571	9262.131157064789	0
2	14575	9262.23559106736	1
2	14578	9262.909199660716	0
2	14620	9277.375702317865	1
2	14621	9277.607372107144	0
2	14660	9305.309255048342	1
2	14661	9305.982319596065	0
2	14720	9331.686155130307	1
2	14721	9332.277201927642	0
2	14735	9339.966444029824	1
2	14736	9340.477066076953	0
2	14760	9356.198320642356	1
2	14761	9356.93038567634	0
2	14775	9362.790874986966	1
2	14776	9363.298983756962	0
2	14780	9363.37662398666	1
2	14781	9364.20094155003	0
2	14865	9416.115172914953	1
2	14866	9416.712561937871	0
2	14870	9416.966988279955	1
2	14871	9417.560760739523	0
2	14890	9423.76389077986	1
2	14891	9424.012930958467	0
2	14915	9437.28750790381	1
2	14918	9438.102246701316	0
2	14945	9444.449943283956	1
2	14948	9444.859266983104	0
2	15035	9469.375657882944	1
2	15037	9469.675720643482	2
2	15038	9469.872730551091	1
2	15041	9470.802946130688	0
2	15140	9533.263644507773	1
2	15141	9533.817803923297	0
2	15210	9571.248728144731	1
2	15211	9571.600203739515	0
2	15280	9610.74478807986	1
2	15281	9611.332170737952	0
2	15310	9619.572547649526	1
2	15311	9620.095517308155	0
2	15330	9630.885213102215	1
2	15331	9631.32430035929	0
2	15380	9663.911327624139	1
2	15381	9664.518656092672	0
2	15425	9690.613781835207	1
2	15426	9691.286353022932	0
2	15455	9718.971818120388	1
2	15456	9719.207044295303	0
2	15635	9827.113037586001	1
2	15636	9827.401394221922	0
2	15660	9853.999645838527	1
2	15661	9854.16815784345	0
2	15685	9861.882191876723	1
2	15688	9862.102406431364	0
2	15745	9893.611430121543	1
2	15746	9894.459484100431	0
2	15765	9903.522656362448	1
2	15766	9903.978967659057	0
2	15965	10041.516958822745	1
2	15966	10041.968224027099	0
2	16030	10089.795490337263	1
2	16031	10089.878244720423	0
2	16180	10173.425347110631	1
2	16182	10173.532405664598	2
2	16183	10173.798931220809	1
2	16186	10174.337291952625	0
2	16270	10246.812381859773	1
2	16271	10247.250153168885	0
2	16385	10338.386106118361	1
2	16386	10338.800222295709	0
2	16415	10374.370535450654	1
2	16417	10374.626499880505	2
2	16418	10374.861487351326	1
2	16423	10375.379278748171	0
2	16455	10395.939188361496	1
2	16456	10396.679781896206	0
2	16515	10428.686306794102	1
2	16516	10428.768045860395	0
2	16535	10431.193108745158	1
2	16536	10431.955712703161	0
2	16562	10449.379461827917	1
2	16563	10449.484411162958	0
2	16597	10456.775982753025	1
2	16598	10457.431847926748	0
2	16609	10458.234808919097	1
2	16610	10458.542761088542	0
2	16645	10484.014398930901	1
2	16646	10484.831153659992	0
2	16730	10524.890652030803	1
2	16731	10525.293651874787	0
2	16735	10525.363391370069	1
2	16738	10525.96563168406	0
2	16745	10527.200639002104	1
2	16746	10527.289169004378	0
2	16755	10528.249411260497	1
2	16756	10528.669812529257	0
2	16770	10534.453392509097	1
2	16773	10534.96279888141	0
2	16782	10535.604673434651	1
2	16783	10535.829206552515	0
2	16955	10640.923299239939	1
2	16956	10641.234238168627	0
2	16980	10655.592784504956	1
2	16983	10656.130418623435	0
2	17065	10710.658523806231	1
2	17066	10711.01523482486	0
2	17070	10711.036150222202	1
2	17073	10711.562948399813	0
2	17077	10711.759287045548	1
2	17078	10711.986462456345	0
2	17135	10751.265067900247	1
2	17136	10751.790249190656	0
2	17140	10751.894746566573	1
2	17141	10752.707834180248	0
2	17175	10762.97600911823	1
2	17176	10763.024097624493	0
2	17210	10783.847642994521	1
2	17211	10784.255300764472	0
2	17227	10785.693253300061	1
2	17228	10786.381935874897	0
2	17465	10958.90706217606	1
2	17466	10959.522381410284	0
2	17615	11048.338672380133	1
2	17616	11048.646043120245	0
2	17645	11082.47441050215	1
2	17646	11083.238683954822	0
2	17665	11086.934342662905	1
2	17666	11087.062757497609	0
2	17940	11276.329001145154	1
2	17941	11276.598282089762	0
2	18060	11361.528763653303	1
2	18061	11362.050110828621	0
2	18085	11365.991095740776	1
2	18086	11366.472681689924	0
2	18225	11482.672279108035	1
2	18226	11482.934504312658	0
2	18285	11507.824288400384	1
2	18286	11507.931755926984	0
2	18380	11580.103752409052	1
2	18381	11580.13403903363	0
2	18395	11581.270315876264	1
2	18396	11581.911772169914	0
2	18405	11583.03625663523	1
2	18406	11583.598296889757	0
2	18420	11589.596929666641	1
2	18421	11589.827923717531	0
2	18900	11953.468576660662	1
2	18901	11953.526991078898	0
2	18940	11972.904977562763	1
2	18942	11972.965736689411	2
2	18943	11973.618929046955	1
2	18946	11974.524575234348	0
2	18950	11974.537211277828	1
2	18951	11975.138541138874	0
2	19050	12042.552292527438	1
2	19051	12042.812416179528	0
2	19120	12080.34000116237	1
2	19123	12080.554855989615	0
2	19132	12081.252230824411	1
2	19133	12081.995712122644	0
2	19265	12133.674685793064	1
2	19266	12134.038463547996	0
2	19369	12200.741400141379	1
2	19370	12201.299492500569	0
2	19377	12202.379675135757	1
2	19378	12202.956037558741	0
2	19385	12204.446407415216	1
2	19386	12204.591711182226	0
2	19400	12206.501770776941	1
2	19401	12207.240282547034	0
2	19420	12219.723011287925	1
2	19421	12220.360005731013	0
2	19487	12243.623983972832	1
2	19488	12243.753253809863	0
2	19630	12320.878988804661	1
2	19631	12320.930855295392	0
2	19760	12406.433767002045	1
2	19761	12406.876150364741	0
2	19900	12505.904908729209	1
2	19901	12506.311009811575	0
2	20035	12577.466379271007	1
2	20036	12578.022930797696	0
2	20065	12602.083924863803	1
2	20066	12602.824339830057	0
2	20140	12645.827950377994	1
2	20141	12646.229673278628	0
2	20255	12749.379222399562	1
2	20256	12749.497052017092	0
2	20395	12888.330553016187	1
2	20396	12888.632982486043	0
2	20540	12951.050326201764	1
2	20541	12951.781189193976	0
2	20625	13006.909363170497	1
2	20626	13007.042964394898	0
2	20630	13007.04950659041	1
2	20631	13007.634118326749	0
2	20730	13069.478911107401	1
2	20731	13070.08863541683	0
2	20745	13073.809755952943	1
2	20746	13074.252613415127	0
2	20815	13126.303042816111	1
2	20816	13127.072409988182	0
2	20820	13127.145225627664	1
2	20821	13127.858267655211	0
2	20840	13140.23365504112	1
2	20841	13140.446682495647	0
2	20845	13140.462030478028	1
2	20846	13140.974040473462	0
2	20850	13141.398178809511	1
2	20851	13141.505244761775	0
2	20855	13141.564996378778	1
2	20856	13141.918604209809	0
2	20860	13142.835419214705	1
2	20861	13142.892843732959	0
2	20937	13184.305280608878	1
2	20938	13184.398688708039	0
2	20942	13185.181744158944	1
2	20943	13185.311205107559	0
2	20947	13185.592388925003	1
2	20948	13185.982201560334	0
2	20955	13187.145169682535	1
2	20956	13187.246620473246	0
2	21050	13258.814272605114	1
2	21051	13259.719088725911	0
2	21065	13265.30330738387	1
2	21067	13265.307877549761	2
2	21070	13265.920406473064	1
2	21073	13266.654655966264	0
2	21150	13332.289157150174	1
2	21151	13332.526630588006	0
2	21165	13335.456729701287	1
2	21166	13335.724696335411	0
2	21260	13422.444912180079	1
2	21261	13422.725914553613	0
2	21515	13623.089567546732	1
2	21516	13623.299791302835	0
2	21530	13629.727119366579	1
2	21531	13630.243533793261	0
2	21545	13642.784150060737	1
2	21546	13642.915846154409	0
2	21675	13761.592085590947	1
2	21676	13761.815370018982	0
2	21780	13829.928609570423	1
2	21781	13829.966111486108	0
2	21830	13859.086259178064	1
2	21832	13859.382655247743	2
2	21833	13859.580833003493	1
2	21836	13860.501617102195	0
2	21940	13925.856769977013	1
2	21941	13926.614724044883	0
2	21975	13944.47051206338	1
2	21976	13944.937369881315	0
2	22090	14048.478570083224	1
2	22091	14048.810995816563	0
2	22120	14079.243146604229	1
2	22121	14079.517208355113	0
2	22145	14111.748123147158	1
2	22146	14112.067441390119	0
2	22160	14125.287137267306	1
2	22162	14125.817852750776	2
2	22163	14125.908192224755	1
2	22166	14126.57345830002	0
2	22185	14158.057490012212	1
2	22186	14158.239659782542	0
2	22205	14178.752280326549	1
2	22206	14179.529065717376	0
2	22210	14179.693833827325	1
2	22211	14180.358207325909	0
2	22495	14382.170754850336	1
2	22496	14383.037058393511	0
2	22615	14460.538487783126	1
2	22616	14461.259793359819	0
2	22690	14507.351962303836	1
2	22691	14507.451117451891	0
2	22930	14626.369312755412	1
2	22933	14626.868492058535	0
2	22940	14627.806123478598	1
2	22941	14628.44398188443	0
2	22980	14641.701219725244	1
2	22981	14642.274402225671	0
2	22985	14642.318742112227	1
2	22986	14643.009728523392	0
2	22995	14651.259288822464	1
2	22996	14651.713472648768	0
2	23100	14759.900656781972	1
2	23101	14759.964814453602	0
2	23105	14760.044791084595	1
2	23106	14760.401009291394	0
2	23415	15026.708321272605	1
2	23416	15027.058960990812	0
2	23445	15060.225266510183	1
2	23446	15060.939474753584	0
2	23627	15168.438389058233	1
2	23628	15168.604870926626	0
2	23670	15202.656242094012	1
2	23671	15202.699572788425	0
2	23825	15332.395184364213	1
2	23826	15332.712375493039	0
2	24050	15483.648089339952	1
2	24051	15483.659033963012	0
2	24090	15511.905410010071	1
2	24091	15511.951240079985	0
2	24150	15539.135715843601	1
2	24151	15539.432697593158	0
2	24235	15601.087897278075	1
2	24236	15601.247729475079	0
2	24272	15607.3549082764	1
2	24273	15607.363044743419	0
2	24277	15607.407768753979	1
2	24278	15607.800371526361	0
2	24420	15696.573954994667	1
2	24422	15696.78257987665	2
2	24423	15696.908074275678	1
2	24426	15697.355847853137	0
2	24495	15748.360901028448	1
2	24496	15748.410984342097	0
2	24565	15804.992485017743	1
2	24566	15805.770302823882	0
2	24710	15917.106757985856	1
2	24711	15917.793085484316	0
2	24780	15981.579454154229	1
2	24781	15982.061135317074	0
2	24810	16004.933356367928	1
2	24811	16005.698153125317	0
2	24855	16021.238269783376	1
2	24856	16021.258063599056	0
2	24865	16022.690553731315	1
2	24866	16023.2783449786	0
2	25120	16199.298004014024	1
2	25121	16199.368057274072	0
2	25215	16282.700379596064	1
2	25216	16283.484148334573	0
2	25235	16296.791239378561	1
2	25236	16296.993104338341	0
2	25287	16309.599093846582	1
2	25288	16309.609672190013	0
2	25370	16355.818183716753	1
2	25371	16355.828374110967	0
2	25395	16373.031249739019	1
2	25396	16373.382596814156	0
2	25420	16380.864363434446	1
2	25421	16380.980593564604	0
2	25475	16407.310699116201	1
2	25476	16407.887876844304	0
2	25615	16501.863326681688	1
2	25617	16502.348718927612	2
2	25618	16502.357440871386	1
2	25622	16502.507964744079	2
2	25623	16502.761459839311	1
2	25629	16503.055378555116	2
2	25630	16503.753494938477	1
2	25633	16504.499167894214	0
2	25770	16582.881034216244	1
2	25771	16583.091176588097	0
2	25780	16589.366335767156	1
2	25781	16590.092125606563	0
2	25885	16676.27947139022	1
2	25886	16677.006966952024	0
2	25894	16677.451589388026	1
2	25895	16677.529354731016	0
2	25980	16734.055833318275	1
2	25981	16734.170951590269	0
2	26000	16743.214425767254	1
2	26001	16743.491654141068	0
2	26042	16778.358584650471	1
2	26043	16778.82209364579	0
2	26047	16779.427969125735	1
2	26048	16779.633956155674	0
2	26155	16845.712288324995	1
2	26156	16846.204620633898	0
2	26255	16892.884272727419	1
2	26256	16893.363110578357	0
2	26280	16915.475549090056	1
2	26281	16915.800695200236	0
2	26325	16933.287743095395	1
2	26326	16933.853396103285	0
2	26377	16962.070372686459	1
2	26378	16962.235788121591	0
2	26382	16962.256239657336	1
2	26383	16962.694815488676	0
2	26445	17020.220983610836	1
2	26446	17020.959998788457	0
2	26475	17029.100236317241	1
2	26476	17029.790743534393	0
2	26480	17030.068622210781	1
2	26481	17030.400291371704	0
2	26555	17062.794086895555	1
2	26556	17063.565444321702	0
2	26585	17091.873282531198	1
2	26586	17091.886003491947	0
2	26615	17111.921830774438	1
2	26616	17112.715744766839	0
2	26735	17189.886219488908	1
2	26736	17190.358872019646	0
2	26820	17288.286865766758	1
2	26823	17288.66464236925	0
2	26835	17292.821788390341	1
2	26836	17293.252434541922	0
2	26905	17335.236773013155	1
2	26906	17335.332500771729	0
2	26930	17340.612452251642	1
2	26932	17340.628391170355	2
2	26933	17340.682076919361	1
2	26936	17341.318354970965	0
2	27010	17392.794985300249	1
2	27011	17393.142219343411	0
2	27015	17393.478599360764	1
2	27016	17393.591185382663	0
2	27095	17432.922136584777	1
2	27096	17433.57436939502	0
2	27105	17434.245905783059	1
2	27106	17434.694268518741	0
2	27140	17456.959102837733	1
2	27141	17456.966274993823	0
2	27220	17540.44667151265	1
2	27221	17540.846786458792	0
2	27245	17549.656587363013	1
2	27246	17549.694115064059	0
2	27250	17550.078598090651	1
2	27251	17550.46474803537	0
2	27385	17676.06866559406	1
2	27386	17676.244887538726	0
2	27390	17676.343467361341	1
2	27391	17676.996801096719	0
2	27445	17704.90761700673	1
2	27448	17705.371443233837	0
2	27455	17706.105304270481	1
2	27457	17706.446886047849	2
2	27458	17706.920818376367	1
2	27461	17707.550223138428	0
2	27465	17707.688825656909	1
2	27466	17708.420021051925	0
2	27505	17728.284496665995	1
2	27506	17728.403744205536	0
2	27544	17739.676335816654	1
2	27545	17740.097432800669	0
2	27630	17785.309796749856	1
2	27631	17785.798409384004	0
2	27640	17787.042445014594	1
2	27643	17787.501863107392	0
2	27647	17788.08728224505	1
2	27648	17788.387971739126	0
2	27670	17803.771098523811	1
2	27671	17804.339459180373	0
2	27685	17807.334191903176	1
2	27686	17808.080822071004	0
2	27952	17975.645647241613	1
2	27953	17975.743775262539	0
2	28125	18076.254477805922	1
2	28126	18076.538028286813	0
2	28190	18116.426082355996	1
2	28191	18116.547859634161	0
2	28225	18140.696564654423	1
2	28227	18140.898855590566	2
2	28228	18141.37956693873	1
2	28231	18142.225749831621	0
2	28375	18231.286414900045	1
2	28376	18231.865406329489	0
2	28405	18272.803034597391	1
2	28406	18272.908295912676	0
2	28410	18272.972893019322	1
2	28411	18273.800299569181	0
2	28460	18288.991316619373	1
2	28463	18289.835977952522	0
2	28540	18347.384256659937	1
2	28541	18347.551090952732	0
2	28620	18385.919366180513	1
2	28621	18386.234993098277	0
2	28667	18420.62835520265	1
2	28668	18420.637674336763	0
2	28790	18517.602283155646	1
2	28791	18517.904349319054	0
2	28800	18521.473173823564	1
2	28801	18521.584075381638	0
2	28840	18552.462678503955	1
2	28841	18552.764566064689	0
2	28887	18574.614146618729	1
2	28888	18574.813750092439	0
2	28900	18576.144276974071	1
2	28901	18576.848616436721	0
2	28960	18605.13048570338	1
2	28961	18605.551570074066	0
2	29005	18623.28101005102	1
2	29006	18623.595583543902	0
2	29050	18651.539702133112	1
2	29053	18652.117739861055	0
2	29075	18672.732462687011	1
2	29076	18673.001165125421	0
2	29085	18674.211406963331	1
2	29086	18674.230418666447	0
2	29105	18680.340907874699	1
2	29106	18680.556305616459	0
2	29175	18708.021634698587	1
2	29177	18708.191197502034	2
2	29178	18708.19643354339	1
2	29181	18709.005080016073	0
2	29185	18709.139207517218	1
2	29186	18709.942463532997	0
2	29235	18741.801969774413	1
2	29240	18742.36719192072	0
2	29257	18744.945168286615	1
2	29258	18745.337911266193	0
2	29295	18769.819337828142	1
2	29296	18770.117883445325	0
2	29305	18771.279397633033	1
2	29306	18771.605138196659	0
2	29345	18794.143398421633	1
2	29346	18794.171494572216	0
2	29690	19067.654416625443	1
2	29691	19068.037502955556	0
2	29865	19225.234050221006	1
2	29866	19225.67850773491	0
2	29945	19269.013878167618	1
2	29946	19269.356929431307	0
2	30020	19347.591924011296	1
2	30021	19347.943875929958	0
2	30045	19367.282527317798	1
2	30046	19368.044072334344	0
2	30060	19376.724526577453	1
2	30063	19377.220764370415	0
2	30075	19382.787792126456	1
2	30076	19383.100333925466	0
2	30205	19481.505461695762	1
2	30206	19482.172301891544	0
2	30222	19484.216250853752	1
2	30223	19484.805479660588	0
2	30234	19485.566699472647	1
2	30235	19486.035145816444	0
2	30242	19487.021345741016	1
2	30243	19487.143548406991	0
2	30345	19542.436573335447	1
2	30346	19543.180254811196	0
2	30365	19573.712243777965	1
2	30366	19574.228378497074	0
2	30435	19611.497558536063	1
2	30438	19612.024720033631	0
2	30460	19625.502757341983	1
2	30461	19625.70062900239	0
2	30655	19757.70394589271	1
2	30656	19758.260713834566	0
2	30725	19818.336839089557	1
2	30726	19818.455105659762	0
2	30852	19904.074523139501	1
2	30853	19904.36635852317	0
2	30885	19914.172951355855	1
2	30886	19914.403412065523	0
2	30920	19943.969778819338	1
2	30921	19944.577416337433	0
2	31040	20014.858089313677	1
2	31041	20015.400592520147	0
2	31045	20015.497753763186	1
2	31048	20015.827172131057	0
2	31075	20030.200257575394	1
2	31076	20030.445973784985	0
2	31090	20034.080938712801	1
2	31091	20034.264886758457	0
2	31180	20112.044332983734	1
2	31181	20112.316935525413	0
2	31255	20169.680086526873	1
2	31256	20170.054618752174	0
2	31260	20170.188629714687	1
2	31261	20170.852698646936	0
2	31480	20338.451922654009	1
2	31483	20338.852248549845	0
2	31500	20346.382560210402	1
2	31501	20346.700581505195	0
2	31587	20406.869370810447	1
2	31588	20406.932545875672	0
2	31720	20503.994575954884	1
2	31721	20504.294832470248	0
2	31805	20539.37192097587	1
2	31806	20540.121978312583	0
2	31850	20557.893776905928	1
2	31851	20558.523080574722	0
2	31877	20564.429850068914	1
2	31878	20564.572618711726	0
2	31890	20577.166329568255	1
2	31891	20577.663565821199	0
2	31972	20613.839230787905	1
2	31974	20613.929177789289	2
2	31975	20613.956004061929	1
2	31979	20614.102169861434	2
2	31980	20614.551693215274	1
2	31983	20615.005854800955	0
2	31987	20615.07471821041	1
2	31988	20615.760902331589	0
2	31992	20616.522795323969	1
2	31993	20616.6864833823	0
2	32002	20618.606924017358	1
2	32003	20618.615718378272	0
2	32007	20618.866520822276	1
2	32008	20619.328770268155	0
2	32012	20619.938360286664	1
2	32013	20620.212366750888	0
2	32025	20623.203113316149	1
2	32026	20623.416118441795	0
2	32120	20681.8973861016	1
2	32121	20682.643676110724	0
2	32130	20683.476341717357	1
2	32131	20684.230709663819	0
2	32210	20735.352523035867	1
2	32211	20735.890830360796	0
2	32220	20737.55645093326	1
2	32221	20737.946150861806	0
2	32280	20773.023991946353	1
2	32281	20773.562659062132	0
2	32350	20805.188330475783	1
2	32351	20805.390107908862	0
2	32367	20815.464912851183	1
2	32368	20815.669914704644	0
2	32375	20816.831253216329	1
2	32376	20817.399462704117	0
2	32380	20817.441062850223	1
2	32381	20818.132079433732	0
2	32420	20834.217092548493	1
2	32423	20834.701713766015	0
2	32445	20847.592476038173	1
2	32446	20847.734132847985	0
2	32470	20860.28584940117	1
2	32471	20860.59352901137	0
2	32512	20909.655113962039	1
2	32513	20909.826245509592	0
2	32585	20954.343645538457	1
2	32586	20954.793246508988	0
2	32655	20989.05997058115	1
2	32656	20989.23691353817	0
2	32697	21009.851664172112	1
2	32698	21010.066654843478	0
2	32740	21045.684370043558	1
2	32741	21046.111993647861	0
2	32780	21063.335541572989	1
2	32781	21063.83900547085	0
2	32860	21095.476753361183	1
2	32861	21095.479168318324	0
2	32920	21116.20015603894	1
2	32921	21116.596358002641	0
2	32955	21133.301020195659	1
2	32956	21133.374832550072	0
2	33000	21159.83250692626	1
2	33001	21160.292695323669	0
2	33005	21160.622553600688	1
2	33007	21160.845615363342	2
2	33008	21160.952329927601	1
2	33012	21161.247534144476	2
2	33013	21161.5150268369	1
2	33016	21162.226096365333	0
2	33195	21353.173876730149	1
2	33196	21353.594764296652	0
2	33290	21406.641254046912	1
2	33291	21407.117732529341	0
2	33390	21496.968888768569	1
2	33391	21497.455321959331	0
2	33430	21528.39611228868	1
2	33431	21528.63250842984	0
2	33470	21549.30012991759	1
2	33471	21549.38275855581	0
2	33545	21617.375813674871	1
2	33546	21617.782203315517	0
2	33600	21630.857101363637	1
2	33601	21631.253453894266	0
2	33620	21662.447092296717	1
2	33621	21662.86644000792	0
2	33660	21695.986515392499	1
2	33662	21696.273047561303	2
2	33663	21696.343564463043	1
2	33666	21697.20623888188	0
2	33672	21697.48815289882	1
2	33673	21697.781077316273	0
2	33685	21709.56754445902	1
2	33686	21709.748120138572	0
2	33695	21717.816769915643	1
2	33696	21717.82209561749	0
2	33797	21783.926137841499	1
2	33799	21783.936504964499	2
2	33800	21784.017907056802	1
2	33803	21784.774011359767	0
2	33807	21784.996239064751	1
2	33808	21785.447522613157	0
2	33890	21813.309418414175	1
2	33891	21813.46208089518	0
2	33895	21813.764887907731	1
2	33896	21813.883520560736	0
2	33925	21836.924290498321	1
2	33926	21837.60258617553	0
2	34012	21878.861443511062	1
2	34013	21879.585518909803	0
2	34040	21886.225586734721	1
2	34041	21886.542585144353	0
2	34095	21926.965391413225	1
2	34098	21927.424742199303	0
2	34165	21964.681423101332	1
2	34166	21964.964772004248	0
2	34175	21965.868263866294	1
2	34176	21966.654836981078	0
2	34195	21987.165288483859	1
2	34196	21987.207738596576	0
2	34290	22052.333633030822	1
2	34291	22052.700708033974	0
2	34300	22053.89674953774	1
2	34301	22054.202546458791	0
2	34305	22054.47759260491	1
2	34306	22054.960189662554	0
2	34375	22121.708543375067	1
2	34376	22121.827384343121	0
2	34415	22133.795763488945	1
2	34416	22134.627239318861	0
2	34420	22135.020544011278	1
2	34421	22135.118459343229	0
2	34425	22135.285453956829	1
2	34426	22136.032643036841	0
2	34435	22136.749674591533	1
2	34436	22137.086571125424	0
2	34685	22318.085000302521	1
2	34686	22318.572243219227	0
2	34755	22358.914296677301	1
2	34756	22359.074437787501	0
2	34780	22367.876908804686	1
2	34781	22367.887215376359	0
2	34785	22368.452889029227	1
2	34786	22368.469504999968	0
2	34815	22382.959676565651	1
2	34816	22383.023054171644	0
2	34840	22397.415171055336	1
2	34841	22397.606475129921	0
2	34885	22418.198418296085	1
2	34886	22418.227498080087	0
2	34945	22449.148623266097	1
2	34946	22449.209106636799	0
2	34950	22449.771102899632	1
2	34951	22449.942550558557	0
2	34970	22452.531185023178	1
2	34971	22453.177637845884	0
2	35020	22488.967758083965	1
2	35021	22489.667148647895	0
2	35050	22512.686170776232	1
2	35051	22513.264462642714	0
2	35125	22552.435993819058	1
2	35126	22553.21194840605	0
2	35305	22673.803298596073	1
2	35306	22674.444262765505	0
2	35310	22674.445790878627	1
2	35311	22675.021486970055	0
2	35385	22732.36644101085	1
2	35387	22732.462674108269	2
2	35388	22732.540142891406	1
2	35391	22733.250170476631	0
2	35395	22733.447706872648	1
2	35396	22733.722557989404	0
2	35467	22776.206098070224	1
2	35468	22776.724513619096	0
2	35515	22803.184524082278	1
2	35516	22803.640118635521	0
2	35650	22887.384084416506	1
2	35651	22887.718674666072	0
2	35755	22976.878964764064	1
2	35756	22976.913391390294	0
2	35805	22999.208199418548	1
2	35806	22999.375548078304	0
2	35845	23020.828579816319	1
2	35846	23021.329242803332	0
2	35860	23030.3721747306	1
2	35861	23030.400441025248	0
2	35875	23034.423745504592	1
2	35876	23034.610344051453	0
2	35960	23137.437887355957	1
2	35961	23138.249493052222	0
2	36090	23206.273100479932	1
2	36091	23207.25280026817	0
2	36132	23233.672033027729	1
2	36133	23234.277704160161	0
2	36142	23235.53043298285	1
2	36143	23235.729917266419	0
2	36290	23324.944120897578	1
2	36291	23325.827682354968	0
2	36325	23338.07828289509	1
2	36326	23338.627065401255	0
2	36345	23341.271665187181	1
2	36346	23341.595082455184	0
2	36515	23434.483295425871	1
2	36516	23434.894725987301	0
2	36637	23497.264482630797	1
2	36638	23497.53411112218	0
2	36645	23498.30653433105	1
2	36646	23499.220853871618	0
2	36730	23557.176791567318	1
2	36731	23557.663835400318	0
2	36780	23601.486372947129	1
2	36781	23601.502493360939	0
2	36820	23618.831762891524	1
2	36821	23619.32812903513	0
2	37065	23768.06859196911	1
2	37066	23768.63039520762	0
2	37070	23769.022251738082	1
2	37071	23769.236936996058	0
2	37075	23769.551630667056	1
2	37076	23770.176615432669	0
2	37272	23899.259692416234	1
2	37273	23899.26667548563	0
2	37310	23923.490833627897	1
2	37311	23924.370734228035	0
2	37465	24057.266100140519	1
2	37466	24057.773464055326	0
2	37505	24080.843578996471	1
2	37507	24081.124568776063	2
2	37508	24081.237310665063	1
2	37511	24081.727866475991	0
2	37625	24143.385927797485	1
2	37626	24143.812120143482	0
2	37670	24167.625291349465	1
2	37671	24167.945416332199	0
2	37680	24169.140198664095	1
2	37681	24169.31770878988	0
2	37685	24169.799392250685	1
2	37686	24170.090055390724	0
2	37725	24189.146034502304	1
2	37726	24189.16400464991	0
2	37845	24270.40931275959	1
2	37846	24270.934282979542	0
2	37925	24310.400317005422	1
2	37926	24310.61732148462	0
2	37950	24333.463802996733	1
2	37951	24333.815017016114	0
2	38010	24374.402644729222	1
2	38011	24374.801448875974	0
2	38015	24375.167819007682	1
2	38016	24375.558542324399	0
2	38045	24385.838697005068	1
2	38046	24386.377001334228	0
2	38070	24393.911077742974	1
2	38071	24393.916019280705	0
2	38080	24395.238002395104	1
2	38081	24395.96596567912	0
2	38105	24412.350031126087	1
2	38108	24412.678368455617	0
2	38112	24412.988611869811	1
2	38113	24413.362577391349	0
2	38120	24414.098884516816	1
2	38121	24414.653330099097	0
2	38140	24430.721803776302	1
2	38141	24431.266878402729	0
2	38145	24431.606770720526	1
2	38146	24432.02300793634	0
2	38150	24432.059837126796	1
2	38151	24432.424623525126	0
2	38210	24472.926301662196	1
2	38212	24473.174065444798	2
2	38213	24473.611631130868	1
2	38218	24474.46002183759	0
2	38420	24608.626512096953	1
2	38421	24609.31108940343	0
2	38435	24611.306361071028	1
2	38436	24611.881171156268	0
2	38450	24617.116145654036	1
2	38451	24617.541303014854	0
2	38455	24617.615789753885	1
2	38456	24618.428411047446	0
2	38475	24660.095210560172	1
2	38476	24660.247865825638	0
2	38795	24886.100302168783	1
2	38796	24886.669386258132	0
2	38800	24886.809759079118	1
2	38801	24887.315066617138	0
2	38840	24912.175369537885	1
2	38841	24912.484215482406	0
2	38850	24913.582761311554	1
2	38851	24914.022681341588	0
2	38865	24917.32340072549	1
2	38866	24917.48967487851	0
2	38890	24933.316239751164	1
2	38891	24933.533665809794	0
2	38915	24940.815650551787	1
2	38916	24940.880682325959	0
2	38922	24941.482542152573	1
2	38923	24941.837314010542	0
2	38945	24963.41799002353	1
2	38946	24963.536692524188	0
2	39045	25019.067304828136	1
2	39046	25019.839098018682	0
2	39100	25040.630217115439	1
2	39101	25040.739151946464	0
2	39290	25173.74550058083	1
2	39291	25173.836424126507	0
2	39435	25266.957502140378	1
2	39438	25267.648698969568	0
2	39457	25269.807555619932	1
2	39458	25270.031036509164	0
2	39520	25311.352766035328	1
2	39521	25312.097166945665	0
2	39580	25344.619980648657	1
2	39581	25344.971212785179	0
2	39610	25360.29502176806	1
2	39611	25360.611610644806	0
2	39665	25389.38906361821	1
2	39666	25389.88426240853	0
2	39730	25421.096474769905	1
2	39731	25421.240515825333	0
2	39765	25431.977385863801	1
2	39766	25432.128772717087	0
2	39820	25458.247767889609	1
2	39821	25458.65570055926	0
2	39825	25458.950505226211	1
2	39826	25459.164743267277	0
2	39830	25459.295751484301	1
2	39831	25459.759986863516	0
2	39845	25465.892330362791	1
2	39847	25466.105706485707	2
2	39848	25466.50762586428	1
2	39851	25467.022978648796	0
2	40030	25549.47609197827	1
2	40031	25549.590225991366	0
2	40045	25551.405696869637	1
2	40047	25551.507598443788	2
2	40048	25552.158027435037	1
2	40053	25553.122355737666	0
2	40065	25556.170073536541	1
2	40068	25556.586152374626	0
2	40190	25619.73571970428	1
2	40193	25619.943562378178	0
2	40240	25653.88379987704	1
2	40241	25654.818339662278	0
2	40290	25672.033981072765	1
2	40291	25672.277527124568	0
2	40340	25699.812686282542	1
2	40341	25700.069524689892	0
2	40365	25710.840767080729	1
2	40366	25710.859004283281	0
2	40380	25715.748489125886	1
2	40383	25716.340595807883	0
2	40387	25716.437566934242	1
2	40390	25716.805872557688	0
2	40435	25747.204521554969	1
2	40436	25748.025539075243	0
2	40465	25762.863265350643	1
2	40466	25763.481237569338	0
2	40530	25814.406651470659	1
2	40531	25814.731509100972	0
2	40675	25918.721765655627	1
2	40676	25919.160015758511	0
2	40705	25941.111329973788	1
2	40706	25941.184299656782	0
2	40720	25945.933310211617	1
2	40721	25946.222786061333	0
2	40790	26006.596363064746	1
2	40791	26007.354270311573	0
2	40795	26007.749779652338	1
2	40796	26007.902643205773	0
2	40835	26021.629611697083	1
2	40837	26022.020053913398	2
2	40840	26022.482167346254	1
2	40845	26023.334018739769	0
2	40852	26024.014471056099	1
2	40853	26024.432342001228	0
2	40910	26045.87846617163	1
2	40911	26046.45895736569	0
2	41002	26122.783623568075	1
2	41003	26122.909587111261	0
2	41090	26172.105176278687	1
2	41091	26172.703928312239	0
2	41120	26193.559198300513	1
2	41121	26193.802490727512	0
2	41322	26319.833956075601	1
2	41323	26319.859566672838	0
2	41330	26320.608647777157	1
2	41331	26321.404742884909	0
2	41450	26382.239117611392	1
2	41451	26382.992634273077	0
2	41475	26386.816463673898	1
2	41476	26387.314689673105	0
2	41585	26437.417158773956	1
2	41586	26437.434154730344	0
2	41645	26480.532458418651	1
2	41646	26480.782922893674	0
2	41655	26482.481467068983	1
2	41656	26482.827859613485	0
2	41660	26482.866203817671	1
2	41661	26483.423824633564	0
2	41665	26484.00769875795	1
2	41666	26484.049165354575	0
2	41740	26511.750187352247	1
2	41741	26512.162424248371	0
2	41755	26516.035463757607	1
2	41758	26516.744597712496	0
2	41805	26570.904900493063	1
2	41807	26571.45421426272	2
2	41808	26571.765951181929	1
2	41811	26572.544852500762	0
2	41855	26612.857712204066	1
2	41856	26613.097577745196	0
2	41910	26637.600580375739	1
2	41911	26637.96689149823	0
2	41955	26664.842961140781	1
2	41956	26665.123089498395	0
2	42085	26723.58702653416	1
2	42086	26723.841576189895	0
2	42097	26724.887834503624	1
2	42098	26725.665478593039	0
2	42130	26735.173510179587	1
2	42131	26736.025259306517	0
2	42140	26736.576883606832	1
2	42141	26737.308439502728	0
2	42170	26747.720078108615	1
2	42171	26748.075646383782	0
2	42175	26748.33781694544	1
2	42176	26748.893739207835	0
2	42260	26818.512233023138	1
2	42261	26818.797522579743	0
2	42290	26827.686171690154	1
2	42291	26828.571438233783	0
2	42480	26997.132276069552	1
2	42481	26997.299587478946	0
2	42525	27031.407459619705	1
2	42526	27031.651569049376	0
2	42610	27090.804630151542	1
2	42611	27091.220458951753	0
2	42615	27091.514081451908	1
2	42616	27091.786880048059	0
2	42640	27101.047445730863	1
2	42641	27101.32511229507	0
2	42700	27132.05986745956	1
2	42701	27132.371404893364	0
2	42712	27133.875743432142	1
2	42713	27134.088891036755	0
2	42730	27140.550522281993	1
2	42731	27141.24676764737	0
2	42795	27194.21354008074	1
2	42796	27194.896251357616	0
2	42982	27321.906721752873	1
2	42983	27322.004225446225	0
2	43050	27363.84661629712	1
2	43051	27364.370224918734	0
2	43200	27425.881207855346	1
2	43201	27425.97177005292	0
2	43320	27521.492638075173	1
2	43321	27522.033496062926	0
2	43415	27577.343611778727	1
2	43416	27577.468699716963	0
2	43430	27590.954937930287	1
2	43431	27591.471555617387	0
2	43435	27591.587624576792	1
2	43436	27591.978219711576	0
2	43555	27675.554176271546	1
2	43556	27676.162045047522	0
2	43600	27734.162082953605	1
2	43601	27734.549246717563	0
2	43715	27841.189436257006	1
2	43716	27841.754063389378	0
2	43895	27940.518453992091	1
2	43896	27941.11948423019	0
2	43960	27983.33824379473	1
2	43961	27983.47543910097	0
2	43985	27999.572969744553	1
2	43986	28000.37964840174	0
2	43990	28000.768864445926	1
2	43993	28001.327211874596	0
2	44110	28087.982639415333	1
2	44111	28088.447196331395	0
2	44215	28212.102606829139	1
2	44217	28212.462791684835	2
2	44219	28212.686135146284	3
2	44220	28212.844605268837	2
2	44225	28213.270147215641	1
2	44228	28213.837584359963	0
2	44235	28214.66995126159	1
2	44236	28215.421590599717	0
2	44265	28234.317468760313	1
2	44266	28234.673086289574	0
2	44285	28249.127190449978	1
2	44286	28249.861498788878	0
2	44430	28354.374931617219	1
2	44432	28354.428560007338	2
2	44433	28355.189426515566	1
2	44438	28356.148427458655	0
2	44442	28356.318560889024	1
2	44443	28356.862803423813	0
2	44540	28431.545131315502	1
2	44541	28432.268978240685	0
2	44590	28474.747912114489	1
2	44592	28475.174555838659	2
2	44593	28475.579434544605	1
2	44596	28476.343116839335	0
2	44605	28480.053548943439	1
2	44606	28480.708106857418	0
2	44690	28573.010912984435	1
2	44691	28573.033312505732	0
2	44695	28573.418283993299	1
2	44696	28573.453363015984	0
2	44825	28651.015383590177	1
2	44828	28651.395539785608	0
2	44860	28668.113781597424	1
2	44861	28668.705084118909	0
2	44880	28679.527230359052	1
2	44881	28679.87445535903	0
2	44885	28680.41480250932	1
2	44886	28680.677346427237	0
2	44910	28684.597582674763	1
2	44911	28684.829652119224	0
2	45105	28807.019026784045	1
2	45106	28807.105720734232	0
2	45130	28815.482136338516	1
2	45131	28816.047442909124	0
2	45175	28850.041387878159	1
2	45176	28850.451509935669	0
2	45235	28896.518735174871	1
2	45236	28897.051730537197	0
2	45240	28897.22973127521	1
2	45242	28897.969003649186	2
2	45243	28898.050234174697	1
2	45246	28898.520057706876	0
2	45340	28958.078048847823	1
2	45341	28958.507902226066	0
2	45355	28977.743375254156	1
2	45356	28977.861799561062	0
2	45442	29074.851586418234	1
2	45443	29074.910231107062	0
2	45452	29076.170428160078	1
2	45453	29076.510087758869	0
2	45470	29079.27499870706	1
2	45471	29079.621754199942	0
2	45530	29130.692755623157	1
2	45531	29131.276471331155	0
2	45565	29157.049883396796	1
2	45566	29158.008452089408	0
2	45595	29163.824270800775	1
2	45597	29163.944628819955	2
2	45598	29164.616795792737	1
2	45601	29165.343545641218	0
2	45680	29198.837832108909	1
2	45681	29199.096342681104	0
2	45685	29199.11673754835	1
2	45686	29199.555248162185	0
2	45730	29220.460860694296	1
2	45731	29220.682895259549	0
2	45755	29226.926241691472	1
2	45756	29227.434174441757	0
2	45765	29228.276518391936	1
2	45766	29228.814542054721	0
2	45825	29258.861998875879	1
2	45826	29259.283431373654	0
2	45905	29321.738169499404	1
2	45906	29322.033837708842	0
2	46140	29482.225180600702	1
2	46141	29482.703869356594	0
2	46210	29513.329767848737	1
2	46211	29513.476973940663	0
2	46305	29576.200670492206	1
2	46306	29576.575770166553	0
2	46320	29585.84500492041	1
2	46321	29586.219218254981	0
2	46380	29629.615012921651	1
2	46381	29629.802684472177	0
2	46425	29653.298624173111	1
2	46426	29653.504977712088	0
2	46435	29656.148312581608	1
2	46436	29656.436249939418	0
2	46495	29710.658051122239	1
2	46496	29711.00031420023	0
2	46515	29739.272569429433	1
2	46516	29739.404814967055	0
2	46570	29779.370164338272	1
2	46571	29779.860952301002	0
2	46615	29793.222061024567	1
2	46616	29793.664573258792	0
2	46635	29797.701214375298	1
2	46636	29797.703178547294	0
2	46775	29879.837543538081	1
2	46777	29879.961498453917	2
2	46779	29880.044453945137	3
2	46780	29880.207427514816	2
2	46783	29881.177280156879	1
2	46787	29881.292989751869	2
2	46788	29882.097787394893	1
2	46791	29882.967365523294	0
2	46830	29900.34194746249	1
2	46831	29900.757120452872	0
2	46835	29901.303266475345	1
2	46836	29901.668499668831	0
2	46905	29947.791880575614	1
2	46906	29948.157990708046	0
2	46920	29956.261531849987	1
2	46921	29956.392602186736	0
3	0	0	0
3	20	15.564644477041	1
3	21	16.179609564794	0
3	25	16.370325837265	1
3	26	16.729548969222	0
3	32	17.149135018833	1
3	36	18.599555927944	0
3	265	144.792248672676	1
3	266	144.855879008087	0
3	275	146.598017613746	1
3	276	146.821436663926	0
3	280	147.563659950048	1
3	281	147.594408864597	0
3	290	158.197210233462	1
3	291	158.404296922174	0
3	295	158.555872885966	1
3	296	158.809723553902	0
3	310	162.316936010624	1
3	311	162.861761661792	0
3	315	163.036870559044	1
3	316	163.387759101378	0
3	425	257.397285850789	1
3	426	258.002207227906	0
3	440	275.148124195876	1
3	441	275.26123823768	0
3	445	275.407431152934	1
3	446	275.663554983423	0
3	467	289.524588320013	1
3	471	290.991161742787	0
3	477	291.809128782666	1
3	481	292.271597567973	0
3	530	318.790990724213	1
3	531	319.221578972388	0
3	590	377.991536489474	1
3	591	378.71106859496	0
3	615	389.44019628195	1
3	616	390.288777834356	0
3	685	437.108158275178	1
3	686	437.217028126845	0
3	745	458.316393880675	1
3	746	458.519453529003	0
3	805	495.191935848165	1
3	806	495.77693052286	0
3	845	511.632869101577	1
3	846	511.678927580928	0
3	850	511.740041795259	1
3	851	512.357807864211	0
3	880	534.228921459312	1
3	881	534.471578401958	0
3	955	578.391811994631	1
3	956	578.968694530815	0
3	1050	697.700735054794	1
3	1051	698.101036054895	0
3	1210	809.631971100422	1
3	1211	810.495880406464	0
3	1245	830.847296373153	1
3	1246	831.027160323149	0
3	1270	842.593658246373	1
3	1272	842.94742734366	2
3	1273	843.531094589162	1
3	1277	844.038323564283	2
3	1278	844.453068515363	1
3	1282	844.674750728002	2
3	1283	845.223875361292	1
3	1286	846.097305941053	0
3	1365	880.474949990443	1
3	1366	880.578729574167	0
3	1375	881.193775554902	1
3	1376	881.699880822347	0
3	1440	917.227130494772	1
3	1441	917.523805733052	0
3	1460	923.124340203558	1
3	1461	923.397872807705	0
3	1470	926.294337822355	1
3	1476	927.421257221715	0
3	1500	940.986804906261	1
3	1501	941.587793646604	0
3	1520	958.707377017654	1
3	1521	958.785353509115	0
3	1535	965.179486277865	1
3	1536	965.67240330241	0
3	1562	970.775254602179	1
3	1566	972.215033111401	0
3	1705	1053.458728943228	1
3	1706	1053.696534137477	0
3	1780	1091.01429312981	1
3	1781	1091.356152220685	0
3	1790	1100.06038096214	1
3	1791	1100.086262679786	0
3	1805	1109.531429468555	1
3	1806	1109.955083004827	0
3	1840	1121.28250671986	1
3	1841	1121.53645745347	0
3	1855	1129.209878943454	1
3	1856	1129.787109420267	0
3	1875	1148.192199641746	1
3	1876	1148.565740244288	0
3	1912	1187.833011275828	1
3	1921	1190.278517987565	0
3	1980	1217.518173777252	1
3	1991	1219.455293484491	0
3	2035	1245.399341554059	1
3	2036	1245.655478901336	0
3	2085	1271.335786518519	1
3	2086	1271.599894627528	0
3	2285	1402.666027659946	1
3	2286	1403.515461049406	0
3	2310	1427.259886767077	1
3	2311	1427.355551169391	0
3	2320	1433.58924769183	1
3	2321	1434.094625626874	0
3	2350	1457.698467034082	1
3	2351	1458.025495558571	0
3	2355	1458.446444069676	1
3	2356	1458.876245571546	0
3	2365	1460.180536824699	1
3	2367	1460.291058028014	2
3	2368	1460.48043113971	1
3	2371	1461.175446126292	0
3	2515	1567.411483907319	1
3	2516	1567.486797639405	0
3	2520	1567.987759369406	1
3	2521	1568.369304228577	0
3	2540	1581.649728611278	1
3	2541	1581.842519956734	0
3	2550	1582.976880702304	1
3	2551	1583.388776189697	0
3	2555	1583.824678990312	1
3	2556	1584.310412582385	0
3	2562	1584.832041680596	1
3	2566	1585.942359740383	0
3	2652	1656.961967523407	1
3	2657	1657.902211247124	2
3	2658	1658.182306561455	1
3	2661	1659.02992571399	0
3	2670	1660.33071549786	1
3	2671	1660.748533543994	0
3	2685	1664.292012204751	1
3	2686	1665.027614596903	0
3	2710	1669.494802327054	1
3	2711	1669.961798125413	0
3	2730	1683.849221933394	1
3	2731	1684.091734448438	0
3	2760	1714.862737737053	1
3	2761	1715.499311351045	0
3	2950	1860.127642972254	1
3	2951	1860.83992831628	0
3	3005	1892.815501836522	1
3	3006	1892.939369980306	0
3	3020	1895.564080097947	1
3	3021	1895.961504415222	0
3	3025	1896.254366257763	1
3	3026	1896.715220648315	0
3	3070	1932.05754708618	1
3	3071	1932.372430335276	0
3	3080	1933.494236727768	1
3	3081	1933.560930009058	0
3	3167	2014.680845172369	1
3	3171	2015.60151434211	0
3	3185	2024.184087237765	1
3	3186	2024.27976805602	0
3	3195	2030.281264977626	1
3	3196	2030.789136262389	0
3	3225	2045.419540147735	1
3	3227	2045.721512452493	2
3	3228	2045.834921242006	1
3	3231	2046.5250289122	0
3	3235	2047.108435069597	1
3	3236	2047.206620706933	0
3	3315	2117.040655030076	1
3	3316	2117.482507874871	0
3	3340	2131.142619180446	1
3	3341	2131.675715465202	0
3	3355	2135.87269996293	1
3	3356	2135.906074808571	0
3	3365	2137.162217380948	1
3	3366	2137.227261236182	0
3	3420	2169.127712288865	1
3	3421	2169.224785623904	0
3	3480	2225.658571137125	1
3	3481	2226.098163549475	0
3	3515	2249.768056750433	1
3	3516	2249.917860876222	0
3	3540	2262.489316733763	1
3	3541	2262.878088331862	0
3	3560	2277.112707435469	1
3	3561	2277.192807427449	0
3	3570	2281.223878813139	1
3	3571	2281.285844214448	0
3	3730	2410.648328162844	1
3	3731	2410.871367394572	0
3	3760	2429.666584471505	1
3	3761	2429.74743551075	0
3	3765	2429.757482262312	1
3	3766	2430.195545945303	0
3	3795	2440.547124052131	1
3	3796	2441.255034493132	0
3	3805	2442.650214873344	1
3	3806	2442.836034208715	0
3	3830	2464.493177809594	1
3	3831	2465.028384940072	0
3	3885	2499.301799982756	1
3	3886	2499.692556536614	0
3	3890	2500.012435929931	1
3	3891	2500.433142457481	0
3	3925	2537.950405237659	1
3	3926	2538.529572523234	0
3	3950	2547.712359619579	1
3	3951	2548.166242359867	0
3	3995	2565.685056666584	1
3	3996	2566.092790506287	0
3	4040	2602.298745216694	1
3	4041	2602.928432218414	0
3	4110	2637.892767049872	1
3	4111	2638.462036361621	0
3	4142	2660.476919322291	1
3	4146	2661.887151795054	0
3	4160	2683.633363281963	1
3	4161	2683.640231407714	0
3	4170	2686.557678447394	1
3	4171	2687.333454677768	0
3	4220	2722.960776366024	1
3	4221	2723.240226600343	0
3	4250	2738.553862182114	1
3	4251	2738.748525719489	0
3	4265	2741.881019104384	1
3	4266	2742.797006911407	0
3	4325	2775.197869714983	1
3	4326	2775.590192063902	0
3	4450	2875.658445392076	1
3	4451	2876.352765451401	0
3	4515	2917.431917766155	1
3	4516	2918.141434631247	0
3	4525	2919.705443038219	1
3	4526	2920.031654952636	0
3	4545	2923.87303562545	1
3	4546	2924.324076902836	0
3	4575	2962.788394090121	1
3	4576	2962.832754204496	0
3	4615	2992.615350078564	1
3	4616	2992.947228442724	0
3	4620	2993.458282654464	1
3	4621	2993.813341709585	0
3	4655	3021.594671843444	1
3	4656	3021.93342560366	0
3	4762	3088.118239102638	1
3	4766	3089.050372819073	0
3	4840	3121.283739229613	1
3	4841	3122.032683637226	0
3	4920	3202.130780481226	1
3	4921	3202.196353987356	0
3	4935	3209.23108172365	1
3	4936	3209.495269765089	0
3	4985	3237.1091315085	1
3	4986	3237.407133380857	0
3	5000	3242.111594510581	1
3	5001	3242.39013250517	0
3	5015	3249.9483246783	1
3	5016	3250.084724547185	0
3	5030	3251.395134715864	1
3	5031	3251.783664308612	0
3	5035	3252.100259403834	1
3	5036	3252.256094016305	0
3	5045	3254.558730282745	1
3	5046	3254.778888851541	0
3	5055	3260.696885423051	1
3	5057	3261.058479542634	2
3	5058	3261.120293518597	1
3	5062	3261.196137794536	2
3	5064	3261.313629604532	3
3	5065	3261.976394939072	2
3	5068	3262.660148709662	1
3	5071	3263.588614755705	0
3	5112	3301.234767273393	1
3	5117	3301.502651971627	2
3	5118	3302.20552280442	1
3	5127	3302.989530200315	2
3	5128	3303.264746446434	1
3	5131	3304.173550882974	0
3	5165	3323.87704629165	1
3	5166	3324.34021955645	0
3	5170	3324.409641470017	1
3	5171	3325.338156586376	0
3	5175	3325.445357759409	1
3	5176	3326.02355005015	0
3	5180	3326.655282002497	1
3	5181	3326.918077425476	0
3	5285	3403.125194807988	1
3	5286	3403.92116225131	0
3	5365	3461.490400045255	1
3	5366	3462.050209701579	0
3	5385	3477.803211537988	1
3	5392	3479.234674510536	2
3	5393	3479.310046474207	1
3	5396	3479.875587212797	0
3	5415	3503.011414495097	1
3	5416	3503.113879822737	0
3	5470	3536.630348921601	1
3	5471	3537.260953368348	0
3	5475	3537.462214045247	1
3	5476	3537.729353363913	0
3	5510	3560.821255695686	1
3	5511	3561.46980765291	0
3	5632	3622.400368332853	1
3	5651	3626.271039910576	0
3	5660	3627.518964377225	1
3	5661	3627.583593247886	0
3	5675	3635.822080630837	1
3	5676	3635.942769165917	0
3	5680	3636.235565203797	1
3	5686	3637.152474137882	0
3	5700	3654.700314412621	1
3	5701	3654.887525521407	0
3	5745	3676.783867062356	1
3	5746	3677.474874943545	0
3	5760	3682.661482604944	1
3	5761	3682.759130253737	0
3	5765	3683.174905630567	1
3	5766	3683.601206737991	0
3	5775	3684.619820156269	1
3	5776	3685.459003709827	0
3	5780	3685.562137571453	1
3	5781	3686.048157639673	0
3	5820	3704.405721782644	1
3	5821	3705.053930930852	0
3	5825	3705.303104501003	1
3	5826	3705.989451599413	0
3	5885	3734.101382975306	1
3	5886	3734.405397380843	0
3	5940	3756.490209362407	1
3	5941	3756.864123132375	0
3	5990	3786.686571226543	1
3	5991	3786.968324604057	0
3	6050	3822.404161568897	1
3	6051	3822.523801281624	0
3	6075	3835.93063380459	1
3	6076	3836.16582586875	0
3	6115	3859.397090655575	1
3	6116	3859.560797553768	0
3	6122	3859.735960627013	1
3	6127	3860.901617505219	2
3	6128	3861.045431158671	1
3	6131	3861.652461160419	0
3	6175	3891.617895051016	1
3	6176	3891.657987204167	0
3	6210	3907.837889296519	1
3	6211	3908.308010166843	0
3	6220	3910.664362012858	1
3	6221	3911.040213485359	0
3	6244	3934.108066826045	1
3	6251	3935.473282002739	0
3	6257	3936.045707977234	1
3	6261	3936.76816408009	0
3	6285	3949.06001108391	1
3	6306	3952.663150057781	0
3	6315	3953.252091869278	1
3	6316	3953.997410359539	0
3	6325	3963.516622962613	1
3	6326	3963.922495179342	0
3	6350	3981.243170482783	1
3	6351	3981.53001447267	0
3	6370	3984.788164118653	1
3	6371	3985.044640053628	0
3	6375	3985.231479768073	1
3	6377	3985.320883515643	2
3	6378	3985.615892983513	1
3	6382	3985.826612374457	2
3	6383	3986.251583067799	1
3	6386	3986.935497661127	0
3	6400	3990.190265057478	1
3	6401	3990.875760051807	0
3	6525	4085.70676571828	1
3	6526	4086.008483591018	0
3	6640	4164.709575951569	1
3	6641	4165.139138061216	0
3	6645	4165.228100006381	1
3	6646	4165.696670265159	0
3	6690	4184.990388306077	1
3	6696	4186.490772834815	0
3	6705	4188.102592856114	1
3	6706	4188.162651367151	0
3	6730	4199.650882301073	1
3	6731	4200.060230967455	0
3	6735	4200.286820395501	1
3	6736	4200.772535475303	0
3	6755	4208.243111462411	1
3	6756	4209.182218584876	0
3	6765	4211.346210167968	1
3	6766	4211.855580651005	0
3	6810	4246.818256194048	1
3	6811	4247.465459642846	0
3	6820	4249.502305714632	1
3	6821	4250.124941541323	0
3	6825	4250.674679924745	1
3	6826	4251.100655211577	0
3	6975	4385.253649229312	1
3	6976	4385.379198220557	0
3	7005	4413.355878687579	1
3	7006	4414.277132081859	0
3	7015	4417.117093751898	1
3	7016	4417.209634082917	0
3	7020	4417.363397774323	1
3	7021	4418.0821451496	0
3	7025	4418.157884385839	1
3	7026	4418.864110078629	0
3	7100	4486.021922491058	1
3	7101	4486.339008221497	0
3	7130	4505.092744188182	1
3	7131	4505.453255389063	0
3	7190	4530.49012968072	1
3	7191	4531.158479651123	0
3	7200	4534.19752335848	1
3	7201	4534.207140950696	0
3	7250	4552.746188990819	1
3	7251	4553.331152962965	0
3	7272	4561.751193923484	1
3	7276	4563.295791031289	0
3	7342	4608.050971204306	1
3	7346	4608.974491506574	0
3	7355	4609.786745279736	1
3	7356	4610.230778608321	0
3	7370	4621.002172533628	1
3	7371	4621.414886075459	0
3	7375	4621.919179482703	1
3	7376	4622.399376083925	0
3	7425	4670.916915589501	1
3	7426	4671.806625382617	0
3	7485	4711.717295755192	1
3	7486	4711.809470585064	0
3	7540	4740.699591886189	1
3	7541	4741.03041904242	0
3	7615	4803.356235768476	1
3	7616	4803.604536410498	0
3	7760	4898.169194747678	1
3	7761	4898.588464503659	0
3	7770	4899.845309020909	1
3	7771	4900.08056867115	0
3	7780	4910.725035436919	1
3	7781	4911.131816028159	0
3	7835	4948.147055296524	1
3	7836	4948.274860944631	0
3	7885	4971.104163344927	1
3	7886	4971.389562127253	0
3	7940	5012.779976016697	1
3	7941	5013.54272513758	0
3	7950	5014.335853308418	1
3	7951	5015.058514624281	0
3	7965	5018.041684543481	1
3	7966	5018.279101306616	0
3	7995	5034.368531327111	1
3	8006	5036.101251882615	0
3	8010	5036.14786636185	1
3	8016	5037.293538138431	0
3	8040	5054.56129316446	1
3	8041	5054.636539122168	0
3	8055	5063.410040246963	1
3	8056	5063.795146740721	0
3	8105	5095.214211887186	1
3	8106	5095.548620770539	0
3	8160	5114.463628848538	1
3	8161	5115.02499649327	0
3	8195	5136.539799024491	1
3	8196	5136.939906061691	0
3	8200	5137.484453734374	1
3	8201	5137.927175345243	0
3	8270	5190.504832202883	1
3	8271	5190.569818034183	0
3	8405	5263.091505921015	1
3	8407	5263.709355611724	2
3	8408	5263.864433921373	1
3	8411	5264.386028491671	0
3	8480	5324.999576974813	1
3	8481	5325.780266453056	0
3	8530	5368.387738583905	1
3	8531	5369.134373233996	0
3	8535	5369.679944673219	1
3	8536	5370.01994529261	0
3	8550	5373.841717627042	1
3	8551	5373.918667659287	0
3	8560	5375.026711672498	1
3	8561	5375.130337087002	0
3	8665	5429.542718974009	1
3	8666	5430.110952604008	0
3	8755	5480.927160999335	1
3	8756	5481.159444286896	0
3	8840	5546.357348658097	1
3	8841	5546.478785760076	0
3	8845	5546.733949158034	1
3	8851	5547.48268441677	0
3	8870	5552.571575405066	1
3	8871	5553.03392643224	0
3	8910	5570.315769969913	1
3	8911	5570.55540748537	0
3	8915	5570.889718413483	1
3	8916	5571.514713656022	0
3	8920	5572.003080107022	1
3	8921	5572.319504331848	0
3	8965	5598.149333177597	1
3	8966	5598.358911237917	0
3	9000	5615.40791100418	1
3	9001	5615.566137598578	0
3	9040	5641.372349771675	1
3	9041	5642.191123396729	0
3	9070	5668.639763688466	1
3	9071	5669.110380575683	0
3	9125	5691.550217769352	1
3	9126	5691.841376006892	0
3	9145	5695.558434272932	1
3	9146	5695.716214014195	0
3	9200	5735.683387351348	1
3	9201	5736.34240588178	0
3	9210	5736.916021128053	1
3	9211	5737.207636090927	0
3	9275	5789.07770080311	1
3	9276	5789.603550790853	0
3	9295	5814.990217069738	1
3	9296	5815.675987049329	0
3	9310	5818.070767485662	1
3	9311	5818.221033315214	0
3	9390	5865.468066633113	1
3	9391	5865.662071573173	0
3	9425	5894.201962522292	1
3	9426	5894.686869478148	0
3	9470	5923.060132742697	1
3	9471	5923.557348191264	0
3	9610	6001.579259516805	1
3	9611	6001.582795025927	0
3	9635	6023.778135975193	1
3	9636	6024.575716203287	0
3	9712	6115.35376349618	1
3	9716	6116.892081550845	0
3	9740	6129.357286550674	1
3	9741	6130.136150588652	0
3	9775	6159.893979888141	1
3	9776	6160.354546373051	0
3	9850	6249.416717673616	1
3	9851	6249.481386868791	0
3	9855	6249.535503539093	1
3	9861	6251.309520492419	0
3	9870	6252.856069713364	1
3	9871	6252.983550546081	0
3	9960	6314.097379660281	1
3	9961	6314.579749127693	0
3	9970	6315.631792298772	1
3	9972	6315.826424436448	2
3	9973	6316.303441107861	1
3	9976	6316.906188363751	0
3	10010	6357.275876228026	1
3	10011	6357.718455851104	0
3	10040	6393.90909170831	1
3	10041	6394.200513897731	0
3	10050	6395.310282267099	1
3	10051	6395.559104013431	0
3	10145	6450.012416830538	1
3	10147	6450.081332735806	2
3	10148	6450.419005855347	1
3	10151	6450.84898843764	0
3	10180	6467.863923175847	1
3	10181	6467.91343205214	0
3	10190	6468.773394460087	1
3	10191	6469.098518877164	0
3	10255	6506.466607935873	1
3	10256	6506.83255892608	0
3	10285	6519.341701455303	1
3	10286	6519.463038387198	0
3	10307	6523.051237185489	1
3	10311	6524.129166507263	0
3	10320	6525.671837777172	1
3	10321	6525.875075190475	0
3	10342	6530.194088329514	1
3	10346	6531.05245734811	0
3	10450	6616.959386353501	1
3	10451	6617.093805175341	0
3	10585	6735.029404784074	1
3	10586	6735.07736424261	0
3	10610	6746.194560150969	1
3	10611	6746.610260718259	0
3	10630	6751.500437913533	1
3	10631	6751.870175348909	0
3	10725	6825.172156947042	1
3	10726	6825.59966352453	0
3	10960	7049.516130016523	1
3	10961	7049.959016757769	0
3	10970	7051.064737780753	1
3	10971	7051.657623450253	0
3	11085	7131.47009029474	1
3	11086	7132.096838463943	0
3	11090	7132.643324162716	1
3	11091	7133.070027665615	0
3	11095	7133.307219984829	1
3	11096	7133.83131814949	0
3	11185	7170.781719771025	1
3	11186	7171.192177722037	0
3	11192	7171.223705308443	1
3	11194	7171.320882543492	2
3	11199	7172.72596763734	3
3	11200	7173.009847692347	2
3	11209	7173.933336520954	3
3	11210	7174.103973735071	2
3	11213	7174.827257862727	1
3	11216	7175.38643659795	0
3	11260	7211.002121011818	1
3	11261	7211.17347995506	0
3	11325	7247.499990536956	1
3	11326	7248.341205510936	0
3	11380	7272.473075821668	1
3	11381	7273.259142522263	0
3	11395	7287.967586308959	1
3	11396	7288.404660047268	0
3	11425	7323.091333620602	1
3	11426	7323.285496105319	0
3	11437	7324.433935453879	1
3	11446	7326.469598872533	0
3	11530	7391.75065243619	1
3	11531	7391.990834848244	0
3	11560	7413.180464275907	1
3	11561	7413.568388532207	0
3	11565	7413.803312800638	1
3	11566	7414.272048668622	0
3	11605	7438.243274125603	1
3	11606	7439.009815150213	0
3	11615	7440.764338802484	1
3	11616	7441.29472908755	0
3	11625	7442.089030159158	1
3	11626	7442.612491525665	0
3	11745	7517.365269788975	1
3	11746	7517.543538842669	0
3	11795	7543.522940042186	1
3	11796	7543.953445111105	0
3	11805	7545.833342235393	1
3	11806	7546.176434577605	0
3	11830	7551.51220438687	1
3	11832	7551.651055450056	2
3	11833	7551.946237999427	1
3	11836	7552.693508453428	0
3	11840	7553.313850027089	1
3	11841	7553.597757844993	0
3	11845	7554.308936934089	1
3	11846	7554.352033267676	0
3	11900	7596.620812142329	1
3	11901	7596.934802626367	0
3	11910	7601.365821505871	1
3	11911	7601.754700358898	0
3	11980	7649.853020769883	1
3	11986	7650.857846855449	0
3	11995	7651.549288408585	1
3	11996	7652.122054846016	0
3	12035	7681.895946434475	1
3	12036	7681.947859252125	0
3	12040	7682.216641881368	1
3	12041	7682.385387534482	0
3	12165	7732.860420237857	1
3	12166	7732.976460477305	0
3	12190	7745.004948277188	1
3	12191	7745.521987196724	0
3	12220	7758.183342968735	1
3	12221	7758.588882698995	0
3	12250	7805.657971985065	1
3	12251	7806.402596551557	0
3	12255	7807.084804851957	1
3	12256	7807.209811146236	0
3	12265	7812.268926771542	1
3	12266	7812.452535644584	0
3	12420	7896.14537196276	1
3	12427	7896.903202729946	2
3	12428	7897.144438154462	1
3	12431	7897.932704083787	0
3	12470	7912.162164999841	1
3	12471	7912.739790138608	0
3	12475	7913.283097986721	1
3	12476	7913.511060626717	0
3	12530	7994.066987604041	1
3	12531	7994.468604115253	0
3	12575	8030.430966628073	1
3	12576	8030.432689977412	0
3	12585	8033.007674921219	1
3	12587	8033.058464490173	2
3	12588	8033.194976634063	1
3	12591	8033.757578121681	0
3	12620	8059.25743694689	1
3	12621	8059.850209975919	0
3	12660	8081.664779721251	1
3	12661	8082.406588912992	0
3	12675	8084.861521242395	1
3	12676	8085.630657952927	0
3	12700	8095.534030788461	1
3	12701	8095.983846667773	0
3	12725	8134.459552947742	1
3	12726	8134.881583024662	0
3	12815	8197.041870731022	1
3	12816	8197.062362068631	0
3	12830	8209.551161558016	1
3	12831	8209.681583812861	0
3	12865	8220.579589722347	1
3	12866	8221.128224325075	0
3	12905	8244.181055603456	1
3	12906	8244.88031150294	0
3	12915	8245.87795826989	1
3	12916	8246.328271904769	0
3	12932	8248.795720624894	1
3	12936	8249.703131719345	0
3	12980	8273.564529874653	1
3	12981	8273.692384042497	0
3	13045	8327.845208210115	1
3	13046	8327.860405961091	0
3	13110	8352.666940422264	1
3	13111	8353.499213729179	0
3	13190	8427.65367705791	1
3	13191	8428.199763720777	0
3	13220	8443.688932647877	1
3	13221	8443.856198505664	0
3	13250	8461.724853627988	1
3	13251	8461.864037803739	0
3	13290	8489.744322556343	1
3	13291	8490.360704797032	0
3	13315	8513.257107661574	1
3	13316	8513.859564967512	0
3	13335	8519.572974641554	1
3	13336	8520.463065176566	0
3	13345	8521.626611812586	1
3	13346	8522.259408678488	0
3	13365	8525.782499111641	1
3	13366	8525.841331909941	0
3	13445	8594.017973271552	1
3	13446	8594.392696748577	0
3	13482	8633.242329173162	1
3	13486	8633.876964204475	0
3	13510	8649.749571770801	1
3	13511	8650.261897883666	0
3	13525	8663.880537702404	1
3	13526	8664.482883283207	0
3	13545	8667.50516639482	1
3	13546	8667.57996391244	0
3	13740	8774.003819373191	1
3	13741	8774.303715274541	0
3	13745	8774.760942369215	1
3	13746	8775.035181939008	0
3	13750	8775.12841081729	1
3	13751	8775.844970798597	0
3	13785	8806.423601598732	1
3	13786	8807.010855097269	0
3	13830	8834.816880275663	1
3	13831	8834.919258251932	0
3	13835	8835.183686948183	1
3	13836	8835.343712779513	0
3	13895	8876.798774255334	1
3	13896	8877.254061877077	0
3	13920	8881.893207969184	1
3	13921	8882.406969892282	0
3	13950	8901.65809875015	1
3	13956	8902.382590961904	0
3	14005	8942.681219064221	1
3	14006	8942.707557300308	0
3	14045	8970.918176301636	1
3	14046	8971.496797302578	0
3	14080	8981.233283718253	1
3	14082	8981.430055470581	2
3	14083	8981.851812952967	1
3	14086	8982.490763931466	0
3	14125	9008.017478739918	1
3	14126	9008.410333018971	0
3	14150	9024.078850412134	1
3	14151	9024.685504372586	0
3	14180	9036.209067759191	1
3	14181	9036.783928313976	0
3	14270	9099.881388248415	1
3	14276	9100.797932148255	0
3	14280	9100.937767545542	1
3	14281	9101.751945395996	0
3	14400	9159.084254894056	1
3	14401	9159.565674760442	0
3	14410	9160.496066863877	1
3	14411	9160.845141943264	0
3	14577	9262.375251285525	1
3	14581	9263.449140092663	0
3	14630	9283.86582133328	1
3	14631	9284.050360521442	0
3	14705	9329.283868556098	1
3	14707	9329.370916784074	2
3	14708	9329.680614430299	1
3	14711	9330.180439623939	0
3	14745	9341.776533885262	1
3	14746	9342.203982398948	0
3	14790	9369.251485002788	1
3	14791	9369.408529236089	0
3	14795	9369.667723391347	1
3	14796	9369.815198339816	0
3	14855	9413.028478282931	1
3	14856	9413.169900538565	0
3	14917	9438.00084883019	1
3	14921	9439.057502587018	0
3	14935	9442.824551321209	1
3	14936	9443.554472675307	0
3	14947	9444.835830970306	1
3	14951	9445.692143449784	0
3	14960	9446.788893746329	1
3	14961	9447.07802770792	0
3	14990	9456.431468251079	1
3	14991	9456.612142060779	0
3	15000	9458.50438358724	1
3	15001	9458.577461370808	0
3	15050	9479.691505302923	1
3	15051	9480.446743965441	0
3	15070	9490.269135612179	1
3	15071	9490.430991358574	0
3	15100	9502.140985060016	1
3	15101	9503.041639088809	0
3	15105	9503.516672945699	1
3	15106	9503.606971606116	0
3	15125	9513.861077294197	1
3	15126	9514.248200778348	0
3	15285	9611.367906285851	1
3	15286	9612.106903074726	0
3	15470	9730.246739320651	1
3	15471	9730.278267604802	0
3	15550	9793.68880894402	1
3	15551	9793.842269820335	0
3	15555	9794.536657614367	1
3	15556	9794.777211889892	0
3	15615	9820.181899710901	1
3	15616	9821.138756186023	0
3	15620	9821.390244580523	1
3	15621	9821.811721137698	0
3	15665	9854.438831692594	1
3	15667	9854.55570881897	2
3	15668	9854.935595267681	1
3	15671	9855.46362907304	0
3	15687	9861.926929577056	1
3	15691	9862.756372506732	0
3	15700	9869.485241745423	1
3	15701	9869.996606038496	0
3	15815	9945.174816332364	1
3	15816	9945.659125289703	0
3	15820	9945.982700086402	1
3	15822	9946.059468626291	2
3	15823	9946.384503595215	1
3	15827	9946.421256376809	2
3	15829	9946.733693005083	3
3	15830	9946.81697140188	2
3	15833	9947.526760270643	1
3	15836	9948.335883006976	0
3	15855	9966.630126787793	1
3	15856	9966.871123142252	0
3	15970	10042.73320202362	1
3	15971	10042.822067947078	0
3	15985	10049.331153756077	1
3	15986	10049.460836526354	0
3	16035	10090.306484375369	1
3	16036	10090.622220653971	0
3	16075	10133.52161555353	1
3	16076	10133.899013762408	0
3	16085	10135.516459618679	1
3	16087	10135.60539512289	2
3	16088	10135.829526654699	1
3	16091	10136.27463396678	0
3	16100	10137.451262054806	1
3	16101	10137.939128278546	0
3	16105	10138.798059409638	1
3	16106	10138.893076409936	0
3	16125	10143.774027340703	1
3	16126	10143.838739063074	0
3	16140	10147.911818057797	1
3	16141	10148.228132545384	0
3	16165	10161.104093061519	1
3	16166	10161.276855979821	0
3	16210	10201.238578541027	1
3	16211	10202.025239792411	0
3	16235	10220.000128718882	1
3	16236	10220.169406147497	0
3	16295	10254.710646978012	1
3	16296	10254.882689474542	0
3	16340	10302.38552531453	1
3	16341	10302.679317204259	0
3	16422	10375.11057650538	1
3	16426	10376.192542651496	0
3	16490	10411.548812537394	1
3	16491	10412.021983652891	0
3	16530	10431.064332852236	1
3	16531	10431.152913956728	0
3	16555	10448.980140743346	1
3	16557	10449.078415646708	2
3	16558	10449.079980617464	1
3	16566	10450.133530474483	0
3	16575	10451.747599939458	1
3	16576	10452.054777882236	0
3	16595	10456.690181935511	1
3	16602	10457.900857254224	2
3	16604	10458.0146402883	3
3	16605	10458.141953655339	2
3	16613	10459.240660417087	1
3	16616	10460.174042568363	0
3	16710	10520.933202099836	1
3	16711	10521.26321674502	0
3	16737	10525.641748708118	1
3	16741	10526.745225426047	0
3	16772	10534.917991063163	1
3	16776	10535.371569353268	0
3	16780	10535.591364604067	1
3	16786	10536.34414419394	0
3	16805	10548.108185492275	1
3	16807	10548.306473062125	2
3	16808	10548.633218515284	1
3	16811	10549.060763423323	0
3	16815	10549.79029166765	1
3	16816	10549.816422732446	0
3	16982	10655.929863827721	1
3	16986	10656.791225554571	0
3	17072	10711.465381011732	1
3	17081	10712.647229386385	0
3	17120	10745.195572429086	1
3	17121	10745.546769465575	0
3	17145	10752.840624935647	1
3	17146	10753.413317772596	0
3	17170	10762.409743399779	1
3	17171	10762.594151183988	0
3	17215	10784.31024373362	1
3	17216	10785.090690827708	0
3	17220	10785.504255262608	1
3	17222	10785.60695700063	2
3	17223	10785.618884784973	1
3	17231	10787.20991468631	0
3	17245	10792.749212326367	1
3	17246	10792.808208807805	0
3	17290	10827.612155794956	1
3	17291	10828.391181480811	0
3	17320	10862.784999017508	1
3	17321	10863.118441068843	0
3	17335	10865.534937512997	1
3	17336	10865.73296782621	0
3	17375	10880.188665268153	1
3	17376	10880.507317569151	0
3	17495	10987.295803456001	1
3	17496	10987.570115035886	0
3	17545	11021.768852716847	1
3	17546	11022.105389925244	0
3	17550	11022.349404470814	1
3	17551	11022.888853284589	0
3	17580	11036.442583159578	1
3	17581	11036.637057893877	0
3	17585	11036.82325552722	1
3	17587	11037.321537460811	2
3	17588	11037.349510875125	1
3	17591	11038.094433779888	0
3	17685	11091.149276111112	1
3	17686	11091.99883386115	0
3	17730	11133.197649601788	1
3	17731	11133.236108562684	0
3	17735	11133.290585362306	1
3	17736	11134.08456099863	0
3	17815	11197.12954280741	1
3	17816	11197.724368672051	0
3	17850	11213.856735813484	1
3	17851	11214.506868899275	0
3	17855	11215.072707674769	1
3	17856	11215.198874317563	0
3	17880	11226.693479619892	1
3	17881	11226.923475356644	0
3	17885	11227.698651116624	1
3	17886	11227.706702562992	0
3	18020	11330.576623144412	1
3	18021	11331.052297281689	0
3	18055	11360.675482813202	1
3	18056	11361.261599750561	0
3	18075	11364.05400765457	1
3	18076	11364.391343856064	0
3	18090	11367.162387903641	1
3	18091	11367.425524967313	0
3	18190	11458.132697658099	1
3	18191	11458.330465215915	0
3	18235	11487.451719523741	1
3	18236	11487.673581162723	0
3	18260	11500.814005404631	1
3	18261	11500.852702788093	0
3	18265	11501.071524547455	1
3	18266	11501.45379546845	0
3	18320	11522.609387115923	1
3	18321	11523.048325051773	0
3	18445	11607.569252837018	1
3	18446	11607.572614924462	0
3	18595	11730.792061699226	1
3	18596	11730.98785558262	0
3	18645	11797.870975661679	1
3	18646	11798.260846908371	0
3	18715	11858.448557344147	1
3	18716	11858.827669912567	0
3	18760	11879.266285364868	1
3	18761	11879.377146165726	0
3	18785	11889.304763869493	1
3	18786	11890.027922973618	0
3	18820	11904.570826142838	1
3	18821	11904.951960715709	0
3	18860	11942.615911004881	1
3	18862	11943.020016691422	2
3	18863	11943.494231004413	1
3	18867	11943.931375654824	2
3	18868	11944.269164546398	1
3	18871	11944.687004133552	0
3	18875	11945.272011147228	1
3	18876	11945.312488519266	0
3	18880	11945.401201709109	1
3	18881	11945.814819474617	0
3	18905	11953.830862956235	1
3	18906	11953.933402557566	0
3	18910	11953.996864156415	1
3	18911	11954.712200567627	0
3	18915	11955.419431803391	1
3	18916	11955.5044761903	0
3	18975	11994.190912590189	1
3	18976	11994.83917265819	0
3	18990	11999.574381272854	1
3	18991	12000.283619825024	0
3	18995	12000.866052645026	1
3	18996	12000.87437885594	0
3	19060	12045.69278015825	1
3	19061	12045.830762909882	0
3	19105	12071.737008029088	1
3	19106	12071.765793377904	0
3	19122	12080.468273628521	1
3	19127	12081.01165597282	2
[...]
6	42132	26736.025259306517	1.747615214109
6	42142	26737.308439502728	1.000041056555
6	42155	26740.687091251506	0.905533617129
6	42160	26744.420564968059	0.583880131505
6	42165	26746.402922162814	0.920804684376
6	42192	26757.06614560831	0.990555326072
6	42197	26757.490753699202	1.08057651945
6	42210	26759.983949533542	2.553610376816
6	42215	26762.994568417729	0.625179582695
6	42220	26764.966274210096	0.864330601878
6	42225	26766.179229979401	0.456824402465
6	42230	26772.73208643081	0.720920571079
6	42235	26780.541748547825	0.541090876376
6	42240	26781.309903869406	0.571452380344
6	42245	26785.049635230129	0.480807300052
6	42250	26809.097996988842	0.981490468839
6	42255	26818.127750408432	0.529126456985
6	42270	26820.466223718743	2.24781651618
6	42275	26822.53431182649	0.984544079844
6	42300	26833.997293998442	6.324463595316
6	42325	26844.346730127636	4.281020536871
6	42335	26853.20407147626	0.831289932784
6	42345	26874.196742135044	0.915506728552
6	42350	26878.945288070456	0.958062233916
6	42360	26881.916373738125	0.898496450391
6	42375	26888.323564697897	2.286881010845
6	42380	26908.896893666635	0.611900812713
6	42390	26916.947889168969	0.836109732464
6	42400	26924.845088557853	0.484020793624
6	42410	26928.504863628485	0.712535007391
6	42415	26937.915467888224	0.595752279414
6	42425	26952.611977802784	1.523071767889
6	42430	26954.761405142446	0.575299582677
6	42435	26965.439801534622	0.935313126491
6	42444	26966.932642615579	0.732146454975
6	42447	26967.905670559073	1.623046896623
6	42450	26968.422370767074	2.074514346891
6	42460	26982.950517573733	0.651420972776
6	42465	26992.937052468944	0.842989911092
6	42490	26998.951490077973	2.165843443153
6	42495	27012.982825414311	0.429310762137
6	42507	27020.957491704576	1.261261331363
6	42510	27021.584522443299	0.847580340869
6	42515	27023.362902884807	0.877165351715
6	42527	27031.651569049376	0.712819927698
6	42535	27039.119804040867	0.439946314599
6	42550	27057.375182810477	0.985865371488
6	42565	27061.221643517914	2.224960381713
6	42580	27073.898966395819	3.102021978743
6	42595	27084.977729360812	0.855483721849
6	42612	27091.220458951753	0.802535186779
6	42642	27101.32511229507	2.243505045894
6	42650	27106.290045289187	0.770860402239
6	42665	27109.428966272529	3.061070811299
6	42670	27110.450431089146	0.6181792052
6	42680	27117.487518461208	1.423237769342
6	42685	27123.696253659662	0.535210581403
6	42714	27134.088891036755	4.272594353919
6	42720	27135.058668888866	3.202975076763
6	42732	27141.24676764737	0.923834721278
6	42740	27155.290282161676	0.500492843939
6	42767	27180.380975426327	2.371103980614
6	42770	27181.080140435243	1.148269435227
6	42775	27182.027280075401	2.897838227643
6	42785	27184.539707892873	2.397146269298
6	42797	27194.896251357616	1.468516755277
6	42805	27197.276537981972	0.520852794498
6	42822	27208.448594912961	1.727689256686
6	42830	27210.732920003961	2.292896236278
6	42835	27213.817292834249	0.578710140102
6	42840	27217.328734937923	0.871068823617
6	42845	27224.655521651451	0.767198616266
6	42860	27231.459321109257	3.145400817017
6	42870	27235.589192992768	0.572265955806
6	42875	27243.820261280203	0.649547551759
6	42885	27245.542217140181	1.653103565917
6	42895	27256.254444050738	0.688380781954
6	42910	27268.264375429263	0.498663714994
6	42925	27276.200984549591	0.477185664512
6	42930	27279.107751109319	0.418308489397
6	42935	27280.99594025219	0.587274188036
6	42940	27282.44274132051	0.470368000073
6	42945	27283.03396261374	0.46078086081
6	42950	27299.50440357395	0.697785357852
6	42992	27323.053674347314	1.749471933618
6	42995	27324.045973047695	4.219498727939
6	43007	27331.550390278821	0.585086207045
6	43010	27332.179906368622	1.09494802673
6	43025	27343.200422315619	0.408595622284
6	43030	27345.686128936293	0.607268406963
6	43035	27354.371123433463	0.876517527131
6	43052	27364.370224918734	2.136708349135
6	43080	27372.527515862749	3.593734310856
6	43095	27377.720037711181	1.10276826959
6	43105	27387.078352220068	1.675078385174
6	43110	27388.915995508698	0.527917228872
6	43115	27390.593255482041	0.711218294641
6	43132	27398.029534467841	2.362622304848
6	43142	27399.171052541137	0.813540064275
6	43152	27400.700259637479	1.118400946639
6	43155	27401.157709972812	3.322375848325
6	43160	27410.973812036525	0.50508670467
6	43165	27412.864425576885	0.621109829377
6	43177	27416.973027482742	0.951854855707
6	43180	27417.660995724538	4.045123097933
6	43185	27419.268567831709	0.504471204197
6	43190	27422.770021978527	0.77247459949
6	43210	27427.553473294728	0.617100078892
6	43220	27433.337758349986	2.825042351624
6	43225	27438.959136167384	0.924021694856
6	43230	27442.115811511417	0.679825720331
6	43245	27465.261939397398	1.155788136006
6	43257	27482.761879692995	0.68998652054
6	43260	27483.648754025274	1.303358241829
6	43265	27488.05224865487	0.581572067318
6	43270	27491.366931266821	0.986057315953
6	43285	27503.717510469017	1.738270173111
6	43290	27514.454412368272	0.498112673592
6	43309	27518.740672194518	0.854229033645
6	43315	27519.884223125622	1.508660214408
6	43339	27524.896850098963	6.792364873866
6	43342	27525.628011186342	1.018360218414
6	43345	27526.504222622994	3.376798071154
6	43355	27532.37653296214	0.781823281571
6	43360	27547.008895415696	0.783637486817
6	43380	27555.978070757009	0.748372815922
6	43390	27570.879596904303	1.569673483574
6	43417	27577.468699716963	3.771596517634
6	43425	27579.998645011291	0.763721879525
6	43445	27593.172896429229	2.251028156237
6	43452	27593.939991205163	0.527655567648
6	43455	27594.513294787356	0.862802372895
6	43460	27596.242048050893	0.868726394884
6	43470	27603.777214885629	0.858195667202
6	43495	27627.562983247125	5.256330333593
6	43505	27634.706381389547	0.7643340569
6	43510	27638.347149569654	0.882224469678
6	43515	27647.785828754084	0.802268289588
6	43520	27652.739543077211	0.59100820059
6	43525	27657.878677101204	0.403165043797
6	43545	27666.70149320197	0.827728419797
6	43557	27676.162045047522	0.705916919103
6	43565	27704.026191283081	0.482402420649
6	43577	27715.622488182093	2.30896618699
6	43580	27716.419309199377	0.894353138315
6	43590	27721.082485014832	0.605611215718
6	43595	27723.723364500421	0.793032574607
6	43602	27734.549246717563	0.65521195
6	43610	27739.144096047744	0.851418507891
6	43615	27743.160177250497	0.744460696029
6	43620	27750.431845643373	0.816327345045
6	43625	27757.600768856001	0.565599693125
6	43635	27766.145486821315	0.783386981487
6	43640	27767.012961631147	0.704898096854
6	43645	27772.110759258594	0.608023269707
6	43650	27782.509267779403	0.628753651073
6	43660	27789.27014162969	0.909455441497
6	43670	27806.960495841673	0.699349071877
6	43675	27816.128911612417	0.887385098077
6	43680	27825.68734756339	0.526307679806
6	43685	27832.954415891778	0.897750143195
6	43690	27833.974670969892	0.893773768749
6	43707	27837.757534257125	2.769809296621
6	43710	27838.668829118309	2.541241166973
6	43730	27845.557360438464	4.604038255941
6	43747	27857.41406352676	0.963765053265
6	43750	27857.881154009351	0.901555617081
6	43755	27861.304455825501	0.536040358664
6	43770	27867.232156514473	2.951501602261
6	43780	27875.3182180177	2.204736277818
6	43785	27878.330649245596	0.626456598751
6	43790	27884.168912317755	0.523865334736
6	43797	27887.536100260169	0.940468395362
6	43800	27888.198706201139	0.75360959834
6	43805	27890.201148298614	0.613340442721
6	43815	27901.747580006573	0.931909489585
6	43830	27907.687988881349	2.815447139043
6	43835	27909.569145512991	0.95134801669
6	43847	27924.275417448943	0.718810849125
6	43850	27924.800655730618	1.043826692831
6	43855	27929.458763869663	0.461972209625
6	43892	27940.430173162803	1.037138083397
6	43897	27941.11948423019	1.335224076348
6	43912	27943.082898683905	1.394227631332
6	43915	27943.491058915354	7.847729769717
6	43935	27959.8821502601	2.345348249597
6	43950	27975.706018419756	1.510740405067
6	43962	27983.47543910097	1.54512662937
6	43975	27997.131098099527	0.924357938953
6	44005	28005.604204331004	6.200703878354
6	44020	28014.077322007457	0.886138742464
6	44025	28015.234540511772	0.957493034657
6	44030	28018.054867334507	0.595801110286
6	44035	28029.625697847827	0.480691106338
6	44045	28036.865562885669	3.71661149101
6	44055	28059.981279567604	0.983102253359
6	44062	28064.995794433221	0.444804999046
6	44065	28065.68824177506	0.902123754662
6	44075	28067.378048039798	1.573425504108
6	44080	28068.180216124393	2.404100697588
6	44085	28076.414917747055	0.841792095359
6	44105	28084.368388707125	0.459646255663
6	44112	28088.447196331395	0.591052484279
6	44120	28090.935522499682	0.44046617155
6	44125	28100.639862834904	0.929212526605
6	44130	28102.9134939717	0.736191419791
6	44145	28117.826901416366	0.578199442073
6	44150	28120.242783560625	0.775715441117
6	44160	28130.316503065902	0.989354491234
6	44165	28150.94536430841	0.790386645962
6	44170	28153.521479823025	0.96680067936
6	44185	28177.01329410993	0.520603064075
6	44190	28179.977796743512	0.835998372035
6	44200	28187.045184823801	0.974078207696
6	44210	28208.425504230507	0.52890494829
6	44237	28215.421590599717	2.360684641879
6	44247	28227.946539940396	0.9446756816
6	44250	28228.402156905122	0.681837330102
6	44260	28231.4702448829	2.757319197525
6	44295	28251.256427054055	1.204977416266
6	44320	28291.178157275606	0.538699072506
6	44345	28303.856233062574	1.239623210691
6	44350	28306.072174858039	0.60817523445
6	44355	28306.619162173375	0.425947881816
6	44365	28313.633789129371	0.953539380617
6	44375	28318.091610076784	0.919337544544
6	44380	28319.438868064173	0.530506432429
6	44395	28325.008760522841	0.723655935051
6	44400	28330.145383464397	0.64170617084
6	44405	28331.466270662518	0.625083584897
6	44415	28341.773662682991	0.944814379048
6	44420	28342.616992250614	0.828353592148
6	44434	28355.189426515566	0.936410776386
6	44450	28358.1677486624	2.931250956763
6	44460	28369.046118786304	0.518485871749
6	44480	28383.217265639016	0.558421774907
6	44485	28384.384146165901	3.263930615132
6	44495	28389.713474932555	1.750729306859
6	44515	28399.197525270825	0.820772832958
6	44530	28405.293168543484	4.828893655861
6	44570	28450.788307713651	0.49667451405
6	44594	28475.579434544605	0.876064628456
6	44607	28480.708106857418	0.917978295591
6	44615	28482.714581484214	0.402161640581
6	44620	28488.715615391725	0.70795002114
6	44625	28502.568669587535	0.492114921333
6	44630	28510.747521491346	0.912388704997
6	44635	28511.635262257294	0.737667305302
6	44645	28523.672016067679	0.522498203442
6	44650	28525.189557882696	0.494125230424
6	44680	28555.682346331265	3.176764887409
6	44705	28574.528476609864	0.512971597818
6	44712	28577.506059274476	0.560182742774
6	44715	28578.088255149851	0.601962671945
6	44720	28598.115198202504	0.967038199445
6	44725	28599.574899122874	0.41679738313
6	44757	28611.158701233355	6.11576565566
6	44760	28611.926984214758	0.930243331008
6	44765	28613.224599802217	0.453907577973
6	44770	28614.733072333526	0.913429266028
6	44780	28619.101406918048	2.342699033749
6	44795	28624.927100940341	2.864749517582
6	44805	28632.3979788922	3.395928594701
6	44829	28651.395539785608	0.756658732193
6	44835	28652.852136461403	1.827692273981
6	44850	28657.847056123342	0.663532594312
6	44855	28667.682292595893	0.632981829904
6	44862	28668.705084118909	0.707186469994
6	44870	28674.938909005337	0.48414803315
6	44877	28679.219593883782	0.709275492281
6	44882	28679.87445535903	1.310174527285
6	44905	28684.115775808521	0.475122174202
6	44912	28684.829652119224	4.038969654166
6	44920	28689.796778030414	0.85686095166
6	44930	28696.127683544518	0.885186128272
6	44955	28732.079761856011	0.935529889353
6	44965	28738.887582970539	1.817333034061
6	44970	28740.042294984627	0.632380280131
6	44975	28751.035894903835	0.68922309652
6	44990	28758.000044863507	1.861419657493
6	45006	28768.612789683788	0.997994742504
6	45011	28769.189459971524	0.93669116456
6	45014	28769.706387679464	1.308375814486
6	45017	28770.689768833107	2.180948631097
6	45020	28771.473076928033	2.623745484222
6	45030	28778.506288704801	0.748931399779
6	45035	28780.292103172775	0.512862141663
6	45050	28784.815168321275	1.250473069913
6	45057	28786.867377180948	0.737121941382
6	45060	28787.65834983845	1.220605590282
6	45070	28789.503494709824	1.174356025894
6	45085	28799.247806864598	0.79729588395
6	45102	28806.376420031217	0.62244305769
6	45107	28807.105720734232	0.8731368388
6	45115	28809.004400766528	0.594681962905
6	45122	28813.52077857896	0.439036095934
6	45125	28814.076216975108	0.695762076974
6	45150	28829.432470492167	0.716158326689
6	45155	28838.266247011235	0.844534521084
6	45185	28857.903234578154	0.678979075467
6	45195	28874.402572466989	0.973969978746
6	45200	28875.707154761245	0.837506246101
6	45205	28881.006644101818	0.941263151774
6	45220	28885.318832339878	1.4424619269
6	45225	28887.3747687031	0.879525096482
6	45237	28897.051730537197	0.660794062959
6	45255	28900.575669854443	0.787186845625
6	45265	28908.593850526872	2.160615478184
6	45270	28909.515041432523	0.902276535332
6	45275	28912.706418213989	0.848650457012
6	45292	28927.012358087378	0.766101470264
6	45295	28927.543911323401	1.080156197592
6	45305	28932.124543908707	0.637539354463
6	45310	28932.805480734627	1.742085706715
6	45315	28934.706314914014	0.472298864229
6	45327	28944.098570595638	0.605022232793
6	45330	28945.009674077018	0.989412560663
6	45342	28958.507902226066	4.887632891652
6	45370	28981.481765190032	0.686233458994
6	45375	28982.524264948451	0.919143492728
6	45390	29006.32689135562	0.412344076997
6	45400	29014.839170332975	0.474712463841
6	45410	29023.238883066101	0.70037310156
6	45415	29028.249860982069	0.856831383659
6	45420	29056.011143450939	0.870393816102
6	45425	29064.808567804274	0.403313162783
6	45444	29074.910231107062	1.348390309677
6	45454	29076.510087758869	2.475152194104
6	45460	29077.748102484465	4.552324509574
6	45472	29079.621754199942	0.992493257372
6	45480	29081.218805838848	2.978711261257
6	45485	29082.877313199184	0.764894397557
6	45490	29083.772512858286	0.71317950841
6	45495	29089.390660524295	0.686452059029
6	45500	29106.82898358796	0.562942174403
6	45510	29110.75649666111	0.472328347154
6	45515	29117.323792736304	0.797122244723
6	45525	29127.237963290978	2.593922878389
6	45532	29131.276471331155	0.857215437992
6	45580	29160.005546255348	3.435808734839
6	45590	29162.514165799477	3.654485838664
6	45599	29164.616795792737	0.940041157603
6	45610	29166.628818177971	0.697343511604
6	45615	29167.266625972471	0.459360379819
6	45620	29168.895471632302	0.973215044197
6	45625	29173.140961119496	0.531664354214
6	45640	29175.966799471645	1.853377193608
6	45655	29181.159693778944	0.529653374292
6	45660	29184.448102753552	0.601093606558
6	45670	29187.190773997325	2.448834669421
6	45675	29189.447935809648	0.551390306978
6	45682	29199.096342681104	0.523955843784
6	45700	29203.98369108815	0.900997370156
6	45715	29215.751064615045	7.645714916865
6	45740	29222.355497234422	0.890971101448
6	45745	29224.748500963131	0.945443681022
6	45757	29227.434174441757	1.955882960642
6	45767	29228.814542054721	0.685394463735
6	45785	29242.121282919141	0.939019673225
6	45790	29244.957698383897	0.604933023639
6	45800	29249.508890394592	0.892565606115
6	45810	29252.4366502999	2.579572098606
6	45820	29256.336269724455	0.929809551553
6	45835	29261.803283826481	0.576039301138
6	45840	29266.373089168168	0.804714056151
6	45855	29274.150398040925	0.86396782808
6	45860	29276.994176935257	0.848186253384
6	45865	29283.155628954912	0.841042441688
6	45875	29291.72320818543	2.303646744857
6	45880	29298.311341494539	0.693315715389
6	45885	29304.560918900978	0.490896325465
6	45900	29318.484269664389	1.516277426291
6	45907	29322.033837708842	0.575708641624
6	45915	29332.480410792834	0.453623442771
6	45920	29333.61609041218	0.890890199738
6	45940	29351.345908349251	1.97365026232
6	45947	29358.682026965692	0.528634056915
6	45955	29360.007642182018	1.173092214347
6	45960	29360.866012052168	2.290896116328
6	45967	29363.106934677435	0.465199281182
6	45980	29365.70621220536	2.645646148755
6	45985	29379.057341117545	0.75889471327
6	45995	29385.311487168432	2.755416008561
6	46000	29398.32411853328	0.708847466065
6	46015	29404.350908636992	1.600245423405
6	46030	29411.290053163134	1.953711115311
6	46042	29416.097381420442	0.939977960325
6	46047	29416.888133886605	2.438797559683
6	46050	29417.515096892146	1.0854751335
6	46055	29420.604828614919	0.415958419163
6	46075	29439.801866662144	0.577188555617
6	46090	29441.77041070532	3.598800302026
6	46100	29445.236715743414	0.775641699787
6	46130	29468.524823429027	0.430953903776
6	46135	29476.538680241214	0.476409531711
6	46165	29488.874136836061	2.720471685598
6	46170	29492.781051786124	0.913170348341
6	46175	29495.691885643868	0.803212953405
6	46180	29500.094315367212	0.743987148814
6	46190	29505.398159898855	1.246627090317
6	46197	29509.301052367539	0.547305479087
6	46200	29510.115110855867	0.837047696533
6	46205	29511.2455068034	0.733358050697
6	46220	29515.055020775085	2.015335446596
6	46225	29520.383807246822	0.828207661957
6	46240	29533.420897369352	0.418298979988
6	46245	29535.79064504274	0.923547991319
6	46255	29544.19242602697	0.556272399984
6	46260	29546.274111553313	0.947619800083
6	46265	29548.07129209949	0.903181654587
6	46282	29560.143482222218	0.725209790142
6	46290	29561.819618666213	1.693854326542
6	46340	29598.309799569092	0.85943117789
6	46350	29606.448613195211	0.412537824409
6	46360	29609.474869727073	4.755742670406
6	46365	29612.850251711552	0.805558116036
6	46370	29615.086800880838	0.891505395528
6	46375	29622.555029511409	0.534879109124
6	46382	29629.802684472177	0.979639048362
6	46390	29641.594093505053	0.82318155542
6	46397	29643.431553261624	0.757293610508
6	46407	29645.054004501868	1.435795973389
6	46415	29647.146780931706	3.883020481724
6	46420	29652.101389686655	0.602169724181
6	46437	29656.436249939418	0.719466547389
6	46445	29661.807875461584	0.881382559193
6	46460	29670.206866890873	0.650719459867
6	46465	29671.108007088409	0.509996979171
6	46470	29682.778792338765	0.635500149941
6	46480	29695.801211565883	0.484725733474
6	46485	29703.851269503479	0.713385614241
6	46497	29711.00031420023	1.610485818472
6	46517	29739.404814967055	0.895707105845
6	46525	29742.47018469964	0.729669091851
6	46530	29746.976458026868	0.606598642748
6	46535	29749.590902765389	0.802758661937
6	46550	29753.697300040251	0.88409161279
6	46555	29761.973496363686	0.919154115114
6	46572	29779.860952301002	0.843161045248
6	46580	29782.787679753587	0.574120095233
6	46585	29785.590266211914	0.587265453674
6	46590	29787.054613680577	0.535059911245
6	46595	29787.916457579043	0.699691382237
6	46600	29789.263262352535	0.907042287383
6	46605	29790.493088154483	0.672192745097
6	46610	29791.340692437731	0.568714102823
6	46617	29793.664573258792	0.640591029171
6	46630	29796.730644677714	0.947996695153
6	46637	29797.703178547294	3.060613673944
6	46647	29804.923716009964	0.417366874777
6	46652	29805.748433825184	1.224813934254
6	46655	29806.455792933327	0.819594809845
6	46665	29811.733003951549	2.032657752399
6	46670	29819.605978219283	0.852748648729
6	46675	29821.770001244905	0.608299373789
6	46685	29824.999199375045	2.63676104297
6	46700	29834.944705067789	0.798729779478
6	46745	29853.291844977793	2.509575827473
6	46757	29859.630490145595	0.88632180281
6	46760	29860.276853595344	0.753226358174
6	46765	29870.320804384555	0.9318652316
6	46770	29876.201243476868	0.709728722041
6	46781	29880.207427514816	0.767722736951
6	46800	29890.339313277285	0.896997078089
6	46807	29891.719956630033	0.689042412443
6	46820	29894.282461713672	3.091394714548
6	46875	29925.0557829073	0.566013953043
6	46880	29935.751340313121	0.805614020256
6	46900	29947.092644633945	0.623606989859
6	46907	29948.157990708046	0.822991513368
6	46915	29949.893157399435	0.702096419036
6	46922	29956.392602186736	0.41464888216
6	46930	29959.766312308155	0.930978428479
6	46945	29964.924278546643	0.55055633178
6	46955	29972.194093607471	0.759071077034
6	46962	29977.567996579773	0.415692841075
6	46965	29978.446871149066	1.149693737941
6	46975	29990.466982307309	0.953698522784

