version 2
run First_exit_9-9-20191114-11:42:32-8899
attr configname First_exit_9
attr datetime 20191114-11:42:32
attr experiment First_exit_9
attr inifile omnetpp.ini
attr iterationvars ""
attr iterationvarsf ""
attr measurement ""
attr network ResponseTimeNetwork
attr processid 8899
attr repetition 9
attr replication #9
attr resultdir results
attr runnumber 9
attr seedset 9
param **.Source.interArrivalTime exponential(4s)
param **.jobPriority bernoulli(0.4)
param **.PS.serviceTimeU1 "uniform(0.4s, 1.0s)"
param **.PS.serviceTimeU2 "uniform(1s, 1.2s)"
param **.SS1.serviceTime exponential(0.4s)
param **.SS2.serviceTime exponential(0.8s)
param **.PS.exitProbability bernoulli(0.9)

vector 0 ResponseTimeNetwork.QueueU1 queueLength:vector ETV
attr interpolationmode sample-hold
attr title "queue length, vector"
vector 1 ResponseTimeNetwork.QueueU2 queueLength:vector ETV
attr interpolationmode sample-hold
attr title "queue length, vector"
vector 2 ResponseTimeNetwork.SS1 queueLength:vector ETV
attr interpolationmode sample-hold
attr title "queue length, vector"
vector 3 ResponseTimeNetwork.sink lifeTimeU1:vector ETV
attr interpolationmode none
attr title "lifetime of arrived jobs U1, vector"
attr unit s
vector 4 ResponseTimeNetwork.sink totalServiceTimeU1:vector ETV
attr interpolationmode none
attr title "the total time spent  by arrived jobs U1, vector"
attr unit s
vector 5 ResponseTimeNetwork.sink lifeTime:vector ETV
attr interpolationmode none
attr title "lifetime of arrived jobs, vector"
attr unit s
vector 6 ResponseTimeNetwork.sink totalServiceTime:vector ETV
attr interpolationmode none
attr title "the total time spent  by arrived jobs, vector"
attr unit s
vector 7 ResponseTimeNetwork.sink lifeTimeU2:vector ETV
attr interpolationmode none
attr title "lifetime of arrived jobs U2, vector"
attr unit s
vector 8 ResponseTimeNetwork.sink totalServiceTimeU2:vector ETV
attr interpolationmode none
attr title "the total time spent  by arrived jobs U2, vector"
attr unit s
vector 9 ResponseTimeNetwork.SS2 queueLength:vector ETV
attr interpolationmode sample-hold
attr title "queue length, vector"
0	73731	10000.050884225443	1
0	73732	10000.757149588401	0
0	73736	10000.896216015374	1
0	73737	10001.40527009097	0
0	73741	10001.702102043035	1
0	73742	10002.317904696558	0
0	73749	10003.522121817174	1
0	73751	10003.717776896698	2
0	73752	10004.038608198278	1
0	73757	10004.451716134735	0
0	73761	10004.458989945233	1
0	73762	10005.379853610593	0
0	73769	10006.125769458683	1
0	73770	10006.755522301877	0
0	73779	10007.874487671154	1
0	73781	10008.246936590486	2
0	73782	10008.44291013306	1
0	73787	10009.283469975498	0
0	73791	10009.452063141955	1
0	73792	10010.183682508246	0
0	73796	10010.509489600654	1
0	73798	10010.608366010409	2
0	73799	10010.679995162963	1
0	73803	10010.704715536933	2
0	73806	10011.348243652369	1
0	73810	10011.441652019407	2
0	73811	10011.904787588437	1
0	73815	10012.229660248653	2
0	73816	10012.72136920089	1
0	73819	10013.556328055999	0
0	73823	10013.95031748964	1
0	73824	10014.339399586516	0
0	73887	10023.551227933137	1
0	73888	10023.992942846233	0
0	73897	10024.96919223996	1
0	73898	10025.213951646389	0
0	73905	10026.016080813252	1
0	73906	10026.405241800324	0
0	73915	10027.379212983508	1
0	73916	10027.959107119023	0
0	73925	10029.243044179685	1
0	73926	10029.267523047646	0
0	73935	10030.11377195677	1
0	73936	10030.86914958832	0
0	73952	10032.583944195196	1
0	73953	10032.748614385484	0
0	73965	10034.149704584256	1
0	73967	10034.237511296083	2
0	73968	10034.578251959422	1
0	73975	10035.564765205366	0
0	73979	10036.244690741741	1
0	73980	10036.379673298347	0
0	73987	10037.484594589877	1
0	73988	10038.16162562784	0
0	74000	10039.40708487379	1
0	74002	10039.505205702947	2
0	74003	10039.761300611209	1
0	74008	10040.310380128624	0
0	74025	10042.192260633475	1
0	74027	10042.322536559472	2
0	74030	10042.854439806744	1
0	74035	10043.659838638261	0
0	74039	10044.027953203106	1
0	74040	10044.402570426783	0
0	74044	10044.786992066271	1
0	74045	10045.187927288928	0
0	74052	10045.845062907153	1
0	74053	10046.315854580228	0
0	74062	10047.251096125742	1
0	74063	10047.940540023746	0
0	74072	10048.694224416996	1
0	74073	10049.220064915988	0
0	74082	10049.829010757209	1
0	74083	10050.477953537731	0
0	74092	10051.609109472685	1
0	74096	10051.810826027233	2
0	74097	10052.124793420444	1
0	74104	10052.988434818798	0
0	74111	10053.528697808953	1
0	74112	10053.96976982983	0
0	74126	10055.915483365465	1
0	74127	10055.96727063711	0
0	74136	10056.791889431432	1
0	74137	10057.196927401602	0
0	74144	10058.076431222985	1
0	74146	10058.228541615711	2
0	74147	10058.376750050151	1
0	74154	10059.063388481355	0
0	74158	10059.37299907012	1
0	74159	10059.627902121368	0
0	74166	10060.66047867394	1
0	74167	10060.761452964359	0
0	74171	10060.980183563904	1
0	74174	10061.518519217978	0
0	74178	10061.820028937657	1
0	74180	10061.9518463451	2
0	74181	10062.498318912779	1
0	74184	10062.960579717477	0
0	74190	10063.250545725413	1
0	74191	10063.727729510973	0
0	74201	10065.289897573367	1
0	74204	10065.913869422666	0
0	74210	10066.085734928714	1
0	74211	10066.530401102073	0
0	74215	10066.549623725907	1
0	74216	10067.047246134832	0
0	74220	10067.237560721144	1
0	74221	10067.561454694431	0
0	74225	10067.63933204918	1
0	74226	10068.267823860973	0
0	74230	10068.705370695338	1
0	74231	10068.71097274529	0
0	74238	10069.873019131639	1
0	74240	10069.994081599147	2
0	74241	10070.367625064581	1
0	74246	10070.809618055812	0
0	74253	10071.377860686724	1
0	74254	10071.937488764236	0
0	74258	10072.180400043877	1
0	74260	10072.529879704489	2
0	74261	10072.703371478422	1
0	74267	10073.313975655204	2
0	74268	10073.56897511621	1
0	74272	10074.037428046978	2
0	74273	10074.380021144347	1
0	74277	10074.835147821593	2
0	74278	10075.003501252867	1
0	74281	10075.625120432479	0
0	74285	10075.726675130324	1
0	74286	10076.495847371677	0
0	74293	10077.315999434671	1
0	74295	10077.403785691092	2
0	74296	10077.695749883903	1
0	74301	10078.386241813227	0
0	74305	10078.559997765116	1
0	74308	10079.227958608781	0
0	74318	10080.523826217295	1
0	74320	10080.790989158205	2
0	74323	10081.473978847348	1
0	74326	10082.218345408876	0
0	74332	10082.639947846357	1
0	74333	10082.874028784073	0
0	74337	10083.009482036146	1
0	74338	10083.625278213563	0
0	74342	10083.819533244973	1
0	74343	10084.505071145658	0
0	74350	10085.209071773902	1
0	74351	10085.620139852342	0
0	74355	10085.63758195555	1
0	74357	10086.107076901164	2
0	74360	10086.531927789877	1
0	74364	10086.579123730925	2
0	74365	10087.031617599855	1
0	74369	10087.480218756875	2
0	74370	10087.549863101671	1
0	74373	10088.001730486693	0
0	74377	10088.409201202226	1
0	74379	10088.600335321617	2
0	74380	10088.913803389937	1
0	74384	10089.417788591108	2
0	74385	10089.466841332091	1
0	74389	10089.721289949826	2
0	74390	10089.887522188982	1
0	74396	10090.48479350629	2
0	74397	10090.531766981527	1
0	74401	10090.586936218937	2
0	74402	10091.26514720585	1
0	74406	10091.370260168847	2
0	74409	10092.132422003884	1
0	74413	10092.602417719096	2
0	74414	10092.722581678292	1
0	74418	10093.207529729525	2
0	74420	10093.366015579675	3
0	74421	10093.466495426221	2
0	74425	10093.554351962083	3
0	74426	10093.871741210845	2
0	74429	10094.570175401344	1
0	74433	10095.088830583745	2
0	74435	10095.190186120438	3
0	74436	10095.361988198933	2
0	74439	10096.186298313075	1
0	74443	10096.300748467628	2
0	74445	10096.339258604601	3
0	74446	10096.971981814214	2
0	74450	10097.474522416396	3
0	74451	10097.797424239655	2
0	74455	10097.862402282781	3
0	74456	10098.37292414423	2
0	74460	10098.500552921978	3
0	74461	10099.096037268629	2
0	74465	10099.323915828677	3
0	74466	10099.995698701301	2
0	74470	10100.333670132048	3
0	74471	10100.768795329229	2
0	74474	10101.496155332345	1
0	74478	10101.513726489221	2
0	74481	10102.351519908932	1
0	74485	10102.55241764014	2
0	74486	10103.158036837717	1
0	74489	10103.990118783516	0
0	74496	10104.790533696689	1
0	74497	10105.209269402911	0
0	74501	10105.24757381911	1
0	74503	10105.481673053407	2
0	74504	10105.791986374081	1
0	74508	10105.865464211229	2
0	74511	10106.321478022345	1
0	74515	10107.219667262512	2
0	74516	10107.240982186551	1
0	74519	10107.714356686584	0
0	74523	10108.332321135637	1
0	74525	10108.401894578714	2
0	74527	10108.419741552566	3
0	74528	10108.691411854037	2
0	74532	10108.718930984295	3
0	74533	10109.562289944653	2
0	74537	10109.852373233589	3
0	74538	10109.975742638846	2
0	74541	10110.881591457072	1
0	74544	10111.71191218648	0
0	74548	10112.334361790271	1
0	74549	10112.48934542084	0
0	74553	10112.572728477403	1
0	74554	10113.191638899398	0
0	74558	10113.365179381809	1
0	74559	10113.604328723195	0
0	74563	10113.625410147029	1
0	74564	10114.519249408077	0
0	74570	10115.100075014778	1
0	74571	10115.266955925002	0
0	74575	10115.304444560886	1
0	74578	10115.852403478827	0
0	74582	10116.046215010607	1
0	74583	10116.780656662248	0
0	74587	10116.945264062687	1
0	74588	10117.186879088487	0
0	74595	10117.806719422013	1
0	74597	10117.812650337321	2
0	74598	10118.552153382347	1
0	74604	10118.866914100053	2
0	74605	10119.242794056366	1
0	74609	10119.388077332924	2
0	74610	10120.226973925753	1
0	74613	10121.042654273648	0
0	74617	10121.322352165105	1
0	74618	10121.946874950769	0
0	74625	10122.800855413919	1
0	74626	10123.358499882686	0
0	74630	10123.620406559295	1
0	74633	10124.240450080148	0
0	74637	10124.903825787174	1
0	74638	10125.016421104073	0
0	74648	10126.257759066906	1
0	74651	10126.789348633904	0
0	74658	10127.597711715609	1
0	74663	10128.302807671847	0
0	74672	10129.138904533737	1
0	74673	10129.218218046744	0
0	74677	10129.300466943829	1
0	74678	10129.947537337049	0
0	74682	10130.045831446545	1
0	74685	10130.592361360175	0
0	74689	10130.736607640751	1
0	74692	10131.380586641879	0
0	74696	10131.634854910561	1
0	74697	10132.275227172897	0
0	74701	10132.285394108778	1
0	74702	10132.765336392532	0
0	74706	10133.263051229647	1
0	74707	10133.280215008874	0
0	74711	10133.457526358154	1
0	74712	10133.880822301182	0
0	74716	10134.434196599186	1
0	74717	10134.661706819237	0
0	74721	10134.852166749747	1
0	74722	10135.354650757826	0
0	74726	10136.297076013124	1
0	74727	10136.344516379611	0
0	74731	10136.349454701284	1
0	74732	10136.887802690586	0
0	74739	10137.629617749943	1
0	74740	10138.203311388047	0
0	74744	10138.379799295137	1
0	74746	10139.059415936852	2
0	74747	10139.066114613266	1
0	74753	10139.227477427866	2
0	74754	10139.860955779339	1
0	74758	10140.213355341965	2
0	74759	10140.708995331396	1
0	74762	10141.430551677235	0
0	74766	10141.526019188067	1
0	74768	10141.54677044512	2
0	74771	10142.046060277606	1
0	74775	10142.594295122809	2
0	74777	10142.803312490928	3
0	74778	10142.854250562974	2
0	74782	10143.084648667805	3
0	74783	10143.433252409651	2
0	74787	10143.834943680471	3
0	74788	10143.865690545497	2
0	74792	10144.15144985243	3
0	74793	10144.850370817717	2
0	74797	10145.198121099336	3
0	74798	10145.630776110796	2
0	74802	10146.178062562232	3
0	74803	10146.434442437293	2
0	74807	10146.438005213938	3
0	74808	10147.354599403117	2
0	74814	10147.78543645602	3
0	74815	10148.286591269488	2
0	74819	10148.470686792238	3
0	74820	10149.065904271922	2
0	74823	10149.8703122253	1
0	74827	10149.956342100812	2
0	74828	10150.635235962871	1
0	74832	10150.82034620047	2
0	74833	10151.580272164655	1
0	74837	10152.04348974437	2
0	74840	10152.097393332508	1
0	74844	10152.460167260508	2
0	74849	10153.03552922792	1
0	74852	10153.931453454115	0
0	74861	10154.554098968599	1
0	74863	10154.774301541412	2
0	74864	10155.336690165468	1
0	74867	10156.136984662984	0
0	74873	10156.381252606706	1
0	74874	10156.680255178821	0
0	74881	10157.378061301465	1
0	74883	10157.46182175831	2
0	74884	10158.048522759967	1
0	74887	10158.636864087351	0
0	74893	10159.077753697105	1
0	74894	10159.178795855811	0
0	74898	10159.242330808801	1
0	74899	10159.96982594276	0
0	74903	10159.997930838222	1
0	74904	10160.470566098664	0
0	74908	10160.593075841813	1
0	74910	10160.827190390834	2
0	74911	10160.979274584439	1
0	74914	10161.410985436097	0
0	74921	10162.012528178609	1
0	74923	10162.121875110742	2
0	74924	10162.894379945651	1
0	74928	10162.919368123532	2
0	74931	10163.509393422112	1
0	74935	10163.540268440004	2
0	74936	10164.45616703652	1
0	74940	10164.651882355702	2
0	74941	10165.18797944639	1
0	74945	10165.352200794121	2
0	74946	10165.727703185744	1
0	74950	10166.108836577655	2
0	74951	10166.412222358064	1
0	74955	10166.717073912843	2
0	74956	10167.048956553537	1
0	74960	10167.065336908529	2
0	74961	10167.855200232558	1
0	74965	10168.153652279822	2
0	74966	10168.843904328618	1
0	74970	10169.129653268135	2
0	74971	10169.52525773043	1
0	74975	10169.673296165027	2
0	74976	10169.94146845801	1
0	74980	10170.510121859801	2
0	74981	10170.837800170288	1
0	74984	10171.301277824345	0
0	74988	10171.425314315265	1
0	74989	10171.795197675371	0
0	74993	10172.246742982794	1
0	74995	10172.30444072292	2
0	74996	10172.335530704067	1
0	75000	10172.746238544556	2
0	75001	10173.041838343109	1
0	75004	10173.92264678608	0
0	75008	10173.9527062989	1
0	75012	10174.225254131048	2
0	75013	10174.83932380196	1
0	75017	10175.228381376704	2
0	75018	10175.483476973877	1
0	75021	10176.357347787956	0
0	75025	10176.657010889097	1
0	75026	10177.28277952526	0
0	75030	10177.767240957254	1
0	75031	10178.022751823759	0
0	75035	10178.036442352213	1
0	75036	10178.541809807897	0
0	75040	10178.628895313202	1
0	75041	10179.092555396205	0
0	75045	10179.604440707361	1
0	75046	10179.630600447247	0
0	75053	10180.611710892612	1
0	75054	10180.66737986644	0
0	75063	10181.653193032878	1
0	75065	10181.968605371642	2
0	75066	10182.357378095241	1
0	75071	10183.204153439069	0
0	75078	10184.077485109123	1
0	75080	10184.151423815573	2
0	75082	10184.167108958028	3
0	75083	10184.424471107164	2
0	75086	10185.042810671722	1
0	75092	10185.541550772027	2
0	75093	10185.886077194839	1
0	75097	10186.22363932096	2
0	75098	10186.628322184497	1
0	75102	10186.741370755879	2
0	75103	10187.348777980163	1
0	75106	10188.046592810602	0
0	75110	10188.12112620399	1
0	75112	10188.150499967525	2
0	75113	10188.839362722627	1
0	75117	10189.686157433674	2
0	75118	10189.757951698118	1
0	75121	10190.17022357354	0
0	75125	10190.867246779424	1
0	75126	10190.894150857898	0
0	75130	10191.196112107583	1
0	75131	10191.379514931832	0
0	75135	10191.659559917009	1
0	75136	10191.907375214333	0
0	75142	10192.166092310737	1
0	75143	10192.785701955147	0
0	75147	10193.021855701671	1
0	75148	10193.637388694836	0
0	75152	10193.648981168011	1
0	75153	10194.251401269939	0
0	75157	10194.399346860558	1
0	75158	10194.817644328196	0
0	75162	10195.156633213567	1
0	75163	10195.291284533721	0
0	75167	10195.340917107784	1
0	75169	10195.804181488269	2
0	75170	10195.943567702305	1
0	75174	10196.472372500023	2
0	75175	10196.682761161346	1
0	75179	10196.772690601916	2
0	75180	10197.410368788233	1
0	75183	10198.044022090584	0
0	75187	10198.07582489963	1
0	75189	10198.533102412848	2
0	75190	10198.634318524823	1
0	75194	10198.772759058325	2
0	75195	10199.383734279164	1
0	75199	10200.025734765224	2
0	75200	10200.19617730667	1
0	75204	10200.647171093525	2
0	75205	10200.92466723336	1
0	75209	10201.412035865944	2
0	75210	10201.570130296276	1
0	75214	10201.63568029497	2
0	75215	10202.137276334726	1
0	75219	10202.547549903606	2
0	75220	10202.656048101038	1
0	75224	10202.664264097298	2
0	75225	10203.260076903822	1
0	75230	10203.993271818375	0
0	75234	10204.27225922654	1
0	75235	10204.613186736908	0
0	75239	10204.68534931126	1
0	75240	10205.551614433192	0
0	75244	10205.566669374177	1
0	75245	10206.151736379359	0
0	75254	10206.748473629659	1
0	75256	10206.868821376364	2
0	75258	10207.100586503597	3
0	75259	10207.168338388103	2
0	75264	10207.754966272033	1
0	75268	10207.976402772608	2
0	75269	10208.58194109657	1
0	75273	10208.620446162754	2
0	75276	10209.035009114343	1
0	75280	10209.095750568043	2
0	75281	10210.004535317459	1
0	75285	10210.372310096482	2
0	75286	10210.777626741203	1
0	75289	10211.58413965785	0
0	75296	10212.494967489992	1
0	75297	10212.996245003437	0
0	75306	10214.027717638037	1
0	75307	10214.286003153391	0
0	75316	10214.904589033382	1
0	75317	10215.250841056548	0
0	75324	10216.128979313923	1
0	75325	10216.766497538651	0
0	75334	10217.513665982434	1
0	75337	10218.074842012108	0
0	75346	10219.043436135357	1
0	75347	10219.555331581452	0
0	75354	10220.117341230677	1
0	75357	10220.982199219282	0
0	75366	10221.694895649755	1
0	75367	10222.237162140098	0
0	75377	10223.505801763599	1
0	75382	10224.295556550513	0
0	75397	10226.612331602489	1
0	75398	10226.95501307891	0
0	75410	10228.533486078645	1
0	75413	10229.158432098471	0
0	75419	10229.982893925358	1
0	75420	10230.080879890819	0
0	75479	10237.828147162139	1
0	75482	10238.246285377438	0
0	75491	10239.171346305531	1
0	75492	10239.424724359712	0
0	75501	10240.81132911164	1
0	75502	10240.828868983401	0
0	75520	10243.142838252939	1
0	75522	10243.212603148641	2
0	75523	10243.252908783912	1
0	75526	10244.233808293234	0
0	75533	10244.864373619754	1
0	75534	10245.677171650476	0
0	75545	10247.109718390792	1
0	75546	10247.395765948661	0
0	75553	10248.444989124153	1
0	75554	10248.868343141388	0
0	75563	10249.469151886619	1
0	75564	10249.79793234341	0
0	75571	10250.717682399557	1
0	75574	10251.433126794027	0
0	75580	10251.959592791285	1
0	75581	10252.08293461282	0
0	75585	10252.451741085806	1
0	75586	10252.526446580926	0
0	75593	10252.992404989915	1
0	75594	10253.521717824873	0
0	75598	10253.612519218057	1
0	75601	10254.083195187657	0
0	75605	10254.725398384973	1
0	75607	10254.785520137106	2
0	75608	10254.958768038259	1
0	75612	10255.325766107675	2
0	75613	10255.873451817029	1
0	75617	10256.378104406218	2
0	75618	10256.712079163634	1
0	75622	10256.772805549431	2
0	75623	10257.435644600953	1
0	75627	10257.449242922066	2
0	75628	10257.95288363932	1
0	75633	10258.920133799355	0
0	75637	10259.109232906689	1
0	75638	10259.490771614754	0
0	75642	10259.893032163908	1
0	75644	10260.070884399201	2
0	75645	10260.254261166224	1
0	75649	10260.296319443451	2
0	75650	10260.997732567036	1
0	75654	10261.479410459804	2
0	75655	10261.65802539931	1
0	75659	10262.086282407981	2
0	75660	10262.32092145555	1
0	75664	10262.359819276989	2
0	75667	10262.728802915656	1
0	75670	10263.457540576619	0
0	75674	10263.776712299583	1
0	75675	10263.965361066389	0
0	75682	10265.197022843353	1
0	75683	10265.582691833417	0
0	75687	10265.726289744098	1
0	75690	10266.25198907926	0
0	75694	10266.296457713498	1
0	75695	10267.029326364438	0
0	75712	10268.812771382289	1
0	75714	10269.006317757677	2
0	75715	10269.58098799553	1
0	75718	10270.154001744783	0
0	75722	10270.366996227306	1
0	75723	10270.877325964759	0
0	75731	10271.144542787483	1
0	75732	10271.324202227213	0
0	75736	10271.454058393143	1
0	75737	10272.24697100105	0
0	75741	10272.620191550566	1
0	75742	10273.173631986224	0
0	75746	10273.410677865023	1
0	75747	10273.949441384704	0
0	75751	10274.178929018613	1
0	75752	10274.534823624085	0
0	75756	10274.668501186328	1
0	75757	10275.385811361245	0
0	75764	10276.258248191757	1
0	75765	10276.44111757329	0
0	75772	10277.15973602246	1
0	75774	10277.199553007798	2
0	75775	10277.608091240369	1
0	75780	10278.319475640862	0
0	75784	10278.634179711794	1
0	75785	10279.18473778832	0
0	75789	10279.303383015929	1
0	75791	10279.572511195926	2
0	75792	10279.79143914738	1
0	75797	10280.439240304048	0
0	75801	10280.449893595362	1
0	75802	10280.847943581261	0
0	75806	10281.099274933918	1
0	75808	10281.241991266062	2
0	75809	10281.380683115443	1
0	75813	10281.444199965599	2
0	75815	10281.697433236232	3
0	75816	10281.987913784144	2
0	75820	10282.116092243639	3
0	75821	10282.5390695332	2
0	75825	10282.798771114792	3
0	75826	10283.096983033829	2
0	75830	10283.272649869812	3
0	75831	10283.976857255297	2
0	75835	10284.016954588243	3
0	75836	10284.609026831286	2
0	75840	10284.965946100611	3
0	75841	10285.413332197852	2
0	75844	10285.917343660388	1
0	75848	10286.288718917597	2
0	75849	10286.694311633045	1
0	75855	10286.835441514988	2
0	75856	10287.67631766269	1
0	75860	10287.83544182759	2
0	75861	10288.577665530089	1
0	75865	10288.769065724573	2
0	75866	10289.414944075783	1
0	75870	10289.791740871143	2
0	75871	10290.181825711801	1
0	75875	10290.544696832576	2
0	75876	10290.583316134884	1
0	75879	10291.106020057191	0
0	75883	10291.576466277261	1
0	75884	10291.848492050859	0
0	75888	10292.373293070781	1
0	75890	10292.664870798535	2
0	75891	10292.755844064652	1
0	75895	10292.959416711605	2
0	75897	10293.027648657593	3
0	75898	10293.213392016328	2
0	75902	10293.311262005161	3
0	75903	10293.97156315985	2
0	75907	10293.981603247151	3
0	75908	10294.650796036691	2
0	75912	10294.68454430492	3
0	75913	10295.585270891561	2
0	75917	10295.867624167039	3
0	75918	10296.529597083282	2
0	75922	10297.040090499462	3
0	75923	10297.308709862585	2
0	75927	10297.37711375868	3
0	75928	10298.064114264342	2
0	75932	10298.675933760852	3
0	75933	10298.897761859409	2
0	75937	10298.919215481488	3
0	75938	10299.512061487734	2
0	75942	10300.004375751719	3
0	75943	10300.500761901904	2
0	75947	10300.599147039327	3
0	75948	10301.135123861479	2
0	75951	10302.072136947457	1
0	75956	10302.843387399605	0
0	75960	10303.69516363296	1
0	75961	10303.718082325338	0
0	75965	10303.814467551155	1
0	75966	10304.244524931992	0
0	75970	10304.337599236255	1
0	75972	10304.497435211213	2
0	75973	10305.199358530567	1
0	75977	10305.562098221881	2
0	75978	10306.158913785118	1
0	75982	10306.807384872122	2
0	75983	10306.955250832989	1
0	75987	10307.290258715485	2
0	75988	10307.760815493195	1
0	75994	10308.282784592982	2
0	75995	10308.488648245009	1
0	75999	10308.933472716654	2
0	76000	10309.120643351823	1
0	76003	10309.915844249483	0
0	76007	10310.370892534155	1
0	76008	10310.618999914909	0
0	76015	10311.556928140434	1
0	76017	10311.594293250065	2
0	76018	10311.854400595361	1
0	76023	10312.81165581922	0
0	76027	10313.064176287567	1
0	76028	10313.30282932626	0
0	76032	10313.37474133027	1
0	76033	10314.03545886021	0
0	76037	10314.110235356817	1
0	76038	10314.69621814344	0
0	76045	10315.70997660659	1
0	76046	10315.911244883657	0
0	76050	10315.943416591553	1
0	76053	10316.906522118476	0
0	76057	10316.952048444927	1
0	76058	10317.728680455721	0
0	76062	10318.171314075934	1
0	76063	10318.451201188135	0
0	76070	10319.114827336097	1
0	76072	10319.394321984181	2
0	76073	10319.444774131373	1
0	76078	10320.179922384479	0
0	76082	10320.345263911015	1
0	76083	10320.779348840135	0
0	76090	10321.995066164631	1
0	76091	10322.062936598844	0
0	76097	10322.365498382356	1
0	76098	10322.833137461254	0
0	76102	10322.993586709142	1
0	76103	10323.38435917058	0
0	76110	10324.125726926736	1
0	76111	10324.573461782178	0
0	76120	10325.431272045527	1
0	76121	10326.040087553337	0
0	76130	10326.55946375209	1
0	76131	10327.365322172865	0
0	76145	10328.842300090334	1
0	76147	10329.246830160133	2
0	76148	10329.678576232251	1
0	76153	10330.409918139633	0
0	76157	10330.444046167198	1
0	76158	10331.200192053747	0
0	76162	10331.205329322153	1
0	76163	10331.871277346593	0
0	76170	10333.047752145605	1
0	76171	10333.358954974022	0
0	76180	10334.461421145774	1
0	76181	10335.032592627071	0
0	76190	10335.923959757385	1
0	76191	10336.617695050166	0
0	76200	10337.885410625653	1
0	76201	10338.372672538125	0
0	76210	10339.006015938398	1
0	76211	10339.594987267993	0
0	76220	10340.582382229863	1
0	76221	10340.939084475898	0
0	76232	10341.896127767231	1
0	76233	10342.713863337543	0
0	76316	10355.237043731993	1
0	76319	10355.570149151274	0
0	76328	10356.681422754616	1
0	76329	10357.170985689052	0
0	76338	10358.215667377222	1
0	76343	10358.777453318183	0
0	76352	10359.648864081571	1
0	76353	10360.16112098707	0
0	76362	10360.855785891507	1
0	76365	10361.269296894354	0
0	76372	10362.493444579029	1
0	76375	10362.608894891377	0
0	76382	10363.356321080211	1
0	76383	10364.105471938142	0
0	76394	10364.706673926927	1
0	76395	10365.34240133552	0
0	76402	10365.855752303116	1
0	76407	10366.279343748178	0
0	76416	10367.727915245268	1
0	76417	10368.078131411263	0
0	76426	10369.444112486828	1
0	76427	10369.506314285789	0
0	76493	10380.010459155338	1
0	76496	10380.481094220225	0
0	76508	10381.857510721864	1
0	76511	10382.383935272359	0
0	76522	10383.514488789957	1
0	76523	10383.749110538504	0
0	76530	10384.872256892869	1
0	76533	10385.181634407668	0
0	76545	10386.718844765384	1
0	76547	10386.994624432133	2
0	76548	10387.415041406212	1
0	76551	10387.892729737788	0
0	76560	10388.570409437628	1
0	76562	10388.90784074063	2
0	76565	10389.317174808347	1
0	76570	10390.103785873522	0
0	76574	10390.178975425244	1
0	76577	10390.746121486873	0
0	76587	10392.225963549674	1
0	76590	10392.309757412076	0
0	76594	10392.544694250365	1
0	76595	10393.181763663553	0
0	76599	10393.251774425945	1
0	76602	10393.691939862203	0
0	76612	10395.366219271348	1
0	76614	10395.524171463266	2
0	76617	10395.952644960014	1
0	76621	10396.118263917085	2
0	76622	10396.795886936309	1
0	76629	10397.220869109724	0
0	76633	10397.225004443904	1
0	76635	10397.808993453879	2
0	76636	10397.829117286289	1
0	76640	10398.377649424488	2
0	76641	10398.582052566986	1
0	76645	10398.83487475866	2
0	76646	10399.262952151885	1
0	76650	10399.781196915724	2
0	76652	10399.857243209241	3
0	76653	10399.875978082269	2
0	76657	10400.693923245547	3
0	76658	10400.866725644692	2
0	76661	10401.366588415521	1
0	76665	10401.541785702372	2
0	76667	10401.604517987466	3
0	76668	10401.974832315639	2
0	76672	10402.085541784333	3
0	76673	10402.534344098799	2
0	76677	10402.682516608889	3
0	76680	10403.136948800169	2
0	76684	10403.533392478462	3
0	76685	10404.108993884211	2
0	76689	10404.554473313052	3
0	76690	10404.891666133411	2
0	76694	10405.125289961171	3
0	76696	10405.379827316439	4
0	76697	10405.696360596724	3
0	76701	10405.772302362881	4
0	76705	10406.470387477477	5
0	76706	10406.57319342898	4
0	76710	10407.091423407654	5
0	76711	10407.245358211489	4
0	76715	10407.314538719747	5
0	76716	10407.852264097368	4
0	76720	10407.899367386696	5
0	76721	10408.562395088456	4
0	76725	10409.464898554183	5
0	76726	10409.536786285636	4
0	76730	10409.725029387044	5
0	76731	10410.476821382564	4
0	76735	10410.684092663155	5
0	76736	10410.878449092001	4
0	76739	10411.525242429726	3
0	76743	10411.912924343949	4
0	76744	10412.013152136827	3
0	76748	10412.374968805282	4
0	76750	10412.604431428878	5
0	76751	10412.858987009326	4
0	76755	10413.027927789761	5
0	76757	10413.103491781004	6
0	76758	10413.787131441046	5
0	76762	10413.947578355654	6
0	76763	10414.188952782505	5
0	76767	10414.423958716974	6
0	76768	10414.608227161352	5
0	76772	10414.811152900525	6
0	76773	10415.401101467606	5
0	76777	10415.838505053828	6
0	76778	10416.393228234757	5
0	76782	10416.679293383362	6
0	76784	10416.688744165954	7
0	76785	10417.110372117522	6
0	76789	10417.8008373714	7
0	76790	10418.050415400357	6
0	76793	10418.704141619883	5
0	76796	10419.66130698527	4
0	76800	10419.763516875236	5
0	76801	10420.352064255474	4
0	76805	10420.82203565059	5
0	76806	10420.985379340069	4
0	76810	10421.27506021751	5
0	76811	10421.462503927469	4
0	76814	10421.946059045603	3
0	76818	10422.124129400657	4
0	76820	10422.211441144085	5
0	76821	10422.495681930089	4
0	76824	10423.186555099941	3
0	76828	10423.291124021358	4
0	76830	10423.310046006676	5
0	76833	10424.099899500038	4
0	76836	10424.538943190256	3
0	76840	10424.857972907486	4
0	76841	10425.538746081281	3
0	76844	10426.237797549076	2
0	76848	10426.908871594487	3
0	76850	10427.019650324299	4
0	76852	10427.168907686005	5
0	76853	10427.226896687585	4
0	76857	10427.32281322374	5
0	76858	10427.985267681523	4
0	76862	10427.999567613298	5
0	76864	10428.057087859934	6
0	76865	10428.808136579522	5
0	76868	10429.522623512137	4
0	76871	10430.132134673453	3
0	76875	10430.490174777673	4
0	76877	10430.793343719969	5
0	76878	10431.002282533224	4
0	76882	10431.172981449196	5
0	76883	10431.762542160635	4
0	76887	10432.142016734029	5
0	76888	10432.379847771336	4
0	76892	10432.729832515684	5
0	76894	10433.216925308468	6
0	76895	10433.325373794499	5
0	76898	10434.003980496933	4
0	76902	10434.042629332896	5
0	76904	10434.10579976903	6
0	76905	10434.837515786092	5
0	76909	10434.891602450359	6
0	76910	10435.487179879693	5
0	76914	10435.58407782518	6
0	76916	10435.796974987885	7
0	76917	10436.226728006813	6
0	76921	10436.321706945469	7
0	76922	10437.174366258818	6
0	76926	10437.566054551158	7
0	76927	10437.772749592073	6
0	76931	10438.371550397571	7
0	76932	10438.596969950281	6
0	76935	10439.50014107622	5
0	76938	10440.338306702057	4
0	76942	10440.354652269401	5
0	76944	10441.114010649	6
0	76945	10441.322363770696	5
0	76949	10441.560934241413	6
0	76953	10441.642261397371	7
0	76954	10441.861054888916	6
0	76958	10442.203341297662	7
0	76959	10442.853123005935	6
0	76963	10442.982415690432	7
0	76965	10443.355898136845	8
0	76966	10443.852650777613	7
0	76970	10443.893599839113	8
0	76971	10444.737114060334	7
0	76975	10445.011225542664	8
0	76976	10445.485144608085	7
0	76980	10445.720911742487	8
0	76981	10446.393724020979	7
0	76985	10446.582325752128	8
0	76986	10446.921626087687	7
0	76990	10447.172989069278	8
0	76991	10447.512657606312	7
0	76994	10447.954303969945	6
0	76998	10448.032516438417	7
0	77000	10448.06966043514	8
0	77001	10448.731931345527	7
0	77004	10449.278808368127	6
0	77007	10449.739051750572	5
0	77011	10450.119885394259	6
0	77012	10450.152066459311	5
0	77016	10450.265913702467	6
0	77017	10450.808149453057	5
0	77021	10450.895683437599	6
0	77023	10451.094142571974	7
0	77025	10451.109095738627	8
0	77026	10451.804750946574	7
0	77030	10452.080510011244	8
0	77033	10452.796117191101	7
0	77037	10452.968130801564	8
0	77038	10453.281654402046	7
0	77042	10453.507033617438	8
0	77043	10454.012918243036	7
0	77048	10454.733071097443	6
0	77052	10454.866751485868	7
0	77053	10455.611063199295	6
0	77059	10455.699654771551	7
0	77060	10456.563765891493	6
0	77064	10456.700660163539	7
0	77067	10457.506108599706	6
0	77071	10457.936370786893	7
0	77072	10458.125475584288	6
0	77076	10458.419129299095	7
0	77077	10458.735494768285	6
0	77081	10458.831623455342	7
0	77084	10459.609140764913	6
0	77087	10460.44648640397	5
0	77090	10461.17314079822	4
0	77094	10461.281393601695	5
0	77096	10461.434914248986	6
0	77097	10461.746256103869	5
0	77101	10462.347071500927	6
0	77102	10462.6095363052	5
0	77106	10463.103216848945	6
0	77107	10463.332662649955	5
0	77111	10463.339428248668	6
0	77112	10464.328226386466	5
0	77115	10465.25876604299	4
0	77119	10465.679402810827	5
0	77120	10465.806064622374	4
0	77123	10466.512874241443	3
0	77127	10467.005406085027	4
0	77128	10467.299801201131	3
0	77132	10468.062116955846	4
0	77133	10468.063312179958	3
0	77137	10468.261282210836	4
0	77139	10468.550733316946	5
0	77140	10468.613077250579	4
0	77144	10468.93045935352	5
0	77146	10469.511361627233	6
0	77147	10469.568522415021	5
0	77151	10469.61700037854	6
0	77152	10470.171887946771	5
0	77156	10470.253589122238	6
0	77157	10470.779472216954	5
0	77161	10470.783266852873	6
0	77162	10471.481973421843	5
0	77166	10471.820553256471	6
0	77167	10472.442410549977	5
0	77171	10472.870172023701	6
0	77172	10473.135226571364	5
0	77175	10473.59381029074	4
0	77178	10474.326687938384	3
0	77182	10474.419147664353	4
0	77184	10474.657461154766	5
0	77185	10474.993525375602	4
0	77189	10475.535671139065	5
0	77192	10475.887679002983	4
0	77196	10476.381449483932	5
0	77197	10476.863318333299	4
0	77201	10477.269133162718	5
0	77202	10477.646796688846	4
0	77206	10477.663389398966	5
0	77209	10478.402832520882	4
0	77213	10479.060043792452	5
0	77214	10479.122491927481	4
0	77217	10479.554879030808	3
0	77220	10480.266672407267	2
0	77224	10480.384966418767	3
0	77226	10480.7584386522	4
0	77227	10480.767006922643	3
0	77231	10480.779963773503	4
0	77233	10480.973120839265	5
0	77234	10481.496948785232	4
0	77237	10482.003906168779	3
0	77241	10482.508361419307	4
0	77242	10482.571631948547	3
0	77246	10483.09834275072	4
0	77248	10483.311180063862	5
0	77249	10483.367384683471	4
0	77252	10484.184017647235	3
0	77255	10485.117078296365	2
0	77259	10485.366887604331	3
0	77260	10485.766422001915	2
0	77264	10485.813032376626	3
0	77266	10486.017897471529	4
0	77267	10486.40123041057	3
0	77271	10486.533989470995	4
0	77272	10487.218509620884	3
0	77278	10487.416209003078	4
0	77279	10487.657233750484	3
0	77283	10487.802238356632	4
0	77286	10488.599984611281	3
0	77290	10488.7248191918	4
0	77295	10489.570520443273	3
0	77299	10489.63154195004	4
0	77300	10490.094978802129	3
0	77303	10490.497700492003	2
0	77307	10490.539646560815	3
0	77309	10490.911282109703	4
0	77310	10491.487630621194	3
0	77314	10491.973552179704	4
0	77315	10492.416512399995	3
0	77318	10493.070286286566	2
0	77322	10493.141621773883	3
0	77324	10493.235206993678	4
0	77325	10493.798246492901	3
0	77329	10493.891765437255	4
0	77330	10494.521689474526	3
0	77334	10494.582630528755	4
0	77335	10495.193421344868	3
0	77339	10495.422628347904	4
0	77340	10495.620459782974	3
0	77344	10495.740632859752	4
0	77345	10496.287181434677	3
0	77349	10497.056988871423	4
0	77350	10497.194954262198	3
0	77354	10497.474751042716	4
0	77357	10498.007129224426	3
0	77361	10498.285940884639	4
0	77362	10498.866079687876	3
0	77366	10499.384831906751	4
0	77367	10499.645698948008	3
0	77370	10500.175450862608	2
0	77374	10500.221268299487	3
0	77375	10501.027110159666	2
0	77379	10501.151888616	3
0	77380	10501.79688492719	2
0	77383	10502.755263320905	1
0	77387	10502.808879835838	2
0	77388	10503.365795817961	1
0	77392	10503.69339372007	2
0	77393	10503.786560928765	1
0	77398	10504.468504831185	0
0	77402	10504.679974055316	1
0	77404	10504.985945233743	2
0	77405	10505.170935674048	1
0	77409	10505.576026647505	2
0	77410	10505.727068194038	1
0	77414	10505.797922948577	2
0	77417	10506.618944020931	1
0	77421	10506.789578781059	2
0	77422	10507.430637186755	1
0	77426	10507.93672268434	2
0	77427	10508.330541197293	1
0	77431	10508.904171169607	2
0	77432	10509.02920082271	1
0	77436	10509.399096264716	2
0	77437	10509.716078923958	1
0	77441	10509.720568020153	2
0	77442	10510.505771642494	1
0	77446	10510.656451636644	2
0	77449	10511.089162321425	1
0	77453	10511.460554303272	2
0	77454	10511.554352641235	1
0	77458	10511.72958992392	2
0	77459	10512.313284492901	1
0	77463	10512.330310451043	2
0	77464	10513.293515616412	1
0	77467	10513.84828908163	0
0	77474	10514.521970413887	1
0	77478	10514.627277586381	2
0	77479	10514.952780117364	1
0	77483	10514.976963621763	2
0	77485	10515.102403645877	3
0	77488	10515.623051344687	2
0	77492	10515.732376274945	3
0	77493	10516.38519744318	2
0	77497	10516.613751417112	3
0	77498	10516.895662618699	2
0	77502	10516.942529335293	3
0	77503	10517.511442932571	2
0	77507	10518.083180629186	3
0	77508	10518.495792285158	2
0	77512	10518.508325911647	3
0	77513	10519.018512963169	2
0	77516	10519.605631425363	1
0	77519	10520.113181556287	0
0	77523	10520.258494953694	1
0	77525	10520.816547853646	2
0	77526	10520.926311607324	1
0	77529	10521.396018985324	0
0	77533	10521.543012320162	1
0	77534	10522.277328539957	0
0	77541	10522.977960729306	1
0	77542	10523.861292450401	0
0	77546	10524.009441308944	1
0	77547	10524.278862131053	0
0	77551	10524.627074151562	1
0	77554	10525.061577396739	0
0	77558	10525.497454688627	1
0	77559	10525.939119384523	0
0	77563	10525.953213167934	1
0	77564	10526.867215091262	0
0	77571	10527.861050353521	1
0	77572	10528.331328323942	0
0	77581	10529.135021580808	1
0	77582	10529.352174361276	0
0	77589	10530.141228501233	1
0	77590	10530.673641887114	0
0	77601	10531.654445091663	1
0	77602	10531.906275401397	0
0	77611	10532.520934013446	1
0	77613	10532.601322619804	2
0	77614	10533.375010831368	1
0	77617	10533.804880837438	0
0	77621	10533.885399540169	1
0	77624	10534.27485113744	0
0	77767	10552.906309207563	1
0	77770	10553.350437702232	0
0	77782	10554.427791945847	1
0	77785	10555.254529954301	0
0	77800	10556.330608310065	1
0	77801	10556.410897678969	0
0	77812	10557.78742615314	1
0	77813	10557.961789787135	0
0	77822	10559.300951848903	1
0	77823	10559.91068167318	0
0	77834	10561.374053965254	1
0	77835	10561.737167906103	0
0	77844	10562.486608859664	1
0	77847	10563.215876703377	0
0	77854	10564.347868598241	1
0	77855	10564.614215609099	0
0	77864	10565.261771044885	1
0	77865	10565.988919473201	0
0	77872	10566.554438281684	1
0	77873	10566.95689463261	0
0	77886	10569.29663490269	1
0	77895	10570.230191991659	0
0	77902	10570.854325794221	1
0	77903	10571.733507673111	0
0	77917	10573.392604726004	1
0	77920	10573.908652992401	0
0	77932	10575.358743477273	1
0	77935	10575.945475200372	0
0	77946	10577.055742416537	1
0	77947	10577.649938566885	0
0	77961	10578.653712681807	1
0	77962	10578.972135206215	0
0	77974	10580.648800666242	1
0	77975	10580.886823371468	0
0	77991	10582.417334862593	1
0	77993	10582.808451115413	2
0	77994	10582.964762969404	1
0	77999	10583.69088512328	0
0	78003	10583.946236985748	1
0	78004	10584.4686165926	0
0	78008	10584.673921137111	1
0	78009	10585.196088212351	0
0	78013	10585.220192197467	1
0	78014	10585.947514427215	0
0	78018	10586.07145864197	1
0	78019	10586.807502216142	0
0	78023	10587.302738589542	1
0	78024	10587.46879187575	0
0	78031	10588.425182807436	1
0	78032	10588.494121099025	0
0	78039	10589.287357692591	1
0	78042	10589.755035401317	0
0	78046	10589.757817335217	1
0	78047	10590.744473816496	0
0	78054	10591.709314226923	1
0	78055	10592.315244884877	0
0	78066	10593.308728274371	1
0	78067	10593.734947933252	0
0	78074	10595.081788262212	1
0	78075	10595.432727325284	0
0	78082	10596.561307943471	1
0	78083	10596.738339081774	0
0	78090	10597.340165506702	1
0	78091	10597.981316936616	0
0	78098	10599.058399007332	1
0	78102	10599.261889902463	2
0	78105	10599.341255909106	1
0	78108	10599.785042631528	0
0	78112	10600.149127146721	1
0	78113	10600.339522180142	0
0	78117	10600.491372340918	1
0	78118	10601.083050502459	0
0	78125	10602.162388015794	1
0	78126	10602.335606900225	0
0	78133	10603.214174288547	1
0	78134	10603.557276767673	0
0	78145	10605.0654363281	1
0	78146	10605.255049827736	0
0	78155	10606.324647245429	1
0	78156	10606.637866878597	0
0	78165	10607.377960953156	1
0	78168	10608.149215632997	0
0	78177	10609.076312990399	1
0	78178	10609.441062698228	0
0	78187	10610.688560463296	1
0	78188	10610.859401446016	0
0	78194	10611.548752842176	1
0	78195	10611.844097346713	0
0	78199	10611.966629687078	1
0	78200	10612.296171710122	0
0	78204	10612.435325195041	1
0	78205	10612.955240014655	0
0	78209	10613.236085323418	1
0	78210	10613.71051012575	0
0	78214	10613.995089572432	1
0	78215	10614.332514291483	0
0	78219	10614.334798192894	1
0	78220	10614.895473027828	0
0	78224	10614.953962528586	1
0	78225	10615.806013068038	0
0	78229	10615.884888404003	1
0	78230	10616.770488096441	0
0	78236	10617.295249630369	1
0	78237	10617.461157235124	0
0	78244	10618.504913420835	1
0	78246	10618.602161840029	2
0	78247	10619.264047875994	1
0	78252	10619.968412835331	0
0	78256	10620.086451160372	1
0	78257	10620.60070019075	0
0	78261	10620.709889947593	1
0	78262	10621.11440356117	0
0	78266	10621.555512268466	1
0	78267	10621.609082196553	0
0	78271	10622.143556917046	1
0	78272	10622.505961942107	0
0	78279	10623.343179613201	1
0	78281	10623.938723212368	2
0	78282	10624.221983300282	1
0	78287	10624.882357487727	0
0	78291	10625.289535791715	1
0	78292	10625.788031619128	0
0	78299	10627.097687845328	1
0	78300	10627.150013984779	0
0	78317	10629.653323381105	1
0	78318	10629.721777471567	0
0	78334	10631.001286560954	1
0	78335	10631.500589355167	0
0	78344	10632.215180178215	1
0	78345	10632.657051936716	0
0	78367	10636.548955506513	1
0	78368	10636.767384587594	0
0	78377	10638.055498790821	1
0	78382	10638.599498425697	0
0	78451	10648.865618235819	1
0	78454	10649.547771665867	0
0	78473	10652.361804865138	1
0	78476	10652.611317033081	0
0	78578	10665.896682004484	1
0	78579	10666.056376527988	0
0	78594	10667.473184763277	1
0	78595	10667.649102951113	0
0	78604	10668.672471200918	1
0	78606	10669.012102623954	2
0	78607	10669.164310184439	1
0	78610	10670.154490578539	0
0	78614	10670.171100243577	1
0	78615	10671.038422947741	0
0	78619	10671.622722202067	1
0	78620	10671.7364520498	0
0	78627	10672.643196715633	1
0	78629	10672.716471283693	2
0	78630	10673.460258372119	1
0	78633	10674.043774346253	0
0	78637	10674.174927825803	1
0	78640	10674.872758634845	0
0	78644	10675.285994808105	1
0	78645	10675.790945370207	0
0	78652	10677.14261285121	1
0	78653	10677.356558871959	0
0	78662	10678.383472845115	1
0	78665	10679.248910386526	0
0	78672	10680.132159422629	1
0	78673	10680.581234608349	0
0	78682	10681.342683939623	1
0	78683	10681.801066914099	0
0	78694	10682.613372557057	1
0	78695	10683.341523192954	0
0	78711	10684.928948901522	1
0	78714	10685.568999500611	0
0	78723	10686.22636035939	1
0	78724	10686.863157642485	0
0	78733	10687.482809558712	1
0	78734	10687.875516303248	0
0	78743	10689.125124220588	1
0	78744	10689.43341189161	0
0	78750	10690.24574374271	1
0	78751	10690.283296973343	0
0	78755	10691.196315938312	1
0	78756	10691.199805594553	0
0	78760	10691.332180463151	1
0	78761	10691.920557967937	0
0	78765	10692.130881017374	1
0	78766	10692.802480724166	0
0	78770	10693.031158941171	1
0	78771	10693.526100435146	0
0	78778	10694.297302618589	1
0	78779	10694.827528740457	0
0	78785	10695.231685068234	1
0	78786	10695.757064775835	0
0	78790	10695.765088713667	1
0	78791	10696.535448759134	0
0	78795	10696.553065522261	1
0	78796	10697.505449458017	0
0	78800	10697.65216105196	1
0	78801	10698.401055246909	0
0	78807	10698.805585242685	1
0	78808	10699.061360965381	0
0	78812	10699.17600293404	1
0	78813	10700.005615300583	0
0	78817	10700.446366616291	1
0	78818	10700.847313261023	0
0	78822	10701.068061014116	1
0	78823	10701.619741580812	0
0	78827	10701.976702595238	1
0	78828	10702.42709310268	0
0	78832	10702.962275680662	1
0	78833	10703.098089064974	0
0	78840	10703.923877322406	1
0	78841	10704.323580150017	0
0	78848	10705.367688956575	1
0	78849	10705.666702563538	0
0	78858	10706.618849205701	1
0	78859	10706.815061102983	0
0	78867	10706.917747924511	1
0	78868	10707.441677385372	0
0	78872	10707.697846169178	1
0	78873	10708.201000179899	0
0	78877	10708.594205188697	1
0	78878	10708.790487931193	0
0	78885	10709.617872414401	1
0	78886	10710.211313023734	0
0	78895	10711.418170265107	1
0	78896	10711.687392241963	0
0	78903	10712.984080634899	1
0	78904	10713.165503828636	0
0	78917	10714.241181467922	1
0	78918	10714.566476811272	0
0	78932	10715.824043136308	1
0	78933	10716.606133582898	0
0	78942	10717.685525491003	1
0	78945	10717.807545160677	0
0	78958	10718.700929345976	1
0	78959	10718.717315516796	0
0	78963	10719.52232369791	1
0	78964	10719.70444231889	0
0	78968	10719.948910079976	1
0	78971	10720.241811696615	0
0	78975	10720.309683192924	1
0	78978	10720.956251693366	0
0	78985	10722.113605079981	1
0	78986	10722.7077194502	0
0	78995	10723.798254619314	1
0	78996	10724.49409958598	0
0	79003	10725.130226186037	1
0	79007	10725.512015689026	2
0	79009	10725.774147033352	3
0	79010	10726.015435821692	2
0	79015	10726.731652496931	1
0	79019	10727.388160718128	2
0	79020	10727.601257375059	1
0	79023	10728.494684008546	0
0	79027	10728.567638651139	1
0	79028	10729.075565559175	0
0	79032	10729.158627630908	1
0	79033	10729.481184158977	0
0	79037	10729.532842502736	1
0	79038	10729.982006195877	0
0	79042	10730.002290113209	1
0	79043	10730.439449302657	0
0	79047	10730.493189335511	1
0	79048	10730.939874676327	0
0	79052	10731.353824291337	1
0	79053	10731.487884284734	0
0	79057	10731.799902168943	1
0	79058	10731.925823340417	0
0	79065	10732.496633894899	1
0	79067	10732.695926062966	2
0	79068	10732.913282581737	1
0	79071	10733.89657005951	0
0	79075	10734.209425306145	1
0	79078	10734.682562385306	0
0	79085	10735.275408985868	1
0	79086	10735.953903269993	0
0	79097	10736.492156745134	1
0	79098	10736.892221778251	0
0	79113	10738.084576317736	1
0	79116	10738.595261105375	0
0	79125	10739.118742896974	1
0	79127	10739.723189375261	2
0	79128	10739.954428026491	1
0	79131	10740.551197591229	0
0	79138	10741.871446131329	1
0	79139	10741.917682039543	0
0	79145	10742.545071566082	1
0	79147	10742.549938993054	2
0	79148	10742.820737845861	1
0	79152	10743.597433777585	2
0	79153	10743.6344621797	1
0	79157	10744.129883686281	2
0	79158	10744.142777483389	1
0	79162	10744.39337242842	2
0	79163	10744.852782511376	1
0	79167	10745.086795912557	2
0	79168	10745.759494731287	1
0	79172	10745.871689484304	2
0	79173	10746.260965812617	1
0	79176	10747.150403327254	0
0	79183	10747.965625607037	1
0	79184	10748.016180015813	0
0	79193	10749.101113203484	1
0	79194	10749.815344205863	0
0	79201	10750.711849710885	1
0	79203	10750.943997102948	2
0	79204	10751.24456100505	1
0	79207	10751.739062121642	0
0	79211	10751.921511502236	1
0	79212	10752.249439604013	0
0	79216	10752.403434675825	1
0	79217	10752.90298053654	0
0	79221	10753.049566626416	1
0	79224	10753.560027034526	0
0	79228	10753.591910677148	1
0	79229	10754.486606940014	0
0	79233	10754.861155095616	1
0	79235	10754.936276575763	2
0	79236	10755.080176444716	1
0	79240	10755.367711968143	2
0	79241	10755.956496956331	1
0	79244	10756.796499523605	0
0	79248	10757.081735592836	1
0	79249	10757.595305880849	0
0	79256	10758.135939688388	1
0	79257	10758.780643218747	0
0	79261	10758.810151867322	1
0	79264	10759.357433941719	0
0	79270	10759.94500451149	1
0	79273	10760.297658203813	0
0	79277	10760.425458388884	1
0	79278	10760.733930475442	0
0	79287	10761.788810270603	1
0	79289	10762.105252761621	2
0	79290	10762.19900008956	1
0	79293	10762.846374975043	0
0	79300	10763.799895316957	1
0	79302	10763.901004890496	2
0	79303	10764.333818056565	1
0	79306	10764.746700136634	0
0	79310	10764.885399621275	1
0	79311	10765.326843193677	0
0	79315	10765.411050139154	1
0	79316	10765.819786193539	0
0	79323	10766.711134810382	1
0	79324	10767.213594568419	0
0	79330	10767.575357330948	1
0	79331	10768.151115031113	0
0	79335	10768.61671530762	1
0	79336	10769.103455657923	0
0	79343	10769.85718572504	1
0	79345	10770.194560322879	2
0	79346	10770.764752808299	1
0	79351	10771.358946709048	0
0	79360	10772.194371614835	1
0	79361	10772.430007085709	0
0	79367	10772.644216833807	1
0	79368	10773.024382865515	0
0	79372	10773.081263513719	1
0	79373	10773.876576201704	0
0	79377	10774.2436744497	1
0	79378	10774.794583427992	0
0	79382	10775.003746923286	1
0	79383	10775.198394257615	0
0	79387	10775.634149233687	1
0	79388	10776.174668680544	0
0	79392	10776.191659893063	1
0	79395	10776.674024379899	0
0	79402	10777.703942383616	1
0	79404	10777.924936347129	2
0	79406	10778.037565340732	3
0	79407	10778.15731186624	2
0	79412	10779.098266188049	1
0	79416	10779.151496842011	2
0	79417	10779.641959880472	1
0	79421	10780.007496561486	2
0	79423	10780.154612348011	3
0	79424	10780.597263162623	2
0	79428	10780.797551068648	3
0	79429	10781.480129727715	2
0	79433	10781.683133262743	3
0	79434	10782.140673971822	2
0	79438	10782.614876060956	3
0	79439	10782.665609289327	2
0	79443	10782.75024909075	3
0	79444	10783.346892365155	2
0	79448	10783.847093200039	3
0	79449	10784.185944619629	2
0	79452	10784.971501274215	1
0	79456	10785.711078243596	2
0	79457	10785.75804556454	1
0	79461	10785.758087838955	2
0	79463	10785.965890492515	3
0	79464	10786.419021553494	2
0	79467	10786.848285808641	1
0	79471	10786.983994073327	2
0	79472	10787.48842219612	1
0	79475	10787.987837626593	0
0	79479	10788.196967257858	1
0	79481	10788.217526353416	2
0	79482	10788.499477747822	1
0	79486	10788.642570764175	2
0	79487	10789.248265350045	1
0	79491	10789.368765579298	2
0	79492	10790.213185002229	1
0	79495	10790.725950635078	0
0	79499	10791.126479472486	1
0	79501	10791.27991226584	2
0	79502	10791.70305612664	1
0	79505	10792.192513757658	0
0	79512	10793.176831327505	1
0	79514	10793.268458416136	2
0	79515	10793.589942256261	1
0	79520	10793.998045664413	0
0	79527	10794.836304188196	1
0	79529	10794.871321273101	2
0	79530	10795.02249843524	1
0	79535	10795.60257042925	0
0	79545	10797.164963150057	1
0	79547	10797.23671645726	2
0	79550	10797.646804028323	1
0	79553	10798.364753638573	0
0	79557	10798.56245268627	1
0	79562	10799.343533785494	0
0	79566	10799.517079977538	1
0	79569	10800.229497356798	0
0	79573	10800.649995790953	1
0	79574	10801.060144166687	0
0	79578	10801.126042379311	1
0	79579	10801.661819546755	0
0	79583	10801.709416319835	1
0	79586	10802.165941483054	0
0	79590	10802.367147370358	1
0	79591	10802.598788842551	0
0	79600	10803.776098312417	1
0	79602	10804.111386434431	2
0	79603	10804.132200297752	1
0	79606	10804.826373261112	0
0	79621	10806.959085549529	1
0	79622	10807.404229261905	0
0	79641	10809.773472675962	1
0	79642	10809.942962609783	0
0	79649	10811.590705551113	1
0	79650	10811.673681690909	0
0	79659	10812.587401219714	1
0	79662	10813.488907831574	0
0	79673	10814.481034728603	1
0	79674	10814.658023090561	0
0	79683	10815.373350015309	1
0	79684	10815.799723115557	0
0	79693	10816.373616865638	1
0	79696	10817.059157327975	0
0	79705	10818.056313604641	1
0	79706	10818.746700581855	0
0	79715	10820.020492045029	1
0	79716	10820.233712183398	0
0	79769	10827.474216212788	1
0	79772	10827.687944708153	0
0	79781	10828.689125162341	1
0	79782	10829.043042683828	0
0	79791	10830.506523608489	1
0	79794	10830.674245054967	0
0	79803	10831.244898963627	1
0	79804	10831.779325385712	0
0	79814	10833.426820061841	1
0	79815	10833.531005600275	0
0	79819	10833.992579598115	1
0	79820	10834.281021714717	0
0	79829	10835.523907472641	1
0	79831	10835.729673592443	2
0	79834	10835.794389631593	1
0	79839	10836.269784517999	0
0	79845	10836.661509314236	1
0	79846	10836.930579090019	0
0	79850	10837.24046036075	1
0	79851	10837.73931407993	0
0	79855	10838.347769514226	1
0	79856	10838.392071078618	0
0	79863	10839.372409909673	1
0	79865	10839.482381539145	2
0	79866	10840.103026322874	1
0	79869	10841.058807410107	0
0	79878	10842.124724530547	1
0	79880	10842.290788460973	2
0	79881	10842.447550618083	1
0	79886	10843.424639892758	0
0	79890	10843.896098353216	1
0	79891	10844.243310062301	0
0	79895	10844.29768817139	1
0	79898	10845.106707431881	0
0	79904	10845.596569548014	1
0	79905	10846.06433199648	0
0	79909	10846.369916357207	1
0	79910	10846.569675492208	0
0	79917	10847.131655199	1
0	79919	10847.678774390221	2
0	79920	10847.96336138555	1
0	79923	10848.682112824723	0
0	79927	10848.89797679073	1
0	79928	10849.594791356793	0
0	79932	10849.653822908952	1
0	79933	10850.402098485448	0
0	79937	10850.892656623772	1
0	79938	10851.314874651881	0
0	79945	10852.384202011028	1
0	79946	10853.137051019997	0
0	79958	10854.362210349213	1
0	79961	10854.949669445625	0
0	79968	10855.852752075984	1
0	79969	10856.31457529505	0
0	79978	10857.463743064526	1
0	79981	10858.071138417248	0
0	79988	10858.537917319588	1
0	79991	10859.395122915033	0
0	79998	10860.409609748268	1
0	79999	10860.685305816393	0
0	80015	10862.591511221911	1
0	80016	10862.836352289833	0
0	80025	10863.700500938122	1
0	80026	10864.19241994721	0
0	80083	10872.783752169772	1
0	80084	10872.988514166179	0
0	80093	10873.895324245484	1
0	80100	10874.701014110812	0
0	80109	10875.700125964317	1
0	80111	10875.907899449618	2
0	80112	10876.044754538958	1
0	80115	10876.714841736847	0
0	80119	10876.925057580616	1
0	80120	10877.471377398952	0
0	80124	10877.770046235701	1
0	80125	10878.182047109346	0
0	80129	10878.402202189211	1
0	80131	10878.850027267098	2
0	80132	10879.001358689222	1
0	80136	10879.669140465849	2
0	80137	10879.846271292114	1
0	80141	10880.557878307691	2
0	80142	10880.63665894111	1
0	80146	10880.833945159554	2
0	80147	10881.085381851525	1
0	80151	10881.148909309553	2
0	80152	10881.903160565992	1
0	80156	10882.433536057308	2
0	80157	10882.524734129611	1
0	80161	10882.73404325002	2
0	80162	10883.427809285832	1
0	80166	10883.677142979703	2
0	80167	10884.238067372882	1
0	80171	10884.738907599843	2
0	80172	10884.900615329243	1
0	80176	10884.959081092535	2
0	80177	10885.71245288215	1
0	80181	10885.989694698496	2
0	80182	10886.628249990422	1
0	80186	10887.091742070026	2
0	80187	10887.315275060799	1
0	80191	10887.646218523637	2
0	80192	10887.742061615171	1
0	80195	10888.356130068371	0
0	80202	10889.102158116576	1
0	80203	10889.576353878988	0
0	80209	10889.673956668096	1
0	80210	10890.149543784414	0
0	80217	10891.411681323486	1
0	80218	10892.07020394173	0
0	80225	10893.102268624807	1
0	80226	10893.499548557396	0
0	80235	10894.139098935954	1
0	80236	10894.673858600897	0
0	80244	10895.244416082725	1
0	80245	10895.614831403126	0
0	80249	10895.697322766438	1
0	80250	10896.0465962158	0
0	80254	10896.209163941408	1
0	80255	10896.841012933054	0
0	80259	10897.407859751691	1
0	80260	10897.678568040621	0
0	80264	10897.809482626495	1
0	80265	10898.192263944861	0
0	80272	10899.406253098035	1
0	80273	10899.850712260553	0
0	80284	10900.721893607516	1
0	80285	10901.518459341298	0
0	80297	10902.841806162632	1
0	80300	10903.527641989286	0
0	80311	10904.666157420827	1
0	80312	10904.926884624125	0
0	80528	10934.922366155574	1
0	80531	10935.408509886914	0
0	80538	10936.505463145247	1
0	80539	10936.948554928784	0
0	80551	10938.530716998803	1
0	80552	10939.183961695475	0
0	80558	10939.650664162968	1
0	80559	10939.664839268844	0
0	80563	10939.749498571594	1
0	80564	10940.103149895412	0
0	80570	10940.376358125726	1
0	80571	10940.747913183686	0
0	80575	10940.775289113908	1
0	80578	10941.685901698698	0
0	80586	10942.40520894516	1
0	80589	10942.636988363457	0
0	80593	10942.980311929323	1
0	80596	10943.636353658368	0
0	80603	10944.594339425404	1
0	80604	10944.824081773493	0
0	80637	10949.890019369003	1
0	80638	10950.002272371385	0
0	80645	10950.778120851974	1
0	80646	10951.120746146465	0
0	80662	10952.50912106462	1
0	80663	10953.004822986103	0
0	80670	10954.316484278869	1
0	80671	10954.432445750707	0
0	80678	10955.493133518324	1
0	80679	10955.76577531979	0
0	80688	10956.53929180577	1
0	80693	10957.164558683471	0
0	80700	10958.27596616567	1
0	80703	10958.49258784195	0
0	80712	10959.251133358958	1
0	80717	10960.076229124	0
0	80726	10961.099143648864	1
0	80731	10961.862899649558	0
0	80738	10962.701931529079	1
0	80741	10963.479465465243	0
0	80755	10965.653407092929	1
0	80756	10965.928402536218	0
0	80765	10966.958429144636	1
0	80766	10967.341915835343	0
0	80779	10968.166979896249	1
0	80780	10968.309913072824	0
0	80787	10969.368284454421	1
0	80790	10969.929095244823	0
0	80799	10971.112760684531	1
0	80801	10971.342744436511	2
0	80802	10971.394810206532	1
0	80806	10971.555440158375	2
0	80807	10971.969186388604	1
0	80811	10972.047133231382	2
0	80814	10972.572310830695	1
0	80818	10972.633536691568	2
0	80819	10973.13748587593	1
0	80823	10973.5538871317	2
0	80824	10973.700991851506	1
0	80828	10973.746684718166	2
0	80829	10974.227424162668	1
0	80833	10974.833050080374	2
0	80834	10975.058496547905	1
0	80838	10975.46070900657	2
0	80839	10975.917361268257	1
0	80842	10976.349105495257	0
0	80846	10976.446598211026	1
0	80848	10977.222830495189	2
0	80849	10977.244330720879	1
0	80853	10977.467974291953	2
0	80854	10978.229090111419	1
0	80857	10978.842127474719	0
0	80861	10978.952764128943	1
0	80864	10979.812919607708	0
0	80868	10980.381155169546	1
0	80869	10980.40863548731	0
0	80873	10980.415019285359	1
0	80876	10980.996640091432	0
0	80883	10981.749682620194	1
0	80885	10981.75406470179	2
0	80886	10982.076155572381	1
0	80889	10982.730190978242	0
0	80893	10983.281812915097	1
0	80894	10983.642027101383	0
0	80898	10983.781774209511	1
0	80901	10984.394870181146	0
0	80905	10984.671040922799	1
0	80906	10985.022712167396	0
0	80910	10985.423158729524	1
0	80911	10985.77101465021	0
0	80915	10985.929804871898	1
0	80917	10985.964023861851	2
0	80918	10986.474686141868	1
0	80922	10987.08577021272	2
0	80923	10987.153058033247	1
0	80926	10987.74824907621	0
0	80930	10987.800237868875	1
0	80932	10987.991809771491	2
0	80933	10988.509124959303	1
0	80937	10988.739143236429	2
0	80938	10989.091462481158	1
0	80942	10989.112720915934	2
0	80943	10989.744903801611	1
0	80947	10990.065670130033	2
0	80948	10990.668654577151	1
0	80952	10990.84913996872	2
0	80953	10991.492156277826	1
0	80957	10991.897091972346	2
0	80958	10991.961383493753	1
0	80962	10992.030614920841	2
0	80963	10992.864909954412	1
0	80967	10993.409125357571	2
0	80968	10993.493793771971	1
0	80972	10993.720062001913	2
0	80973	10994.010395991473	1
0	80977	10994.056289694739	2
0	80978	10994.445631649249	1
0	80982	10994.845301006866	2
0	80983	10995.210952148816	1
0	80987	10995.257217180335	2
0	80988	10996.194522723133	1
0	80991	10996.741139942358	0
0	80998	10997.527727027034	1
0	80999	10998.152909168738	0
0	81005	10998.588319456881	1
0	81007	10998.62266326558	2
0	81008	10999.034960084406	1
0	81012	10999.167578879866	2
0	81013	10999.622026336423	1
0	81017	10999.947615715624	2
0	81018	11000.214101309513	1
0	81022	11000.502757447509	2
0	81023	11000.985963511232	1
0	81027	11001.20375249817	2
0	81028	11001.68673182274	1
0	81032	11001.857510855821	2
0	81033	11002.591140426181	1
0	81037	11002.933061861204	2
0	81038	11003.266680864708	1
0	81042	11003.399126396073	2
0	81043	11004.264849807925	1
0	81047	11004.559731680147	2
0	81048	11005.101476244207	1
0	81052	11005.181648742811	2
0	81053	11006.087879334621	1
0	81057	11006.72006947242	2
0	81058	11007.014149774376	1
0	81062	11007.3220829501	2
0	81064	11007.81093164907	3
0	81065	11007.945046195572	2
0	81069	11008.519600047614	3
0	81070	11008.594464834219	2
0	81074	11008.822501742019	3
0	81075	11009.128595359482	2
0	81079	11009.5869609992	3
0	81080	11009.674360873129	2
0	81084	11009.821899554971	3
0	81085	11010.292533306449	2
0	81089	11010.307130351779	3
0	81090	11010.902140197621	2
0	81094	11011.241985030337	3
0	81095	11011.880276005573	2
0	81099	11012.54499436427	3
0	81100	11012.840577629905	2
0	81104	11013.083308578066	3
0	81105	11013.465378168549	2
0	81109	11013.79413309715	3
0	81111	11013.847956038054	4
0	81112	11014.176280000943	3
0	81116	11014.188820158023	4
0	81117	11015.0872571032	3
0	81123	11015.652242903894	4
0	81124	11015.847928386272	3
0	81128	11016.37808318029	4
0	81129	11016.470508629314	3
0	81133	11016.654731387634	4
0	81134	11017.430793564019	3
0	81138	11017.560655596474	4
0	81139	11017.856438029322	3
0	81143	11018.037040333602	4
0	81145	11018.59534877433	5
0	81146	11018.768036666324	4
0	81150	11019.048519796716	5
0	81151	11019.338344111105	4
0	81155	11019.594297080202	5
0	81156	11019.980270466718	4
0	81160	11020.066056881758	5
0	81161	11020.785266700897	4
0	81165	11021.072640281127	5
0	81166	11021.198546032466	4
0	81170	11021.214127616847	5
0	81171	11022.067390378889	4
0	81175	11022.645937323847	5
0	81176	11023.043878850479	4
0	81181	11023.863557436316	3
0	81185	11024.02475035466	4
0	81187	11024.049326751184	5
0	81189	11024.069416601258	6
0	81191	11024.337961332333	7
0	81192	11024.410093662468	6
0	81196	11024.442280848351	7
0	81197	11025.254513061884	6
0	81201	11025.330211625979	7
0	81202	11025.968586372304	6
0	81205	11026.950668571516	5
0	81208	11027.949118810705	4
0	81212	11028.091019528662	5
0	81213	11028.648920121183	4
0	81217	11028.790973479679	5
0	81220	11029.313134257821	4
0	81224	11029.42953466275	5
0	81225	11029.819709725817	4
0	81228	11030.600349277863	3
0	81232	11030.642543825091	4
0	81234	11030.895048188285	5
0	81236	11031.095248761831	6
0	81237	11031.549556455761	5
0	81241	11031.708271840971	6
0	81242	11032.198363423906	5
0	81246	11032.298105542246	6
0	81247	11032.921176344575	5
0	81251	11033.192287831762	6
0	81252	11033.814591420535	5
0	81256	11033.849893077292	6
0	81257	11034.483369208826	5
0	81261	11034.884658477177	6
0	81262	11035.018609310594	5
0	81267	11035.812622042327	4
0	81271	11036.28587856777	5
0	81273	11036.390863310134	6
0	81274	11036.58493328048	5
0	81278	11037.16164885233	6
0	81279	11037.195784583223	5
0	81283	11037.310356308971	6
0	81284	11037.814194699936	5
0	81288	11037.911920666164	6
0	81289	11038.307231655484	5
0	81294	11038.869890116015	4
0	81298	11039.107410751695	5
0	81299	11039.499621537327	4
0	81303	11039.554544627837	5
0	81304	11039.912682207254	4
0	81310	11040.544571961133	5
0	81311	11040.858454333571	4
0	81315	11041.206413828548	5
0	81316	11041.315537598542	4
0	81320	11041.345778255679	5
0	81321	11042.031279047391	4
0	81325	11042.187124778416	5
0	81327	11042.833373411614	6
0	81328	11042.841325634158	5
0	81332	11042.845047869971	6
0	81333	11043.491430468763	5
0	81337	11043.680546596937	6
0	81338	11044.458155292737	5
0	81342	11044.502555648805	6
0	81343	11045.073198106558	5
0	81347	11045.100260299489	6
0	81348	11045.996142753818	5
0	81352	11046.012717900218	6
0	81353	11046.448252878477	5
0	81357	11046.53486653712	6
0	81359	11046.842922072502	7
0	81360	11047.382146214926	6
0	81363	11047.977043780078	5
0	81366	11048.496478560799	4
0	81370	11048.727727296051	5
0	81371	11048.907727987924	4
0	81374	11049.591559948818	3
0	81378	11050.103893061373	4
0	81380	11050.199648995832	5
0	81381	11050.256046106712	4
0	81385	11050.443746204745	5
0	81387	11050.716507799269	6
0	81389	11051.057719010805	7
0	81390	11051.204515757876	6
0	81394	11051.352962773346	7
0	81395	11051.754171902732	6
0	81399	11051.806649841237	7
0	81400	11052.477833981159	6
0	81403	11052.959158021909	5
0	81406	11053.743271438078	4
0	81410	11053.886073822929	5
0	81412	11053.944415793458	6
0	81414	11054.19818603156	7
0	81415	11054.211244426667	6
0	81419	11054.276929431571	7
0	81420	11055.169640538189	6
0	81424	11055.607807346009	7
0	81425	11055.934544140053	6
0	81429	11056.032744937685	7
0	81430	11056.615499073871	6
0	81434	11057.451570566341	7
0	81435	11057.570234233419	6
0	81438	11058.175156751739	5
0	81442	11058.219291175407	6
0	81443	11058.895797682971	5
0	81447	11059.50530915591	6
0	81448	11059.51968546449	5
0	81452	11060.159304281667	6
0	81453	11060.246350220449	5
0	81457	11060.636516661706	6
0	81459	11060.724346770287	7
0	81460	11061.241016122557	6
0	81464	11061.289511935449	7
0	81467	11061.987662979865	6
0	81473	11062.402957178783	7
0	81474	11062.411458865039	6
0	81478	11062.458475497759	7
0	81479	11062.879991240751	6
0	81483	11062.964418156959	7
0	81486	11063.739730012415	6
0	81489	11064.334677022833	5
0	81493	11064.784680701798	6
0	81497	11064.923058498448	7
0	81498	11065.111384158486	6
0	81502	11065.618442133523	7
0	81503	11066.050628199053	6
0	81507	11066.156885626742	7
0	81508	11066.951103827587	6
0	81512	11067.405405807605	7
0	81513	11067.630994203404	6
0	81518	11068.09055738351	5
0	81522	11068.202061062576	6
0	81524	11068.385915136555	7
0	81525	11068.722110259437	6
0	81529	11069.022311333094	7
0	81530	11069.418224368894	6
0	81534	11069.99054396979	7
0	81535	11069.992907688345	6
0	81538	11070.802568531965	5
0	81542	11070.881174230142	6
0	81543	11071.680312414511	5
0	81547	11071.824350385805	6
0	81548	11072.351887472018	5
0	81552	11072.622477190229	6
0	81553	11073.302726928328	5
0	81557	11073.530719040478	6
0	81558	11074.225434940073	5
0	81562	11074.433240761915	6
0	81563	11075.082781373381	5
0	81567	11075.500713400693	6
0	81568	11075.954476731408	5
0	81572	11076.06666684495	6
0	81573	11076.934329741818	5
0	81577	11077.617730951932	6
0	81578	11077.680252862859	5
0	81581	11078.394448752187	4
0	81587	11078.666184254897	5
0	81588	11079.007089342873	4
0	81592	11079.112965578588	5
0	81593	11079.492045503387	4
0	81601	11080.15105650045	5
0	81602	11080.200023173911	4
0	81606	11080.330525970316	5
0	81607	11080.664002715235	4
0	81611	11080.999725019044	5
0	81612	11081.353003127777	4
0	81616	11081.362390281986	5
0	81619	11082.304681058831	4
0	81623	11082.38845180327	5
0	81624	11083.030376954374	4
0	81628	11083.280508517252	5
0	81630	11083.475732932883	6
0	81633	11083.947121003966	5
0	81637	11084.257092794737	6
0	81638	11084.408963720312	5
0	81644	11084.634696703448	6
0	81645	11085.340737572543	5
0	81649	11086.098621940299	6
0	81650	11086.161891259344	5
0	81654	11086.268063802989	6
0	81655	11086.883670086877	5
0	81659	11087.650823440639	6
0	81660	11087.65774788195	5
0	81664	11087.782610063296	6
0	81667	11088.462407689446	5
0	81672	11089.236304462792	4
0	81676	11089.757069964148	5
0	81677	11089.791952778257	4
0	81681	11089.833829853326	5
0	81684	11090.704759314701	4
0	81687	11091.151428356253	3
0	81693	11091.286357188502	4
0	81695	11091.292101493927	5
0	81696	11091.654948392556	4
0	81699	11092.126238212547	3
0	81702	11092.72171517941	2
0	81706	11092.783044172067	3
0	81707	11093.602337193487	2
0	81711	11093.81460428218	3
0	81713	11093.986950230566	4
0	81714	11094.135388430532	3
0	81718	11094.385653162831	4
0	81720	11094.497472242257	5
0	81721	11094.881333796026	4
0	81725	11094.986290774244	5
0	81726	11095.337776782501	4
0	81730	11095.50782223898	5
0	81731	11096.195409345904	4
0	81734	11096.812304904682	3
0	81738	11097.104772794248	4
0	81740	11097.308231475984	5
0	81741	11097.686305312344	4
0	81745	11097.753056382422	5
0	81746	11098.551275109776	4
0	81750	11098.830876506693	5
0	81751	11099.359385973957	4
0	81755	11099.673147546548	5
0	81756	11099.981136177244	4
0	81760	11100.197253077336	5
0	81761	11100.52996346587	4
0	81765	11100.709376888003	5
0	81766	11101.526743896535	4
0	81769	11102.349424358454	3
0	81772	11103.013036953142	2
0	81776	11103.127064787822	3
0	81778	11103.440429645739	4
0	81782	11103.858576629985	5
0	81784	11103.874271727393	6
0	81785	11103.952265691148	5
0	81788	11104.389700948629	4
0	81791	11104.845581783909	3
0	81795	11105.465936971948	4
0	81796	11105.721271414818	3
0	81800	11105.89170940312	4
0	81802	11106.175506017102	5
0	81803	11106.690780040385	4
0	81806	11107.375530727995	3
0	81810	11107.596969277025	4
0	81812	11107.732365461258	5
0	81813	11108.017094192882	4
0	81816	11108.430648163096	3
0	81820	11108.663965218803	4
0	81822	11108.738380557881	5
0	81823	11109.103914523399	4
0	81826	11109.89377090963	3
0	81829	11110.426350431185	2
0	81832	11111.262676775357	1
0	81836	11111.661969231286	2
0	81838	11111.796304208149	3
0	81839	11111.915634825168	2
0	81843	11111.998616422522	3
0	81845	11112.19649447619	4
0	81846	11112.91130437259	3
0	81850	11113.332871063761	4
0	81852	11113.614086148045	5
0	81853	11113.833737922827	4
0	81856	11114.781631025899	3
0	81860	11115.169820560444	4
0	81861	11115.220212055178	3
0	81865	11115.645521657654	4
0	81866	11115.963523427996	3
0	81870	11116.056779618066	4
0	81872	11116.074034195321	5
0	81873	11116.707566887693	4
0	81877	11116.769911854769	5
0	81880	11117.596936754783	4
0	81884	11117.845188447823	5
0	81887	11118.008532699145	4
0	81891	11118.357330805051	5
0	81893	11118.706283880994	6
0	81896	11118.974453224748	5
0	81900	11119.586352985245	6
0	81901	11119.859541268967	5
0	81904	11120.383576042898	4
0	81908	11120.471137360003	5
0	81909	11121.098228677217	4
0	81912	11121.641617448995	3
0	81916	11121.932149400402	4
0	81917	11122.629905097041	3
0	81921	11122.705337881414	4
0	81922	11123.143258183956	3
0	81926	11123.243699660898	4
0	81927	11123.925243453629	3
0	81932	11124.51505576339	2
0	81935	11125.078391421348	1
0	81938	11125.478471964732	0
0	81942	11125.929838724753	1
0	81943	11126.108297075046	0
0	81947	11126.155407369364	1
0	81949	11126.52820707039	2
0	81951	11126.688646181856	3
0	81952	11126.712118076481	2
0	81956	11127.044476526958	3
0	81958	11127.200713686764	4
0	81959	11127.651187487779	3
0	81963	11127.893988141709	4
0	81964	11128.252248538466	3
0	81967	11128.885793731589	2
0	81971	11129.403381910915	3
0	81972	11129.642574198632	2
0	81976	11129.826836905008	3
0	81978	11129.835137067532	4
0	81979	11130.594974321308	3
0	81982	11131.187750007533	2
0	81985	11131.610594767839	1
0	81989	11132.140215519715	2
0	81990	11132.443007757742	1
0	81994	11132.735885630045	2
0	81996	11132.753880769896	3
0	81997	11133.214302772837	2
0	82000	11134.113610453153	1
0	82004	11134.341596507286	2
0	82005	11134.872451885598	1
0	82009	11135.101999501275	2
0	82010	11135.763385448273	1
0	82014	11135.942816891158	2
0	82015	11136.500575034827	1
0	82018	11137.357085196994	0
0	82025	11138.24907923807	1
0	82026	11138.517647634348	0
0	82030	11138.531245776675	1
0	82033	11139.366589005705	0
0	82037	11139.435088096214	1
0	82039	11139.61980799586	2
0	82040	11140.088274627872	1
0	82044	11140.432920687539	2
0	82047	11140.856715382816	1
0	82051	11141.099948542465	2
0	82052	11141.824842882942	1
0	82056	11141.902044256754	2
0	82057	11142.818020932976	1
0	82061	11143.660889541246	2
0	82062	11143.721928323753	1
0	82066	11143.742739660259	2
0	82069	11144.505566607689	1
0	82073	11144.92533832783	2
0	82074	11144.931118031632	1
0	82078	11144.972755358576	2
0	82079	11145.552044382127	1
0	82082	11146.039144402411	0
0	82086	11146.83298424027	1
0	82087	11146.924362984294	0
0	82094	11147.847212575639	1
0	82098	11148.206530395781	2
0	82099	11148.352986508322	1
0	82103	11148.389178503727	2
0	82106	11149.215005928784	1
0	82110	11149.29413145917	2
0	82111	11150.179159331409	1
0	82114	11150.79243689868	0
0	82121	11152.319831204176	1
0	82122	11152.387042391806	0
0	82129	11153.160848523975	1
0	82131	11153.243748284115	2
0	82133	11153.278860938665	3
0	82136	11153.696192158845	2
0	82141	11154.172268063429	1
0	82145	11154.455153076247	2
0	82146	11154.610540276573	1
0	82149	11155.018359443213	0
0	82153	11155.311160415776	1
0	82155	11155.57706649107	2
0	82156	11155.583768373582	1
0	82159	11156.000288279255	0
0	82165	11156.224364995876	1
0	82166	11156.412336010852	0
0	82170	11156.495439748081	1
0	82172	11156.564055308374	2
0	82173	11157.065582166513	1
0	82177	11157.087726080955	2
0	82178	11157.642130171222	1
0	82181	11158.338510568713	0
0	82185	11159.176027500718	1
0	82186	11159.214834982802	0
0	82190	11159.568913233269	1
0	82191	11159.774721705674	0
0	82195	11160.187142385474	1
0	82196	11160.608145346206	0
0	82200	11160.62102303841	1
0	82201	11161.104341729537	0
0	82205	11161.550740783011	1
0	82206	11161.822714733046	0
0	82210	11161.830938507027	1
0	82212	11161.882249647139	2
0	82213	11162.534885257848	1
0	82217	11163.009217734664	2
0	82218	11163.534229059184	1
0	82221	11164.164924843323	0
0	82225	11164.18366207969	1
0	82226	11164.639268098159	0
0	82230	11164.711098627078	1
0	82232	11164.840114608042	2
0	82233	11165.40419719889	1
0	82237	11165.687723993459	2
0	82238	11165.853858782716	1
0	82242	11166.066937119382	2
0	82243	11166.620642480666	1
0	82249	11167.193055537573	2
0	82250	11167.198109951934	1
0	82254	11167.373756987512	2
0	82255	11168.025345682485	1
0	82258	11168.426798601162	0
0	82267	11169.347382736476	1
0	82269	11169.517195774873	2
0	82270	11169.584032978017	1
0	82275	11169.985304007998	0
0	82279	11170.018557308326	1
0	82281	11170.559486856133	2
0	82282	11170.981205664987	1
0	82288	11171.214009467503	2
0	82289	11171.772860673668	1
0	82293	11172.002977615474	2
0	82294	11172.342130100487	1
0	82298	11172.346757601762	2
0	82299	11173.111263146011	1
0	82303	11173.228963688451	2
0	82304	11173.647015040221	1
0	82308	11173.819399035339	2
0	82309	11174.366940956556	1
0	82313	11174.718232777642	2
0	82314	11175.281752561166	1
0	82317	11176.064849162375	0
0	82321	11176.413893553677	1
0	82323	11176.682849113178	2
0	82324	11176.717703613819	1
0	82328	11176.735448494652	2
0	82329	11177.512671945936	1
0	82333	11177.788505701414	2
0	82334	11178.331132223963	1
0	82338	11178.465087416979	2
0	82339	11178.899163426453	1
0	82343	11179.179725778559	2
0	82344	11179.569577801175	1
0	82348	11179.622494940982	2
0	82349	11180.199588891113	1
0	82352	11180.777133273886	0
0	82356	11180.911596640169	1
0	82358	11181.092858763389	2
0	82359	11181.660674456734	1
0	82363	11181.789246600846	2
0	82364	11182.396536146844	1
0	82368	11182.624198130616	2
0	82371	11183.255700751715	1
0	82375	11183.390122376301	2
0	82376	11184.08044977793	1
0	82379	11184.941964024161	0
0	82383	11184.946556347317	1
0	82384	11185.739487127676	0
0	82388	11186.034598640529	1
0	82389	11186.566198510393	0
0	82393	11186.650994035692	1
0	82394	11187.479939867366	0
0	82406	11188.563061018753	1
0	82407	11189.098118926116	0
0	82411	11189.09845980518	1
0	82412	11189.764305478378	0
0	82416	11189.824558837163	1
0	82419	11190.735522969623	0
0	82426	11192.013876409776	1
0	82427	11192.169978135169	0
0	82431	11192.262880397373	1
0	82432	11192.875311155707	0
0	82436	11193.825336643963	1
0	82437	11193.863806527989	0
0	82441	11193.999546808358	1
0	82442	11194.424022797957	0
0	82446	11194.472819506463	1
0	82447	11195.291690343196	0
0	82451	11195.373777980948	1
0	82452	11195.891197749597	0
0	82456	11195.966291732167	1
0	82457	11196.399799573698	0
0	82461	11196.610704838813	1
0	82462	11197.343919985366	0
0	82471	11198.538432369043	1
0	82472	11199.106387093427	0
0	82479	11199.826862661469	1
0	82480	11200.529584157556	0
0	82489	11201.397677945197	1
0	82491	11201.599136275317	2
0	82492	11201.848364317553	1
0	82497	11202.490033352231	0
0	82503	11202.809712501928	1
0	82506	11203.472747593322	0
0	82510	11203.488828326689	1
0	82513	11203.918802611712	0
0	82519	11204.170327293285	1
0	82520	11204.88525318191	0
0	82524	11204.886123976258	1
0	82525	11205.501894087992	0
0	82532	11206.32288960308	1
0	82534	11206.608210501042	2
0	82535	11206.70110479076	1
0	82539	11206.83117588722	2
0	82540	11207.324130376192	1
0	82546	11207.728128921508	2
0	82548	11207.799089704481	3
0	82549	11207.864156475799	2
0	82553	11208.201126083125	3
0	82554	11208.662669768041	2
0	82557	11209.612947461378	1
0	82561	11210.240019698885	2
0	82562	11210.442601804897	1
0	82566	11210.61955791827	2
0	82567	11211.069059062466	1
0	82571	11211.332838811799	2
0	82572	11211.693623160055	1
0	82576	11211.739454336003	2
0	82577	11212.130818165928	1
0	82580	11213.060447904836	0
0	82591	11214.56489845789	1
0	82592	11214.869294855879	0
0	82601	11215.403936482991	1
0	82602	11216.026975083347	0
0	82611	11217.39402942	1
0	82612	11217.968262947905	0
0	82616	11218.496788135546	1
0	82617	11218.556301448722	0
0	82621	11218.710830639484	1
0	82622	11219.446228809743	0
0	82626	11219.837190795122	1
0	82629	11220.210418741167	0
0	82633	11220.570212336265	1
0	82634	11221.014659630083	0
0	82638	11221.01710139301	1
0	82639	11221.51052953144	0
0	82643	11221.523730062399	1
0	82644	11222.474839131808	0
0	82648	11222.520222324365	1
0	82649	11223.064330421383	0
0	82658	11223.886143733901	1
0	82660	11223.977089685985	2
0	82663	11224.505825047003	1
0	82668	11225.367579068052	0
0	82672	11225.480517782799	1
0	82673	11226.118921056524	0
0	82682	11227.345924866664	1
0	82683	11227.992546405033	0
0	82694	11228.816238352194	1
0	82696	11228.926295694325	2
0	82697	11229.278182089976	1
0	82702	11229.889564109123	0
0	82706	11230.329363459722	1
0	82708	11230.457292526972	2
0	82711	11230.86269585676	1
0	82716	11231.332770387684	0
0	82723	11232.38428882306	1
0	82725	11232.492673545699	2
0	82727	11232.820814195994	3
0	82728	11233.03486092458	2
0	82731	11233.455772397942	1
0	82734	11234.09097340195	0
0	82740	11234.513544761758	1
0	82741	11234.683523702291	0
0	82745	11234.821298921631	1
0	82746	11235.527167236428	0
0	82750	11235.834676399801	1
0	82751	11236.057834658814	0
0	82763	11238.281193142242	1
0	82764	11238.392946946244	0
0	82794	11242.438160283841	1
0	82795	11242.816358220852	0
0	82804	11243.946423336278	1
0	82807	11244.764349770494	0
0	82813	11245.380730334991	1
0	82814	11245.459726595734	0
0	82818	11245.815047860021	1
0	82819	11246.216995941191	0
0	82823	11246.384062431967	1
0	82825	11246.632726065474	2
0	82826	11246.643347169966	1
0	82830	11246.741393379291	2
0	82831	11247.392776055955	1
0	82834	11247.796703986074	0
0	82838	11247.814222706081	1
0	82840	11248.025059644319	2
0	82841	11248.469374103747	1
0	82845	11248.490635646573	2
0	82846	11249.450024204231	1
0	82850	11249.609586095026	2
0	82851	11250.056341506303	1
0	82855	11250.183302743112	2
0	82856	11251.051910206717	1
0	82860	11251.135094326785	2
0	82861	11251.595591398929	1
0	82865	11251.695380032501	2
0	82866	11252.314290346852	1
0	82869	11253.091120071471	0
0	82873	11253.137769858144	1
0	82874	11253.497839500983	0
0	82878	11253.75792184921	1
0	82879	11254.192947094603	0
0	82883	11254.372307693192	1
0	82884	11254.603815145413	0
0	82891	11255.43503375256	1
0	82892	11255.774659424084	0
0	82899	11256.913073925478	1
0	82902	11257.388769686497	0
0	82911	11257.989540811651	1
0	82912	11258.915768191167	0
0	82919	11259.596106204734	1
0	82922	11259.942516778125	0
0	82931	11260.995045587699	1
0	82934	11261.471634176508	0
0	82945	11262.793279162149	1
0	82946	11263.270503625594	0
0	82955	11264.128070498741	1
0	82956	11264.925001301657	0
0	82963	11265.370349260421	1
0	82964	11266.250237418752	0
0	82976	11267.58134395706	1
0	82977	11267.965697634446	0
0	83011	11273.252300304484	1
0	83012	11273.311367699452	0
0	83024	11275.09920645463	1
0	83027	11275.614625388379	0
0	83036	11276.706031765727	1
0	83037	11277.005412133685	0
0	83132	11290.829742731735	1
0	83135	11291.471381895006	0
0	83146	11291.987202148758	1
0	83147	11292.818879420165	0
0	83157	11293.627980723459	1
0	83158	11293.809667412978	0
0	83165	11295.037436038653	1
0	83166	11295.158027439606	0
0	83173	11296.05927357302	1
0	83177	11296.387592360118	2
0	83178	11296.588890289371	1
0	83183	11297.235222946941	0
0	83190	11298.471627641717	1
0	83191	11299.038745531063	0
0	83200	11300.134342441118	1
0	83201	11300.425236456697	0
0	83210	11301.124321115896	1
0	83211	11301.815318579409	0
0	83220	11302.521619299686	1
0	83223	11303.292879247056	0
0	83230	11304.220690292381	1
0	83231	11304.558748670524	0
0	83242	11305.359311239181	1
0	83243	11305.816661921373	0
0	83252	11306.672186790896	1
0	83253	11307.050472377377	0
0	83264	11308.236938632127	1
0	83265	11308.252729732772	0
0	83272	11309.514668969879	1
0	83273	11309.76910944264	0
0	83282	11310.403211309532	1
0	83283	11311.294617616149	0
0	83294	11312.806682297811	1
0	83295	11312.836828788926	0
0	83304	11313.871739341244	1
0	83305	11313.983448133894	0
0	83314	11315.126752548549	1
0	83315	11315.292944896079	0
0	83324	11316.146500166254	1
0	83325	11317.101057361203	0
0	83332	11318.354700570589	1
0	83333	11318.767056618302	0
0	83340	11319.495993198643	1
0	83341	11319.84794796393	0
0	83347	11320.090190109635	1
0	83348	11320.347568327605	0
0	83354	11320.743779587533	1
0	83355	11320.90154093229	0
0	83359	11321.073343337685	1
0	83360	11321.664330446765	0
0	83368	11322.061423360835	1
0	83369	11322.119332283594	0
0	83373	11322.218252873598	1
0	83374	11323.107588662252	0
0	83378	11323.470126481198	1
0	83379	11323.985866433753	0
0	83383	11324.061048093373	1
0	83384	11324.747017283643	0
0	83388	11324.911885070535	1
0	83389	11325.441736073464	0
0	83393	11325.861136317823	1
0	83394	11326.409494913461	0
0	83401	11327.386857010385	1
0	83402	11327.590788877289	0
0	83411	11328.401861687533	1
0	83412	11328.707712506269	0
0	83420	11329.515682175051	1
0	83421	11329.697674258704	0
0	83425	11329.858130481339	1
0	83427	11330.108124293643	2
0	83428	11330.32987792543	1
0	83432	11330.382789327353	2
0	83433	11331.152540386094	1
0	83437	11331.493729278516	2
0	83439	11331.912253119813	3
0	83440	11331.959669143798	2
0	83443	11332.867437273123	1
0	83447	11333.290151172375	2
0	83448	11333.861008178767	1
0	83452	11333.908176460848	2
0	83453	11334.415149684807	1
0	83456	11335.052998100638	0
0	83460	11335.528641081347	1
0	83462	11335.632472966292	2
0	83463	11335.665718648534	1
0	83467	11336.320041969256	2
0	83468	11336.4326417346	1
0	83472	11336.552568346183	2
0	83474	11337.029977171822	3
0	83475	11337.15943497801	2
0	83479	11337.369188702751	3
0	83480	11338.105187596844	2
0	83484	11338.607293067219	3
0	83485	11338.634538147503	2
0	83491	11339.411082797776	3
0	83492	11339.619153851967	2
0	83496	11340.054656686867	3
0	83497	11340.364930441135	2
0	83501	11340.392322662584	3
0	83502	11340.793369609534	2
0	83506	11340.867650525138	3
0	83507	11341.415685919157	2
0	83511	11341.634687071985	3
0	83512	11341.952618325918	2
0	83515	11342.707568424751	1
0	83519	11342.720574038471	2
0	83521	11343.063933715406	3
0	83522	11343.518373101854	2
0	83526	11343.808795533171	3
0	83527	11344.464210163753	2
0	83531	11344.578626203405	3
0	83532	11345.280606558498	2
0	83536	11345.766166855057	3
0	83537	11345.984888532802	2
0	83541	11346.242785443392	3
0	83542	11346.768599785117	2
0	83546	11346.851238102147	3
0	83550	11347.246453441826	4
0	83551	11347.466421528531	3
0	83554	11348.328957834977	2
0	83558	11348.738867758718	3
0	83559	11349.124512016165	2
0	83563	11349.498963616065	3
0	83564	11349.582242115258	2
0	83568	11350.380992563955	3
0	83569	11350.533078007304	2
0	83573	11351.105004753095	3
0	83575	11351.375701132305	4
0	83576	11351.489922127032	3
0	83580	11351.761254922501	4
0	83581	11352.480861227957	3
0	83585	11352.574699547146	4
0	83586	11353.074975904215	3
0	83590	11353.24386035132	4
0	83593	11353.938282146163	3
0	83597	11354.267721147028	4
0	83598	11354.855487086435	3
0	83601	11355.398686976076	2
0	83605	11355.446174346797	3
0	83607	11355.537826447344	4
0	83608	11356.117788632956	3
0	83611	11356.636995006256	2
0	83615	11356.640577827772	3
0	83617	11356.646293273303	4
0	83618	11357.482284666967	3
[...]
9	208174	28267.232134699191	5
9	208180	28268.266752519014	6
9	208182	28268.393029993493	5
9	208185	28268.776499184661	6
9	208187	28268.797909619519	5
9	208189	28269.08615064513	4
9	208197	28270.105043971559	5
9	208199	28270.23317215103	4
9	208201	28270.310586043546	3
9	208203	28270.918032925533	2
9	208206	28270.970423123261	3
9	208208	28271.016062002946	2
9	208210	28271.528965684611	1
9	208212	28271.676885783466	0
9	208215	28271.72093144485	1
9	208217	28271.924303131581	0
9	208220	28272.380987769013	1
9	208222	28272.538155239681	0
9	208237	28274.483828270828	1
9	208239	28274.960122278354	0
9	208242	28274.98797188217	1
9	208244	28275.300337147882	0
9	208247	28275.485419730863	1
9	208249	28275.609908169842	0
9	208275	28280.073916891611	1
9	208278	28280.671034651923	2
9	208281	28281.518343542584	3
9	208283	28281.737501181795	2
9	208286	28281.925288574233	3
9	208289	28282.544939408613	4
9	208294	28283.041744437137	5
9	208299	28283.759331555221	6
9	208301	28284.413566566568	5
9	208306	28284.580367417562	4
9	208311	28285.124590312386	5
9	208313	28285.537602720194	4
9	208323	28286.08645683003	5
9	208327	28286.463160222114	4
9	208332	28286.640726834143	3
9	208361	28290.791556753878	2
9	208364	28290.98932514775	3
9	208366	28291.083138180638	2
9	208368	28291.223394658122	1
9	208375	28292.148956446963	0
9	208383	28292.884564131521	1
9	208387	28293.18487780684	0
9	208496	28309.185629909183	1
9	208498	28309.452691662682	0
9	208506	28311.070664057764	1
9	208509	28311.664263274777	2
9	208512	28312.476464367868	3
9	208514	28312.50533574093	2
9	208520	28314.047409801349	3
9	208522	28314.501804306711	2
9	208530	28315.19829560544	3
9	208533	28316.105449426059	4
9	208535	28316.178874001887	3
9	208538	28316.96429646325	4
9	208541	28317.632092649794	5
9	208547	28318.955288197871	6
9	208549	28319.383392085476	5
9	208551	28319.641731596092	4
9	208554	28319.809336926162	5
9	208559	28321.058263605984	4
9	208564	28321.543119539706	3
9	208567	28321.924033620514	4
9	208569	28322.359256053828	3
9	208572	28322.443313008852	4
9	208574	28322.4576663303	3
9	208576	28323.102640409969	2
9	208579	28323.206578707907	3
9	208582	28323.868353360777	4
9	208584	28324.343636395728	3
9	208587	28324.36711162308	4
9	208589	28325.06754019371	3
9	208592	28325.198748383231	4
9	208595	28326.131836722258	5
9	208598	28326.758393732717	6
9	208600	28327.057594065654	5
9	208602	28327.14493148052	4
9	208605	28327.512773800947	5
9	208607	28328.079185155177	4
9	208610	28328.163968815914	5
9	208612	28328.219279188073	4
9	208614	28328.264195015438	3
9	208616	28328.824218667677	2
9	208619	28328.920479307024	3
9	208621	28329.569828971815	2
9	208624	28329.80653642386	3
9	208626	28330.096821052968	2
9	208628	28330.322299552722	1
9	208633	28330.509086700043	2
9	208635	28330.730193687931	1
9	208643	28331.827008454947	2
9	208646	28332.237219219402	3
9	208649	28333.116169689203	4
9	208651	28333.189745131236	3
9	208654	28333.654978200168	4
9	208656	28334.085771862411	3
9	208661	28334.721235281112	2
9	208663	28335.182766710795	1
9	208666	28335.211230975183	2
9	208668	28335.590625942273	1
9	208671	28335.773047017006	2
9	208676	28336.441440182391	3
9	208678	28336.603211719666	2
9	208681	28337.238008254652	3
9	208684	28338.054406018161	4
9	208686	28338.434211993308	3
9	208696	28340.27424438334	2
9	208699	28340.421753502848	3
9	208701	28340.841256510142	2
9	208703	28341.084627317281	1
9	208706	28341.125814563154	2
9	208711	28341.594303706965	3
9	208713	28342.029689102682	2
9	208720	28342.907966647186	1
9	208728	28343.802544109028	0
9	208733	28344.500894307231	1
9	208737	28344.62563018637	0
9	208742	28344.933660219216	1
9	208751	28346.388176909972	0
9	208754	28346.418203198702	1
9	208762	28347.625534986916	2
9	208764	28348.023901606025	1
9	208766	28348.098463343133	0
9	208784	28350.945952592629	1
9	208789	28352.062606917143	0
9	208794	28352.441857734721	1
9	208805	28353.450573963863	0
9	208957	28373.160583779988	1
9	208959	28374.035165227135	0
9	209352	28428.974570271306	1
9	209357	28429.576003181657	0
9	209362	28430.222764079718	1
9	209364	28430.586728770246	0
9	209989	28513.039730772174	1
9	209993	28513.403106341417	0
9	209996	28513.564711334494	1
9	210005	28514.848855346952	0
9	212034	28789.743211100361	1
9	212036	28790.195828592353	0
9	212044	28790.952880103484	1
9	212052	28792.05824382861	2
9	212054	28792.26775753524	1
9	212056	28792.40768942787	0
9	212363	28833.488042095693	1
9	212367	28833.903450124225	0
9	212370	28834.004180760186	1
9	212375	28834.82096572633	0
9	212396	28838.017920954542	1
9	212399	28838.621415144874	2
9	212401	28838.822370358612	1
9	212403	28839.333107590154	0
9	212406	28839.541120998206	1
9	212408	28839.981362095876	0
9	212411	28840.122065836534	1
9	212413	28840.214857729472	0
9	212416	28840.768551840045	1
9	212419	28841.475211806659	2
9	212421	28841.728984674727	1
9	212424	28842.095628880121	2
9	212426	28842.521037339537	1
9	212432	28843.477583719947	2
9	212435	28843.898911990289	3
9	212437	28843.923235591564	2
9	212439	28844.178758031711	1
9	212442	28844.324361693271	2
9	212445	28844.927410497487	3
9	212447	28845.357818263393	2
9	212450	28845.403519175591	3
9	212453	28846.044180480454	4
9	212455	28846.468269769413	3
9	212457	28846.732082712233	2
9	212459	28846.82492168548	1
9	212462	28847.008888484834	2
9	212465	28847.738293006242	3
9	212467	28847.80989292429	2
9	212470	28848.50189278826	3
9	212472	28848.829595106856	2
9	212475	28848.993172872456	3
9	212478	28849.839984583406	4
9	212480	28850.186186226732	3
9	212482	28850.495942425827	2
9	212484	28850.551148512437	1
9	212487	28850.554366501391	2
9	212491	28850.836458678912	1
9	212494	28851.00862563622	2
9	212497	28851.585709949739	3
9	212500	28852.425646186404	4
9	212503	28852.974872268939	5
9	212506	28853.476879525108	6
9	212508	28853.539773864605	5
9	212511	28853.897653949044	6
9	212513	28854.095064568441	5
9	212516	28854.435550460748	6
9	212518	28854.544279715794	5
9	212521	28855.078436017612	6
9	212523	28855.239516091292	5
9	212529	28856.012767145148	6
9	212531	28856.161476320216	5
9	212534	28856.641071142879	6
9	212536	28857.154003212055	5
9	212539	28857.493198148039	6
9	212543	28858.046367154169	5
9	212546	28858.337993127963	6
9	212548	28858.416816571997	5
9	212550	28858.86077187097	4
9	212553	28858.953822996485	5
9	212555	28859.132563163993	4
9	212558	28859.585106709384	5
9	212560	28860.102998150952	4
9	212563	28860.132239803736	5
9	212565	28860.398543290086	4
9	212567	28860.544841729963	3
9	212569	28860.648440786201	2
9	212571	28860.662995981071	1
9	212574	28860.829875088082	2
9	212577	28861.267943290034	3
9	212580	28861.961591397477	4
9	212583	28862.607522157877	5
9	212585	28862.708045839014	4
9	212588	28863.47254976306	5
9	212591	28864.229595670168	6
9	212594	28864.99796886376	7
9	212596	28865.023578016827	6
9	212598	28865.411167277027	5
9	212601	28865.723747517326	6
9	212604	28866.311472885468	7
9	212607	28866.898094471515	8
9	212609	28867.538969086083	7
9	212611	28867.554862044484	6
9	212614	28867.828059766785	7
9	212619	28868.924734443682	6
9	212622	28869.257209798944	7
9	212624	28869.380535281542	6
9	212626	28869.494376416729	5
9	212629	28869.990641996096	6
9	212632	28870.719650130318	7
9	212634	28870.907398775117	6
9	212637	28871.167044829409	7
9	212639	28871.374473888607	6
9	212642	28871.589354312578	7
9	212644	28871.886805354857	6
9	212647	28871.991270886007	7
9	212650	28872.599796029012	8
9	212652	28872.743858516371	7
9	212655	28873.412660130224	8
9	212657	28873.505129890519	7
9	212660	28873.929604585905	8
9	212662	28874.163342008927	7
9	212664	28874.436209324765	6
9	212667	28874.564897077129	7
9	212669	28874.879279005266	6
9	212672	28875.12546116786	7
9	212675	28875.996743958554	8
9	212677	28876.150179928872	7
9	212679	28876.173100332343	6
9	212682	28876.407330847363	7
9	212685	28877.039707928541	8
9	212688	28877.569933575456	9
9	212690	28877.929433790168	8
9	212692	28878.184486822347	7
9	212695	28878.209499853401	8
9	212698	28878.951461214124	9
9	212700	28879.242973243097	8
9	212705	28879.71288209834	9
9	212707	28879.757685115674	8
9	212709	28880.364783111972	7
9	212712	28880.645900868129	8
9	212714	28881.038998783863	7
9	212716	28881.057790199035	6
9	212718	28881.381173904589	5
9	212721	28881.484181059914	6
9	212724	28882.169478922913	7
9	212726	28882.461205270151	6
9	212729	28883.040173292549	7
9	212736	28883.950688673619	8
9	212738	28883.980090693728	7
9	212740	28884.247955891302	6
9	212742	28884.26872618107	5
9	212744	28884.281384189846	4
9	212746	28884.32936513616	3
9	212748	28884.829273601885	2
9	212754	28885.47815149172	3
9	212756	28886.03097045747	2
9	212759	28886.383275517698	3
9	212761	28886.424290423487	2
9	212766	28887.129399666532	3
9	212768	28887.293722851609	2
9	212770	28887.34065825115	1
9	212778	28888.59014171452	2
9	212780	28888.705508518728	1
9	212782	28888.836797317134	0
9	212788	28889.756500742368	1
9	212790	28889.851065489961	0
9	212815	28893.121343199274	1
9	212822	28894.461549211492	0
9	212825	28894.488551895431	1
9	212827	28894.927599991118	0
9	212909	28905.754450600657	1
9	212911	28905.865644850755	0
9	213212	28947.751358530597	1
9	213214	28947.823962247905	0
9	213288	28956.9628339756	1
9	213298	28958.497437224835	2
9	213300	28959.009394957648	1
9	213305	28959.68852188833	0
9	213335	28964.547297342653	1
9	213337	28964.621654257209	0
9	213394	28971.894107800557	1
9	213399	28972.923046173369	0
9	213406	28973.544367141996	1
9	213414	28974.659517379452	2
9	213418	28974.82118862637	1
9	213431	28976.674149641273	0
9	214690	29146.455959916686	1
9	214695	29147.019801328204	2
9	214697	29147.518343502421	1
9	214699	29147.785380076174	0
9	214760	29155.764078547818	1
9	214762	29155.804149514288	0
9	214767	29156.167814726674	1
9	214769	29156.380441880754	0
9	214787	29158.952280975238	1
9	214796	29160.103978765801	0
9	214799	29160.242552683421	1
9	214806	29161.103763925495	0
9	214809	29161.517263726157	1
9	214814	29162.425254768425	2
9	214816	29162.679995663187	1
9	214821	29163.239277621419	0
9	214824	29163.590428099235	1
9	214828	29164.15478956787	0
9	214831	29164.547355826212	1
9	214836	29165.06662989294	0
9	214860	29167.891762344738	1
9	214869	29169.353475373835	0
9	214872	29169.400679387212	1
9	214877	29170.201720611881	0
9	214880	29170.402029320471	1
9	214882	29170.435211958142	0
9	214885	29171.017220590649	1
9	214892	29172.242328919342	0
9	214900	29172.914230640386	1
9	214902	29173.033358826739	0
9	215302	29229.621537620071	1
9	215307	29230.236216564606	0
9	215865	29306.662170025762	1
9	215867	29306.707824599474	0
9	215872	29307.454011075394	1
9	215874	29307.51033863928	0
9	215894	29310.258455674407	1
9	215896	29310.580177097796	0
9	215906	29311.256503354349	1
9	215914	29312.252879876839	2
9	215918	29312.662977115256	1
9	215920	29313.135652147417	0
9	215968	29319.216723471469	1
9	215978	29320.770244986572	2
9	215980	29320.963173329061	1
9	215985	29321.887089299982	0
9	215988	29321.951478521208	1
9	215992	29322.238744212819	0
9	216025	29326.24337786721	1
9	216027	29326.517561080435	0
9	216126	29340.975057998074	1
9	216131	29341.636450629921	2
9	216133	29341.758513547487	1
9	216135	29341.948966080935	0
9	216143	29343.200172520668	1
9	216147	29343.615162681179	0
9	216356	29371.543208156767	1
9	216364	29372.638170640085	2
9	216370	29373.317970847517	1
9	216382	29373.878032523225	0
9	216497	29390.728986339279	1
9	216499	29390.850908629656	0
9	216502	29391.476795764043	1
9	216504	29392.056357693699	0
9	216507	29392.248227294915	1
9	216511	29392.896625101099	0
9	216514	29393.214013275186	1
9	216517	29393.739670319258	2
9	216520	29394.567422131131	3
9	216522	29394.761266579895	2
9	216527	29395.448546160933	1
9	216530	29395.705882143051	2
9	216532	29395.733706304343	1
9	216534	29396.209099913373	0
9	216537	29396.224816238609	1
9	216542	29397.042964338939	2
9	216544	29397.094524183526	1
9	216549	29397.824994301199	2
9	216553	29398.242183608052	1
9	216556	29398.441728730182	2
9	216558	29398.625213520408	1
9	216563	29399.202502908961	0
9	216581	29402.448174242822	1
9	216583	29402.584473632059	0
9	216601	29405.167054312311	1
9	216603	29405.469921353454	0
9	216611	29406.54642098612	1
9	216613	29406.604388116601	0
9	216621	29407.487992516167	1
9	216626	29408.031046186947	0
9	216636	29409.39749043417	1
9	216638	29409.484178532623	0
9	216721	29421.727144182157	1
9	216726	29422.87993194799	0
9	216729	29423.582845677305	1
9	216731	29424.035464449766	0
9	216734	29424.218834515112	1
9	216736	29424.634056753982	0
9	216739	29425.161542232577	1
9	216741	29425.500070089627	0
9	216744	29425.622887276216	1
9	216748	29425.956421116425	0
9	216751	29426.294956979445	1
9	216753	29426.892995357047	0
9	216821	29436.596753136031	1
9	216828	29438.154995486859	0
9	216831	29438.256252380888	1
9	216833	29438.562917207958	0
9	216861	29441.888206287202	1
9	216863	29441.920527625733	0
9	216929	29452.625455659915	1
9	216931	29453.084000266739	0
9	216939	29453.6661116005	1
9	216944	29454.186912413831	0
9	216959	29456.388893843635	1
9	216968	29457.091627028728	0
9	216971	29457.829108933879	1
9	216978	29458.536470359768	0
9	216999	29461.134992424035	1
9	217004	29461.931872964426	2
9	217006	29462.362140661158	1
9	217008	29462.607581740937	0
9	217016	29463.388896511131	1
9	217018	29463.487931475732	0
9	217162	29483.31773302421	1
9	217171	29484.234667990265	0
9	217174	29484.545508816848	1
9	217186	29486.441569477065	0
9	217385	29513.248582549032	1
9	217392	29514.206315302401	0
9	217397	29514.525450887309	1
9	217399	29514.894815675591	0
9	217507	29530.318325634171	1
9	217509	29530.460960469535	0
9	217522	29532.654342704462	1
9	217525	29533.157362581426	2
9	217528	29533.762252050042	3
9	217530	29533.95404101306	2
9	217532	29534.459050244398	1
9	217535	29534.476988611659	2
9	217538	29534.942881222079	3
9	217543	29535.496357876538	4
9	217552	29536.531286378977	3
9	217554	29536.632780775508	2
9	217559	29536.810312951226	3
9	217567	29538.142082177485	4
9	217569	29538.276988074535	3
9	217577	29539.798634784539	4
9	217584	29540.651171714841	3
9	217589	29541.057780375202	4
9	217593	29541.248359785451	3
9	217606	29543.320118124413	2
9	217615	29544.343544305543	1
9	217637	29546.952750530706	0
9	217663	29550.783531369559	1
9	217665	29551.427884272331	0
9	217701	29556.697662315621	1
9	217703	29557.402069414587	0
9	217706	29557.471162249717	1
9	217709	29558.087912466993	2
9	217712	29558.857986623385	3
9	217715	29559.343315177607	4
9	217717	29559.400224921293	3
9	217722	29559.838655991722	4
9	217724	29560.142725380416	3
9	217732	29561.61387116299	2
9	217735	29561.988125645891	3
9	217737	29562.108848005343	2
9	217739	29562.161690186069	1
9	217742	29562.891891512703	2
9	217746	29563.059899807458	1
9	217748	29563.650660610402	0
9	217751	29563.846651862385	1
9	217758	29564.952395354907	0
9	217771	29566.582273989832	1
9	217775	29566.642718424334	0
9	217808	29571.285170846163	1
9	217810	29571.632487612158	0
9	217826	29574.069782308126	1
9	217828	29574.576123486067	0
9	217831	29574.676737038568	1
9	217833	29575.014976103333	0
9	217846	29576.552614456192	1
9	217848	29577.102461390115	0
9	217856	29578.426995580094	1
9	217858	29578.640808671128	0
9	217861	29578.910132724149	1
9	217866	29579.680376037266	0
9	217871	29580.229573128056	1
9	217877	29581.423903415315	2
9	217879	29581.947245106164	1
9	217881	29582.324726713696	0
9	217884	29582.416337635564	1
9	217887	29583.23181070081	2
9	217890	29583.666075694245	3
9	217893	29584.109471695228	4
9	217895	29584.202443058277	3
9	217898	29584.809279316999	4
9	217901	29585.571146003492	5
9	217903	29585.698582981952	4
9	217905	29585.859196889601	3
9	217907	29586.481722712098	2
9	217910	29586.553971409015	3
9	217912	29586.991143537802	2
9	217915	29587.166533416845	3
9	217917	29587.24458543269	2
9	217919	29587.900468682064	1
9	217922	29587.989405071652	2
9	217924	29588.173069717416	1
9	217927	29588.874895737097	2
9	217929	29589.225050478969	1
9	217932	29589.442761407756	2
9	217934	29589.522078725229	1
9	217938	29590.129376369885	0
9	217956	29592.465611255691	1
9	217961	29593.277656119047	2
9	217963	29593.301804834516	1
9	217965	29593.740882819989	0
9	217996	29598.089265652522	1
9	218001	29598.935116926869	2
9	218003	29599.140477902937	1
9	218005	29599.749020389049	0
9	218011	29600.464161703186	1
9	218013	29600.68296596652	0
9	218016	29601.432039396334	1
9	218018	29601.519155003537	0
9	218021	29601.843792741941	1
9	218023	29602.123193369737	0
9	218039	29604.887408605786	1
9	218041	29605.5462026052	0
9	218044	29605.772366032992	1
9	218047	29606.355312276595	2
9	218049	29606.418380900518	1
9	218052	29606.795648521381	2
9	218054	29606.926637628342	1
9	218057	29607.276828145851	2
9	218060	29607.725504777963	3
9	218063	29608.346431204733	4
9	218065	29608.743922318966	3
9	218067	29608.94296438395	2
9	218073	29609.541695311862	3
9	218075	29609.576841713376	2
9	218078	29610.007800881994	3
9	218080	29610.194094084212	2
9	218083	29610.670983588985	3
9	218085	29610.683223438147	2
9	218087	29611.415172190369	1
9	218089	29611.451578206433	0
9	218110	29615.143200450121	1
9	218113	29615.837689850443	2
9	218118	29616.724124525637	3
9	218120	29616.89128347209	2
9	218128	29618.017747696732	3
9	218131	29618.659274291304	4
9	218134	29619.408483036664	5
9	218139	29620.089144580402	6
9	218141	29620.595440376002	5
9	218148	29620.992477948337	4
9	218153	29621.465025381334	5
9	218155	29621.859689465875	4
9	218161	29622.937557224752	5
9	218166	29623.623522217534	6
9	218173	29624.567793409413	5
9	218177	29625.174152665568	4
9	218182	29625.815029407293	3
9	218191	29626.612940332548	2
9	218193	29626.786085216648	1
9	218195	29626.797602198367	0
9	219952	29863.727037145391	1
9	219954	29863.742243951157	0
9	219962	29865.207246160421	1
9	219964	29865.318065241636	0
9	219982	29867.289906933166	1
9	219988	29868.7604202943	2
9	219991	29869.573557786092	3
9	219996	29870.312693176007	4
9	220004	29871.442915964786	5
9	220006	29871.89674548575	4
9	220008	29872.046612933634	3
9	220016	29873.052653453833	4
9	220021	29874.272787235397	3
9	220026	29874.88172048969	4
9	220028	29874.934069112202	3
9	220035	29875.830898054488	2
9	220038	29876.380107191585	3
9	220040	29876.932013982214	2
9	220042	29876.941354034056	1
9	220044	29876.975574427439	0
9	220050	29877.922048034713	1
9	220053	29878.537677337284	2
9	220058	29879.0911917043	3
9	220060	29879.536232204301	2
9	220068	29880.085371299376	3
9	220087	29882.476805167459	2
9	220091	29882.70217816	1
9	220098	29882.860987656461	0
9	220290	29908.86898947634	1
9	220300	29910.281313003145	2
9	220302	29910.36283789377	1
9	220304	29910.930228822454	0
9	220379	29921.428923922927	1
9	220383	29921.921405117191	0
9	220478	29933.673935444851	1
9	220483	29934.633807667004	0
9	220486	29935.086065948441	1
9	220491	29935.937605059485	2
9	220493	29936.863145862299	1
9	220498	29937.047474282999	0
9	220525	29941.034182945929	1
9	220527	29941.311565101162	0
9	220572	29946.918054150428	1
9	220607	29951.190753229089	0
9	220767	29973.793656262767	1
9	220769	29974.045691364975	0
9	220837	29982.854240776144	1
9	220839	29983.16289368985	0
9	220847	29984.373850662785	1
9	220850	29984.826308289135	2
9	220854	29985.14388374569	1
9	220857	29985.438944909454	2
9	220860	29986.035085161601	3
9	220863	29986.771962116158	4
9	220866	29987.243097555323	5
9	220869	29987.968261640624	6
9	220871	29988.025368930725	5
9	220873	29988.480638848839	4
9	220876	29988.639160395472	5
9	220878	29988.920792385362	4
9	220880	29989.01516890564	3
9	220883	29989.240472633497	4
9	220886	29990.073041556974	5
9	220889	29990.783572668687	6
9	220891	29990.964601091865	5
9	220893	29991.039980327036	4
9	220896	29991.666095240612	5
9	220899	29992.454641664738	6
9	220902	29993.373780136008	7
9	220905	29994.262547083024	8
9	220907	29994.503204963163	7
9	220912	29995.645454555899	6
9	220914	29995.650485973731	5
9	220917	29995.723295230383	6
9	220919	29996.538300296457	5
9	220922	29996.679851276671	6
9	220924	29997.085815820988	5
9	220927	29997.385799617331	6
9	220930	29997.820066543493	7
9	220932	29997.885902982402	6
9	220934	29998.139485894678	5
9	220937	29998.649048906622	6
9	220939	29999.048657569224	5
9	220942	29999.117039125191	6
9	220945	29999.85697222572	7

