version 2
run First_exit_8-13-20191023-00:19:49-5161
attr configname First_exit_8
attr datetime 20191023-00:19:49
attr experiment First_exit_8
attr inifile omnetpp.ini
attr iterationvars ""
attr iterationvarsf ""
attr measurement ""
attr network ResponseTimeNetwork
attr processid 5161
attr repetition 13
attr replication #13
attr resultdir results
attr runnumber 13
attr seedset 13
param **.Source.interArrivalTime exponential(4s)
param **.jobPriority bernoulli(0.4)
param **.PS.serviceTimeU1 "uniform(0.4s, 1.0s)"
param **.PS.serviceTimeU2 "uniform(1s, 1.2s)"
param **.SS1.serviceTime exponential(0.4s)
param **.SS2.serviceTime exponential(0.8s)
param **.PS.exitProbability bernoulli(0.8)

vector 0 ResponseTimeNetwork.SS1 queueLength:vector ETV
attr interpolationmode sample-hold
attr title "queue length, vector"
vector 1 ResponseTimeNetwork.SS2 queueLength:vector ETV
attr interpolationmode sample-hold
attr title "queue length, vector"
vector 2 ResponseTimeNetwork.QueueU1 queueLength:vector ETV
attr interpolationmode sample-hold
attr title "queue length, vector"
vector 3 ResponseTimeNetwork.QueueU2 queueLength:vector ETV
attr interpolationmode sample-hold
attr title "queue length, vector"
vector 4 ResponseTimeNetwork.sink lifeTimeU1:vector ETV
attr interpolationmode none
attr title "lifetime of arrived jobs U1, vector"
attr unit s
vector 5 ResponseTimeNetwork.sink lifeTime:vector ETV
attr interpolationmode none
attr title "lifetime of arrived jobs, vector"
attr unit s
vector 6 ResponseTimeNetwork.sink lifeTimeU2:vector ETV
attr interpolationmode none
attr title "lifetime of arrived jobs U2, vector"
attr unit s
3	0	0	0
3	35	24.378204877824	1
3	36	24.591932410639	0
3	40	24.619381651179	1
3	41	25.274887779666	0
3	45	25.747744738292	1
3	46	25.82865574703	0
3	50	26.170310636967	1
3	52	26.48568546405	2
3	58	27.658324915342	1
3	61	28.249959733741	0
3	65	28.29826295062	1
3	67	28.427957663742	2
3	84	30.248570988269	3
3	85	30.72978969783	2
3	96	32.056388307026	3
3	170	40.795902395517	4
3	175	41.578597923883	5
3	197	44.629621079158	6
3	206	45.953044128405	5
3	209	46.801811567448	4
3	212	47.265879567048	3
3	236	50.524642712049	4
3	238	50.546611275605	5
3	244	51.029606565989	6
3	294	57.998507478972	7
3	308	60.496739555093	6
3	316	62.313857063268	5
3	325	63.260511839169	6
3	361	67.30986289126	7
3	366	68.094487429926	8
3	380	70.060177593482	7
3	391	71.214632606142	8
3	403	71.965720422988	9
3	412	74.212561893221	8
3	423	74.806752614273	9
3	437	76.398983169483	10
3	452	78.410689573711	11
3	491	84.297084942126	10
3	494	84.798822430793	9
3	497	85.369556135444	8
3	501	86.091103004343	9
3	502	86.318324304458	8
3	505	86.823040421579	7
3	508	87.282661010876	6
3	512	87.311201021316	7
3	513	88.230641753591	6
3	516	89.170807023152	5
3	520	89.589763199858	6
3	522	89.619787201406	7
3	524	89.627702581962	8
3	525	89.908949126248	7
3	528	90.52658493057	6
3	532	90.578425499576	7
3	533	91.401375345598	6
3	537	91.522204222593	7
3	538	92.001948296969	6
3	542	92.16090785612	7
3	543	92.955973482217	6
3	547	93.116157577719	7
3	548	93.757521924462	6
3	551	94.339834487803	5
3	554	94.929863858401	4
3	558	95.100653150874	5
3	559	95.816305187709	4
3	562	96.28807127596	3
3	566	96.844885689361	4
3	567	96.923385671611	3
3	570	97.327473595916	2
3	574	97.860366961854	3
3	575	97.860762884739	2
3	579	98.003077602441	3
3	580	98.535990866312	2
3	584	98.960690385769	3
3	585	99.103005605043	2
3	589	99.143818578197	3
3	591	99.529825731201	4
3	593	99.562152325372	5
3	594	99.688007221782	4
3	598	100.175528289535	5
3	599	100.609418728567	4
3	602	101.158286747095	3
3	605	101.964344990198	2
3	609	102.044662240522	3
3	611	102.189994660956	4
3	612	102.694834316234	3
3	616	103.109490223691	4
3	617	103.20905404877	3
3	621	103.3579352191	4
3	622	103.893734889702	3
3	626	104.251051397356	4
3	627	104.461835592139	3
3	630	105.442585050586	2
3	634	105.88071867282	3
3	635	105.973955936489	2
3	638	106.901401234783	1
3	641	107.702743511686	0
3	645	107.816594194397	1
3	646	108.188855839373	0
3	655	110.540632292194	1
3	657	110.719610515838	2
3	659	110.788804896056	3
3	660	110.844845957298	2
3	663	111.56967797255	1
3	666	112.154793673976	0
3	670	112.390746487097	1
3	672	112.535190358672	2
3	674	112.63167529565	3
3	675	112.810176306347	2
3	679	112.863941265634	3
3	680	113.648426702561	2
3	683	114.222374429962	1
3	687	114.483947775013	2
3	688	114.896147736291	1
3	692	114.936514858784	2
3	693	115.436356854056	1
3	696	116.319372922824	0
3	700	116.593201777771	1
3	702	116.857515279817	2
3	703	117.089257676983	1
3	706	117.777742899479	0
3	710	118.256010895696	1
3	711	118.435550194457	0
3	715	118.51117733602	1
3	716	118.933670040583	0
3	720	119.020554986139	1
3	721	119.838636733768	0
3	725	120.008313326958	1
3	726	120.738487535146	0
3	730	121.050858105035	1
3	731	121.545652295639	0
3	740	122.711338676167	1
3	741	123.319682755189	0
3	750	124.352547781577	1
3	751	124.859939547471	0
3	760	126.500002210476	1
3	762	126.564156505198	2
3	763	126.690273319894	1
3	766	127.374895095091	0
3	795	131.869335406504	1
3	796	131.870960447321	0
3	805	133.183067941207	1
3	806	133.528903316608	0
3	855	149.47179319592	1
3	856	149.957745089168	0
3	865	151.04353179609	1
3	866	151.419567709114	0
3	870	151.71402054568	1
3	871	151.829263133067	0
3	880	152.913502745937	1
3	881	152.944028664248	0
3	905	161.140913886135	1
3	907	161.369914557278	2
3	908	161.460925499124	1
3	914	162.303692155135	2
3	919	162.58253503489	3
3	920	162.777722735943	2
3	928	163.703412121169	1
3	937	164.878569409026	2
3	938	165.027807023058	1
3	942	165.032046368253	2
3	948	166.285078767602	1
3	954	166.32768559787	2
3	956	166.609874769958	3
3	960	167.495376852535	2
3	964	168.277128712565	3
3	965	168.416536116002	2
3	968	169.411358701864	1
3	971	170.060918175902	0
3	975	170.431892755178	1
3	976	170.589705625277	0
3	980	170.71303624238	1
3	981	171.173249643862	0
3	985	172.06074299828	1
3	986	172.121588437872	0
3	1000	174.669948968403	1
3	1001	174.803540652719	0
3	1005	175.552130311795	1
3	1006	175.638470116405	0
3	1020	177.557779937742	1
3	1021	178.040923678436	0
3	1025	178.090677981335	1
3	1026	178.55097822382	0
3	1030	178.570542682976	1
3	1031	179.15188624191	0
3	1040	180.764487686063	1
3	1041	181.069134011566	0
3	1047	181.328027845694	1
3	1052	182.404210939444	2
3	1053	182.939498584745	1
3	1061	184.278069707127	0
3	1065	184.567424443442	1
3	1066	184.745534644955	0
3	1100	188.98815275742	1
3	1101	189.241938678512	0
3	1110	190.439093675676	1
3	1111	190.508853660721	0
3	1117	190.735148246099	1
3	1119	190.976101545769	2
3	1124	191.794000917277	3
3	1125	191.869182174477	2
3	1134	193.012333356477	3
3	1135	193.31167665735	2
3	1143	193.888185044015	3
3	1148	194.19341223521	4
3	1153	194.481674301242	5
3	1160	195.480063708634	6
3	1161	195.988764102208	5
3	1165	196.05153917216	6
3	1171	197.734537237892	5
3	1180	199.15759654086	6
3	1181	199.208374740007	5
3	1184	199.700789567093	4
3	1188	200.226397157579	5
3	1189	200.655431762394	4
3	1192	201.334592606696	3
3	1196	201.408398366269	4
3	1198	201.581970935511	5
3	1199	202.086358456556	4
3	1203	202.125694032237	5
3	1204	203.007881488614	4
3	1207	203.888018968897	3
3	1210	204.68254275728	2
3	1213	205.161738369344	1
3	1217	205.883153745493	2
3	1219	205.891687352557	3
3	1220	206.128464640454	2
3	1223	206.815410268689	1
3	1226	207.442356560436	0
3	1230	207.925166940462	1
3	1231	208.150083326372	0
3	1235	208.460454547356	1
3	1236	209.067865940706	0
3	1240	209.23788708231	1
3	1241	209.982898979831	0
3	1255	213.035669073944	1
3	1256	213.328813867906	0
3	1260	213.671331588284	1
3	1262	214.157077119822	2
3	1263	214.257806411322	1
3	1267	214.639395978117	2
3	1268	215.029964659486	1
3	1272	215.232419148983	2
3	1273	215.582905846817	1
3	1282	216.490578834673	2
3	1284	216.994080226275	3
3	1285	217.271344530192	2
3	1293	218.969926752225	1
3	1301	220.28614813162	0
3	1305	220.349667732237	1
3	1306	220.852775830245	0
3	1325	223.968572164441	1
3	1326	224.24155184229	0
3	1385	245.638280592843	1
3	1386	246.059217472676	0
3	1390	246.401413111124	1
3	1391	246.528444033418	0
3	1395	246.695617391548	1
3	1396	247.348214924963	0
3	1425	252.886144678822	1
3	1426	253.648340156053	0
3	1430	254.343802727782	1
3	1431	254.440335108463	0
3	1440	255.853984799122	1
3	1441	256.118593188216	0
3	1445	256.739591179439	1
3	1446	257.060022935345	0
3	1450	257.680957862066	1
3	1451	257.991815790747	0
3	1460	260.533946204555	1
3	1479	262.337462677806	2
3	1513	267.60893747127	1
3	1524	268.640591916946	2
3	1533	270.689782198289	1
3	1549	271.912574558489	2
3	1553	273.044123542452	1
3	1562	274.28349617894	2
3	1563	274.494450421263	1
3	1571	275.950209849285	0
3	1575	276.03521770191	1
3	1576	276.555353779629	0
3	1580	276.588756580269	1
3	1581	277.394158051167	0
3	1590	277.949817208934	1
3	1592	278.198657367228	2
3	1593	278.325434584889	1
3	1601	279.700492016246	0
3	1617	282.267879617236	1
3	1622	282.662962421402	2
3	1623	282.971113702237	1
3	1626	283.648425099022	0
3	1635	285.016016044984	1
3	1637	285.223484352653	2
3	1638	285.364821543976	1
3	1647	286.108771190912	2
3	1649	286.111522336722	3
3	1650	286.421851771989	2
3	1659	286.993528871122	3
3	1660	287.705823494226	2
3	1663	288.594790150702	1
3	1666	289.27187356475	0
3	1670	289.694426798998	1
3	1671	290.134785422228	0
3	1675	290.224606010186	1
3	1676	291.09544582219	0
3	1705	295.31830540635	1
3	1706	295.859840496811	0
3	1720	297.641506012633	1
3	1721	297.970796352737	0
3	1750	308.728769497811	1
3	1751	309.18482684583	0
3	1760	310.598571445101	1
3	1761	310.98362994276	0
3	1765	311.30281967488	1
3	1766	311.404947220376	0
3	1770	311.524701308548	1
3	1772	311.717114377437	2
3	1773	311.808309673919	1
3	1777	312.700013276816	2
3	1778	312.73680395105	1
3	1781	313.484520138736	0
3	1795	316.759812359028	1
3	1797	316.955099061415	2
3	1798	317.363564284388	1
3	1801	318.082832629383	0
3	1805	318.617573135757	1
3	1806	318.757648439948	0
3	1810	318.941051572016	1
3	1811	319.736336133499	0
3	1832	323.109859302937	1
3	1837	323.484676023945	2
3	1838	323.707277351144	1
3	1844	324.217133289376	2
3	1848	325.194912464862	1
3	1854	325.386944789138	2
3	1859	326.303471050804	3
3	1860	326.895957105227	2
3	1869	328.456927107698	3
3	1870	328.634194875454	2
3	1879	329.288386447943	3
3	1880	330.019591475735	2
3	1888	331.692896285505	1
3	1892	331.814684389566	2
3	1893	332.1114207704	1
3	1896	332.801306979256	0
3	1905	334.206355373084	1
3	1907	334.468173449818	2
3	1908	335.018103336244	1
3	1912	335.068249504181	2
3	1913	335.836412712772	1
3	1916	336.460025837206	0
3	1920	337.083047107944	1
3	1922	337.122663388912	2
3	1923	337.351002931016	1
3	1927	337.791032908564	2
3	1928	338.189006181367	1
3	1931	338.794676023469	0
3	1940	339.553783243141	1
3	1941	339.869473934939	0
3	1945	340.413367003155	1
3	1946	340.465625186099	0
3	1950	340.599457112973	1
3	1952	340.809139203168	2
3	1953	341.199148234979	1
3	1956	341.709554299081	0
3	1965	343.356184216754	1
3	1967	343.449737336988	2
3	1968	343.628687663006	1
3	1972	343.630789522953	2
3	1973	344.378138635729	1
3	1976	345.07357147122	0
3	1985	349.255046367362	1
3	1986	349.474290394144	0
3	1990	350.030512523285	1
3	1991	350.113480201702	0
3	1995	350.289481348188	1
3	1996	350.923225584639	0
3	2000	351.196838393005	1
3	2001	351.404722206121	0
3	2010	353.339885978378	1
3	2012	353.573271647133	2
3	2013	354.145744763813	1
3	2017	354.610574704	2
3	2019	354.71505658488	3
3	2020	355.118434526292	2
3	2024	355.569041407652	3
3	2031	356.355635789258	4
3	2032	356.45132044571	3
3	2035	357.408233105797	2
3	2041	357.511670774413	3
3	2045	358.67583625008	2
3	2054	359.401907603625	3
3	2056	359.627528770669	4
3	2057	360.129271173371	3
3	2078	362.286463615788	4
3	2102	365.405133322518	5
3	2139	370.259972944132	6
3	2144	370.503401865197	7
3	2158	373.277588252476	6
3	2171	373.950694658124	7
3	2176	374.782151972415	8
3	2180	375.512386015602	7
3	2196	376.967270049202	8
3	2198	376.99940879244	9
3	2232	382.25965563728	8
3	2235	382.678767953007	7
3	2244	383.535160047168	8
3	2245	384.19458665525	7
3	2251	384.465074050854	8
3	2255	385.353385530258	7
3	2261	385.40446623763	8
3	2266	386.679337751471	9
3	2267	386.778691500504	8
3	2276	387.956118944847	9
3	2277	388.048714711736	8
3	2280	388.9332641892	7
3	2288	390.637935066908	6
3	2291	391.291851139614	5
3	2297	391.636957786191	6
3	2302	392.227949927211	7
3	2304	393.047837381301	8
3	2305	393.063964839639	7
3	2316	394.02803682747	8
3	2326	395.345581812123	9
3	2328	395.357202253617	10
3	2334	396.807590282042	9
3	2368	400.848237340825	10
3	2387	403.31206854755	11
3	2391	404.139185833869	10
3	2394	404.579609994901	9
3	2403	405.22877582491	10
3	2404	405.550088112972	9
3	2413	406.373890162252	10
3	2414	406.728627694429	9
3	2418	406.756455212991	10
3	2419	407.178668374972	9
3	2427	408.701615264344	8
3	2431	409.316033839314	9
3	2432	409.553891560839	8
3	2436	409.920161123502	9
3	2438	410.166242025584	10
3	2439	410.398410733262	9
3	2442	410.8569589455	8
3	2446	410.977687596483	9
3	2447	411.384814596162	8
3	2450	411.868557689232	7
3	2454	412.419790169603	8
3	2455	412.728572685537	7
3	2459	412.776282995038	8
3	2461	412.928957977711	9
3	2462	413.58776209665	8
3	2466	413.606001216538	9
3	2467	414.545550681404	8
3	2470	415.103337857393	7
3	2474	415.46764885718	8
3	2476	415.610521753928	9
3	2477	415.654370830567	8
3	2481	416.036542693769	9
3	2482	416.53146476232	8
3	2486	417.394577597152	9
3	2487	417.443124423907	8
3	2490	417.923988019056	7
3	2493	418.473114577807	6
3	2501	419.557305216403	5
3	2505	419.671568367668	6
3	2507	420.092010300451	7
3	2508	420.411846275754	6
3	2512	420.436587576023	7
3	2524	422.466744982341	8
3	2525	422.515723272121	7
3	2534	423.57878235603	8
3	2536	423.727565530362	9
3	2537	423.894048125936	8
3	2540	424.458895389444	7
3	2549	425.322742773543	8
3	2550	425.473970514943	7
3	2559	426.373508695496	8
3	2565	427.851717758539	7
3	2574	428.541411702915	8
3	2575	429.052029213763	7
3	2589	431.070463553823	8
3	2628	435.890328682649	9
3	2637	437.500878873222	8
3	2640	438.028568980039	7
3	2651	439.190675505212	8
3	2663	440.42677287458	9
3	2667	441.187007326854	8
3	2678	442.199306894641	9
3	2740	451.320115746723	10
3	2744	452.27570868245	9
3	2777	456.925547489464	8
3	2786	457.815777378331	9
3	2787	458.038827821134	8
3	2795	459.352955414528	7
3	2798	460.017867798625	6
3	2802	460.287252995496	7
3	2803	460.425938234605	6
3	2807	460.5606034125	7
3	2808	461.19373140846	6
3	2811	461.835470468631	5
3	2814	462.790738247974	4
3	2818	463.077077445316	5
3	2819	463.742253866406	4
3	2822	464.555340661375	3
3	2826	465.207821988248	4
3	2827	465.397138225088	3
3	2831	465.8085025571	4
3	2832	466.396948796311	3
3	2835	467.318907155782	2
3	2838	467.722288501296	1
3	2842	468.049486136137	2
3	2844	468.287311055817	3
3	2846	468.587383821663	4
3	2847	468.648724200191	3
3	2850	469.127952303724	2
3	2854	469.612785914381	3
3	2855	469.871719954941	2
3	2859	470.067808838271	3
3	2860	470.740153067732	2
3	2863	471.230463189712	1
3	2867	471.494458899138	2
3	2868	472.079848785592	1
3	2871	472.487559341626	0
3	2875	473.022294606232	1
3	2876	473.20246641588	0
3	2885	475.696852447975	1
3	2886	475.983610340336	0
3	2890	476.23797448149	1
3	2892	476.379179802125	2
3	2893	476.891795513767	1
3	2902	477.507423774525	2
3	2903	477.873260009137	1
3	2907	478.147793769343	2
3	2908	478.334526551782	1
3	2916	479.349313261999	0
3	2922	479.719417928622	1
3	2926	480.715986443392	0
3	2930	480.722807906101	1
3	2931	481.399158503476	0
3	2935	481.838334614078	1
3	2936	482.36171228023	0
3	2940	482.595760046692	1
3	2941	483.297219172295	0
3	2945	484.011096681974	1
3	2946	484.059490498377	0
3	2965	487.005950791353	1
3	2967	487.294728152347	2
3	2968	487.399640889862	1
3	2976	488.896911346191	0
3	2990	491.086381043747	1
3	2991	491.52509897329	0
3	3000	494.674061082267	1
3	3001	494.855770330505	0
3	3015	497.473574255927	1
3	3016	497.525909071256	0
3	3020	498.364914715711	1
3	3021	498.434327422668	0
3	3030	500.26234766364	1
3	3032	500.348219163482	2
3	3033	500.373946653047	1
3	3037	500.827589381559	2
3	3038	501.068819210838	1
3	3042	501.262789423119	2
3	3043	501.680853530226	1
3	3046	502.560698172377	0
3	3050	502.757969662217	1
3	3051	502.973083398511	0
3	3055	503.06199920887	1
3	3056	503.700348616551	0
3	3060	503.715421002683	1
3	3062	503.96359518084	2
3	3063	504.698755961211	1
3	3067	504.723014603039	2
3	3069	505.388074666499	3
3	3070	505.411831288712	2
3	3074	505.865870712255	3
3	3075	506.133334281223	2
3	3079	506.447286008808	3
3	3086	506.871888917006	4
3	3087	507.473889496059	3
3	3095	508.767305203036	2
3	3104	509.408913078189	3
3	3106	509.530866925504	4
3	3107	510.144435683006	3
3	3115	511.360953918772	2
3	3119	511.385781007915	3
3	3123	511.657155566632	4
3	3128	512.40212410019	5
3	3129	513.006701437777	4
3	3138	513.996052863108	5
3	3140	514.215464664774	6
3	3142	514.403934197146	7
3	3143	514.83759154428	6
3	3146	515.400860830976	5
3	3149	516.175512450861	4
3	3153	516.451138426579	5
3	3154	516.950463464504	4
3	3158	517.470149747861	5
3	3159	517.939741201952	4
3	3162	518.914106810858	3
3	3166	519.042326748503	4
3	3168	519.259243955654	5
3	3169	519.696627481162	4
3	3172	520.621970101792	3
3	3175	521.042335060818	2
3	3179	521.201295171803	3
3	3180	521.466160380861	2
3	3184	521.938948715492	3
3	3185	522.42834661158	2
3	3188	522.890095988728	1
3	3192	523.16198042022	2
3	3194	523.464193286374	3
3	3195	523.537384309268	2
3	3198	524.049009884542	1
3	3201	524.810414149679	0
3	3205	525.236050211912	1
3	3206	525.424687917597	0
3	3210	525.828811608055	1
3	3212	525.858448316548	2
3	3214	526.114914613555	3
3	3215	526.167519576774	2
3	3219	526.727094791394	3
3	3220	526.740998635368	2
3	3223	527.610745043607	1
3	3226	528.330407562686	0
3	3255	533.348387524322	1
3	3257	533.996592139532	2
3	3258	534.109264439757	1
3	3262	534.30701415031	2
3	3263	534.954625782364	1
3	3267	535.163005284584	2
3	3268	535.545837337564	1
3	3271	536.342447546072	0
3	3285	539.566147019257	1
3	3286	539.689583074174	0
3	3290	540.006944369628	1
3	3291	540.258465388523	0
3	3295	540.331806143373	1
3	3296	541.161476257363	0
3	3300	541.451076786245	1
3	3302	541.550608664719	2
3	3303	541.706646487828	1
3	3307	541.944550281575	2
3	3309	542.519422168314	3
3	3310	542.604517542211	2
3	3314	543.373473825928	3
3	3315	543.458688674926	2
3	3319	543.722196786815	3
3	3325	544.860312004819	2
3	3328	545.782464887307	1
3	3334	546.200680179204	2
3	3338	547.215469053633	1
3	3347	548.41598799919	2
3	3348	548.737103462278	1
3	3356	549.769916230173	0
3	3365	550.351665748492	1
3	3366	550.976042110966	0
3	3380	553.64848707458	1
3	3381	554.307780155688	0
3	3390	555.129968642351	1
3	3391	555.799528931044	0
3	3402	557.357023848938	1
3	3419	559.879247517182	2
3	3443	564.00131556133	1
3	3451	565.199555603249	0
3	3460	565.985208855566	1
3	3476	568.727201335355	0
3	3485	570.073653278916	1
3	3486	570.097118816468	0
3	3500	571.466488560176	1
3	3504	571.586120611518	2
3	3508	572.344966385037	1
3	3511	572.830257465726	0
3	3522	574.090812605331	1
3	3527	574.2724874669	2
3	3533	575.694137298864	1
3	3544	576.687622498657	2
3	3546	576.703448976341	3
3	3570	580.607368874959	2
3	3576	580.958069969875	3
3	3581	581.655683270669	4
3	3582	581.93316034832	3
3	3593	582.930429180687	4
3	3597	584.696525479378	3
3	3603	585.328688944939	4
3	3608	585.536296914236	5
3	3609	586.134904283788	4
3	3618	587.393969536237	5
3	3619	587.448534484012	4
3	3628	588.985648689221	5
3	3629	589.011293036761	4
3	3638	589.634278603293	5
3	3639	590.155679101302	4
3	3652	592.378301119564	3
3	3656	592.467946511522	4
3	3665	593.697192239464	5
3	3699	597.794958749332	6
3	3716	600.462784393451	5
3	3725	601.76111230317	6
3	3726	601.810290766268	5
3	3734	603.327069441176	4
3	3738	603.751615020461	5
3	3750	604.715089872592	6
3	3752	605.217472603016	7
3	3753	605.434239090926	6
3	3766	606.108249972173	7
3	3768	606.681843538757	8
3	3785	608.955394029352	9
3	3792	609.317914558031	10
3	3829	615.935800224908	9
3	3832	616.418747840721	8
3	3838	616.879142081611	9
3	3843	617.289023563834	10
3	3844	617.626038367899	9
3	3850	617.849357100899	10
3	3852	617.922113071179	11
3	3854	618.36358511009	12
3	3858	618.999510010371	11
3	3867	620.170818845691	12
3	3868	620.78223911877	11
3	3874	621.176470947984	12
3	3879	621.565697902481	13
3	3880	622.22382139479	12
3	3883	622.7702104635	11
3	3889	623.028545069188	12
3	3893	624.352934096188	11
3	3904	625.774427195216	12
3	3913	627.000646855023	11
3	3924	628.028192559749	12
3	3931	628.552324810404	13
3	3940	630.277212488365	12
3	3953	632.473785477171	11
3	3971	635.560912790701	10
3	3975	635.733577928395	11
3	3977	636.260764630213	12
3	3986	636.568683050684	13
3	3995	638.454016777028	12
3	4003	639.712283356527	11
3	4006	640.155437005118	10
3	4009	640.585425756911	9
3	4013	641.11369038365	10
3	4014	641.537841345875	9
3	4017	642.235954665106	8
3	4020	642.713031759385	7
3	4023	643.483367062353	6
3	4026	644.473900497884	5
3	4030	644.692324005778	6
3	4032	644.724434883844	7
3	4034	644.887921127833	8
3	4036	645.076898896002	9
3	4037	645.142208231559	8
3	4041	645.568257971848	9
3	4042	645.779135371737	8
3	4046	646.221716791596	9
3	4047	646.557834321532	8
3	4050	647.522058178663	7
3	4053	648.058293744728	6
3	4057	648.103471522188	7
3	4058	648.609033298206	6
3	4061	649.330903322662	5
3	4065	649.707790001097	6
3	4067	649.767181523701	7
3	4069	649.933155387093	8
3	4070	650.093455973633	7
3	4074	650.26550288402	8
3	4075	650.543041141045	7
3	4078	651.070648564578	6
3	4082	651.081342187759	7
3	4083	651.87386880046	6
3	4087	652.577679898388	7
3	4088	652.796209521818	6
3	4091	653.205624501959	5
3	4095	653.762813600977	6
3	4096	653.88065985692	5
3	4099	654.400653246644	4
3	4103	654.737570812531	5
3	4105	654.792730077936	6
3	4106	654.832092863827	5
3	4110	655.140499092377	6
3	4112	655.22024841515	7
3	4114	655.306591806736	8
3	4116	655.384986004143	9
3	4117	655.5147173881	8
3	4121	655.964319641025	9
3	4122	656.490681728248	8
3	4125	657.186258061503	7
3	4128	657.867383055615	6
3	4131	658.851810276362	5
3	4135	658.954458708164	6
3	4137	659.508668999617	7
3	4138	659.739347120833	6
3	4141	660.208542127062	5
3	4144	660.736078483511	4
3	4147	661.520821073551	3
3	4151	661.792642889679	4
3	4153	661.806504976175	5
3	4155	662.339496173624	6
3	4156	662.519638170062	5
3	4160	662.724296122119	6
3	4161	663.229366297268	5
3	4165	663.538490471522	6
3	4166	663.865221231517	5
3	4170	663.996890775669	6
3	4171	664.838782300933	5
3	4175	664.840845571777	6
3	4177	665.286124795447	7
3	4179	665.674278656096	8
3	4180	665.778329532121	7
3	4183	666.458785350707	6
3	4186	667.204546405973	5
3	4189	667.621132961327	4
3	4193	667.980233293992	5
3	4194	668.43787443204	4
3	4197	669.180317438852	3
3	4201	669.290839003683	4
3	4203	669.359737383787	5
3	4205	669.394487952264	6
3	4206	669.69249255419	5
3	4212	670.195558543415	6
3	4216	670.826980748486	5
3	4220	671.203611434732	6
3	4221	671.342320043028	5
3	4230	672.140878738596	6
3	4232	672.243497377798	7
3	4233	672.329857255186	6
3	4237	672.606479494089	7
3	4244	673.051597156754	8
3	4248	673.252715841507	9
3	4260	674.294577093601	10
3	4274	676.484403756767	9
3	4282	677.28585147442	10
3	4287	677.521358838112	11
3	4291	678.851178264612	10
3	4304	681.023383150802	9
3	4308	681.06985159554	10
3	4309	681.876745349255	9
3	4312	682.614404141896	8
3	4315	683.023919593815	7
3	4318	684.01055206367	6
3	4322	684.401706342841	7
3	4324	684.717771635832	8
3	4325	684.987922222206	7
3	4329	685.466540090009	8
3	4330	685.793851882165	7
3	4334	685.883462829247	8
3	4335	686.722699729206	7
3	4338	687.360350003971	6
3	4342	687.483006015611	7
3	4344	687.922654828293	8
3	4345	687.940360540051	7
3	4348	688.903784230251	6
3	4351	689.668877882689	5
3	4355	689.71703433033	6
3	4356	690.120004985288	5
3	4359	690.549575894738	4
3	4363	691.001825266896	5
3	4364	691.137617396556	4
3	4368	691.484908482358	5
3	4370	691.612633114753	6
3	4371	691.927712061854	5
3	4374	692.737235161329	4
3	4377	693.285912212303	3
3	4380	694.105804132244	2
3	4384	694.553273503137	3
3	4385	694.566465949214	2
3	4389	694.924434167395	3
3	4391	694.987489320282	4
3	4393	695.251638167079	5
3	4394	695.385248381778	4
3	4397	696.245374603703	3
3	4401	696.514757681942	4
3	4403	696.803341436163	5
3	4404	697.010160600341	4
3	4407	697.618036096118	3
3	4411	697.745409081859	4
3	4412	698.586666627083	3
3	4415	699.011865667155	2
3	4419	699.234285199615	3
3	4421	699.250890624276	4
3	4423	699.676467806119	5
3	4425	699.73340897449	6
3	4426	699.939157370565	5
3	4429	700.911527737829	4
3	4433	701.220916201094	5
3	4434	701.376622747717	4
3	4438	701.41253313012	5
3	4440	701.911896431427	6
3	4441	701.920864639937	5
3	4444	702.695266937458	4
3	4448	702.914706046847	5
3	4450	703.133295049317	6
3	4457	703.661973155551	7
3	4458	704.551652038697	6
3	4467	705.641516984081	7
3	4468	706.080537197873	6
3	4471	706.63995350487	5
3	4475	706.756895473117	6
3	4476	707.329955287878	5
3	4480	707.585517074603	6
3	4482	707.702277548962	7
3	4483	708.031767734321	6
3	4487	708.157144513686	7
3	4489	708.281692156832	8
3	4491	708.670797751868	9
3	4492	708.739111848636	8
3	4495	709.675896193035	7
3	4499	709.812866379478	8
3	4500	710.276566048846	7
3	4503	711.144165427558	6
3	4507	711.296014559124	7
3	4508	711.546232660668	6
3	4512	712.046349869543	7
3	4513	712.53180469544	6
3	4517	712.540911631391	7
3	4519	712.685951826034	8
3	4521	712.852685568417	9
3	4522	713.241416368674	8
3	4530	714.923676035128	7
3	4536	715.36665725821	8
3	4548	717.159478420716	9
3	4553	717.740244760284	10
3	4557	718.086719749678	11
3	4561	719.137728665344	10
3	4565	719.339674633893	11
3	4571	720.229978319298	10
3	4580	721.449078706975	11
3	4581	721.651577874267	10
3	4584	722.41973442891	9
3	4593	723.403635357396	10
3	4595	723.642651138844	11
3	4596	723.837386506044	10
3	4607	725.216959016379	11
3	4614	725.637859831767	12
3	4634	728.842427561202	13
3	4650	731.683023273845	12
3	4659	733.096018163157	13
3	4660	733.321341048314	12
3	4663	734.122052005579	11
3	4667	734.302900843383	12
3	4668	734.773528592143	11
3	4672	735.195020885097	12
3	4673	735.540319691732	11
3	4676	736.431765095744	10
3	4680	736.505424524434	11
3	4682	736.731528692254	12
3	4684	736.784386763518	13
3	4685	737.14065470951	12
3	4689	737.222778323864	13
3	4690	738.028735048597	12
3	4693	738.532899074762	11
3	4697	739.292077628802	12
3	4698	739.522780812153	11
3	4702	740.368868577368	12
3	4703	740.433289831498	11
3	4706	741.23128687478	10
3	4712	741.912410388944	11
3	4716	742.651858209533	10
3	4720	743.031641900318	11
3	4721	743.358288381382	10
3	4725	743.605436997372	11
3	4751	746.498580915529	12
3	4761	747.737145211885	13
3	4775	749.327293601118	14
3	4777	749.535865004384	15
3	4829	755.976197846538	16
3	4834	756.368219374516	17
3	4868	760.237061959854	18
3	4885	762.999599846952	19
3	4890	763.43952117979	20
3	4954	773.377458780861	19
3	4968	774.970765605806	20
3	4972	775.288978483862	21
3	4974	775.44800990066	22
3	4993	778.567914657245	21
3	5012	780.859123119807	22
3	5013	781.744665306012	21
3	5024	782.644275056465	22
3	5041	783.94340325908	23
3	5053	785.916711431638	24
3	5144	798.05535572635	25
3	5172	803.215985708192	26
3	5198	805.920011453303	27
3	5208	807.151979662116	28
3	5235	810.84063824962	29
3	5245	812.298358521201	30
3	5262	814.844612095653	31
3	5279	816.993577640705	32
3	5288	818.901398812136	31
3	5299	819.823841371945	32
3	5316	822.18724126335	33
3	5320	823.596962351207	32
3	5323	824.217113372865	31
3	5326	825.128612435651	30
3	5329	825.58479537847	29
3	5333	825.613050977048	30
3	5337	825.974184772119	31
3	5339	826.10901494046	32
3	5344	826.793437185678	33
3	5345	827.094169618418	32
3	5348	827.520318085463	31
3	5351	828.077681183531	30
3	5354	828.93550539929	29
3	5363	829.95036477816	30
3	5364	830.109617639515	29
3	5370	830.751106650513	30
3	5374	831.708129017796	29
3	5377	832.253642690876	28
3	5380	833.239468510957	27
3	5383	833.978587217951	26
3	5386	834.832026076732	25
3	5390	834.894037474059	26
3	5391	835.744456062881	25
3	5395	836.096194133933	26
3	5396	836.710086656078	25
3	5399	837.599529404654	24
3	5402	838.096704547568	23
3	5405	838.924981992221	22
3	5409	839.100435942133	23
3	5411	839.463159070085	24
3	5412	839.54172572372	23
3	5416	839.739924727578	24
3	5417	840.099776669261	23
3	5420	840.949398433506	22
3	5423	841.699738847833	21
3	5426	842.20634110537	20
3	5430	842.248998329104	21
3	5432	842.920396418245	22
3	5433	843.083078187794	21
3	5437	843.496367851616	22
3	5438	844.053209728465	21
3	5441	844.745841827008	20
3	5445	844.972005359795	21
3	5446	845.292820359205	20
3	5452	845.568128968532	21
3	5454	846.172393216884	22
3	5456	846.175299170744	23
3	5461	846.255344276437	24
3	5463	846.511779135316	25
3	5464	847.170180472961	24
3	5472	848.952993824516	23
3	5480	850.588170580796	22
3	5489	851.288399187202	23
3	5495	852.620394007859	22
3	5509	854.350332990649	23
3	5513	855.066818200131	24
3	5517	856.101580548378	23
3	5523	856.420466328046	24
3	5528	856.6422563296	25
3	5529	857.267954202088	24
3	5532	858.086472882841	23
3	5535	858.554401590254	22
3	5544	859.929279791657	23
3	5545	860.162880734213	22
3	5549	860.319241164561	23
3	5550	861.147768771321	22
3	5554	861.405047435545	23
3	5555	861.88055204558	22
3	5559	861.884117871284	23
3	5561	862.064269317785	24
3	5562	862.702925309351	23
3	5565	863.229083052695	22
3	5569	863.79643484804	23
3	5570	864.067596998017	22
3	5574	864.169308392681	23
3	5576	864.184882162392	24
3	5577	864.769314587719	23
3	5580	865.73280200958	22
3	5584	866.396412880428	23
3	5585	866.503507225492	22
3	5589	867.149045485286	23
3	5590	867.391556690258	22
3	5593	868.017500557096	21
3	5597	868.640677270321	22
3	5598	868.852113767385	21
3	5601	869.769826594691	20
3	5605	870.453675312282	21
3	5606	870.49734527352	20
3	5610	870.586654141509	21
3	5612	871.01019336158	22
3	5614	871.012041096355	23
3	5616	871.319780386294	24
3	5617	871.469588060535	23
3	5621	872.127671150587	24
3	5622	872.387429298039	23
3	5625	873.10354533931	22
3	5628	874.005913804003	21
3	5632	874.611858556289	22
3	5634	874.705658038816	23
3	5635	874.895073783907	22
3	5639	875.005566030305	23
3	5640	875.451364939098	22
3	5644	875.7299343245	23
3	5646	876.164118572664	24
3	5647	876.184941861263	23
3	5651	876.340170019944	24
3	5652	877.165682839599	23
3	5656	877.434471766977	24
3	5657	877.737362067491	23
3	5661	878.233433693177	24
3	5662	878.43468717476	23
3	5666	878.743992514636	24
3	5667	878.838613773413	23
3	5671	878.873459767111	24
3	5672	879.699684693241	23
3	5681	880.815121686254	24
3	5682	881.266039746018	23
3	5691	882.63441230497	24
3	5692	883.075982112341	23
3	5696	883.153143510395	24
3	5703	884.272128500061	25
3	5704	884.398764673011	24
3	5732	888.47855539326	23
3	5741	889.266808616106	24
3	5742	889.816683361907	23
3	5758	891.239328271034	24
3	5772	893.782173120738	23
3	5781	894.300644376668	24
3	5782	895.098954519392	23
3	5793	896.121960295063	24
3	5802	897.835042157345	23
3	5806	897.885932504494	24
3	5812	899.59709692257	23
3	5815	900.075566561376	22
3	5818	900.665221073008	21
3	5821	901.135875490955	20
3	5830	902.223620268414	21
3	5831	902.976166541823	20
3	5834	903.529254294694	19
3	5838	903.922517212511	20
3	5842	904.23304668285	21
3	5847	904.248933374823	22
3	5849	904.568055882091	23
3	5851	904.666935866097	24
3	5852	905.096786003787	23
3	5856	905.164783429156	24
3	5857	905.832893868577	23
3	5860	906.238639715029	22
3	5864	906.29127581477	23
3	5870	907.537715370994	22
3	5879	908.558256741519	23
3	5880	908.892412631068	22
3	5886	909.31678200909	23
3	5891	909.693444917706	24
3	5892	910.124259908025	23
3	5900	911.51368153495	22
3	5906	912.152813793568	23
3	5908	912.359771512576	24
3	5912	913.381471399537	23
3	5916	913.488450463886	24
3	5920	913.819637746239	25
3	5925	914.086062502617	26
3	5926	914.731114987929	25
3	5935	915.525967604224	26
3	5936	916.020930991314	25
3	5954	919.364282848678	24
3	5963	920.317328400324	25
3	5964	920.90420456174	24
3	5973	921.889893419669	25
3	5974	922.346455879735	24
3	5977	923.1247192786	23
3	5981	923.354035542832	24
3	5988	924.335819196104	25
3	5989	924.877607377145	24
3	5992	925.467796109795	23
3	5998	926.07956417685	24
3	6002	927.002321421999	23
3	6006	927.161486463397	24
3	6007	927.550861068993	23
3	6016	928.595900641194	24
3	6018	928.798241918022	25
3	6019	928.923336167439	24
3	6028	930.029087829469	25
3	6029	930.287226960567	24
3	6033	930.397975021439	25
3	6040	931.394602816975	26
3	6041	931.821153403252	25
3	6047	932.071152581915	26
3	6056	933.927542875932	25
3	6064	934.858670258747	24
3	6068	935.114767101447	25
3	6070	935.121863985592	26
3	6071	935.635543359296	25
3	6074	936.145081381492	24
3	6077	937.1173025323	23
3	6081	937.310018524422	24
3	6083	937.485063944137	25
3	6084	937.582073829176	24
3	6088	937.861320765466	25
3	6090	937.903884557009	26
3	6091	938.365170544518	25
3	6095	938.740499627969	26
3	6096	939.004038571233	25
3	6099	939.462556520609	24
3	6102	939.895221832014	23
3	6106	940.164368176131	24
3	6107	940.700120853857	23
3	6111	940.947103852931	24
3	6113	941.143230768719	25
3	6114	941.209826008268	24
3	6118	941.643616623598	25
3	6119	941.76199819482	24
3	6122	942.237766798717	23
3	6126	942.956615347835	24
3	6127	943.047363062148	23
3	6130	943.495051401799	22
3	6133	943.961651800798	21
3	6137	944.305088437464	22
3	6138	944.477948907569	21
3	6142	944.573538931749	22
3	6146	944.873365015987	23
3	6150	945.756903206084	22
3	6158	946.817503043443	21
3	6162	947.278230408872	22
3	6163	947.66778988586	21
3	6169	948.024646867108	22
3	6174	948.497708747253	23
3	6183	948.865232780528	24
3	6185	949.298864601314	25
3	6190	949.565040337262	26
3	6191	949.855782934876	25
3	6204	950.630922024611	26
3	6221	952.467953852104	27
3	6241	955.215786849395	28
3	6250	957.206166001727	27
3	6258	958.845339387182	26
3	6264	959.456587149823	27
3	6266	959.483254293119	28
3	6271	960.037496512401	29
3	6272	960.091325958718	28
3	6278	960.232309877875	29
3	6283	961.488382864542	30
3	6284	961.493524758232	29
3	6293	962.152479056831	30
3	6305	963.359460887898	31
3	6321	965.958719194861	30
3	6327	966.418893235329	31
3	6331	967.308208629856	30
3	6335	967.50737993522	31
3	6337	967.662695313693	32
3	6343	969.097067311308	31
3	6352	970.085148860559	32
3	6353	970.340968351341	31
3	6356	970.871054536798	30
3	6359	971.831056371187	29
3	6363	971.874825393082	30
3	6365	972.523272102244	31
3	6366	972.76497169239	30
3	6369	973.642639206439	29
3	6373	973.869120802985	30
3	6374	974.108338518018	29
3	6378	974.288137821887	30
3	6379	974.984392186716	29
3	6383	975.305125158342	30
3	6384	975.506897773078	29
3	6393	977.027745242151	30
3	6394	977.116364145695	29
3	6403	978.035764811	30
3	6404	978.422571350491	29
3	6412	979.823850095176	28
3	6420	980.96741948798	27
3	6424	981.508839956253	28
3	6426	981.829643465507	29
3	6427	981.849224145009	28
3	6431	982.775428203762	29
3	6432	982.77549611041	28
3	6436	982.966944567356	29
3	6437	983.463307063558	28
3	6440	984.034155987945	27
3	6443	984.990825168552	26
3	6447	985.710791404894	27
3	6448	985.905329289749	26
3	6451	986.865978911422	25
3	6455	986.975163067192	26
3	6456	987.410925104651	25
3	6459	988.290398113192	24
3	6462	989.061689982559	23
3	6465	989.490651226319	22
3	6468	990.318703727793	21
3	6477	991.328913187581	22
3	6478	991.865586003751	21
3	6486	993.156855425794	20
3	6502	995.344289314669	21
3	6511	996.568104181417	22
3	6518	997.64908198928	21
3	6526	997.742510062905	22
3	6530	998.440763073463	23
3	6535	998.979448664838	24
3	6545	1000.23499708017	25
3	6547	1000.282484097003	26
3	6549	1000.320021420368	27
3	6551	1000.345023054697	28
3	6556	1000.504334106185	29
3	6557	1000.802611139365	28
3	6565	1001.037070176597	29
3	6570	1002.04781908517	30
3	6572	1002.053094875875	31
3	6576	1003.263010571194	30
3	6582	1003.70854628445	31
3	6586	1004.347702823947	30
3	6594	1006.209686513893	29
3	6598	1006.560009791274	30
3	6599	1006.839979978274	29
3	6602	1007.55844144872	28
3	6606	1007.990999913138	29
3	6607	1008.478686058238	28
3	6610	1009.332524281457	27
3	6614	1009.416871349332	28
3	6616	1009.936287588047	29
3	6618	1010.020748484461	30
3	6620	1010.103516924269	31
3	6621	1010.128993411219	30
3	6625	1010.45829554718	31
3	6626	1010.566607907737	30
3	6629	1011.02053829217	29
3	6632	1011.662643591078	28
3	6636	1011.834883866723	29
3	6637	1012.524653996104	28
3	6641	1012.989852530705	29
3	6642	1013.094334285237	28
3	6646	1013.510881816073	29
3	6647	1014.071597011384	28
3	6651	1014.484056463719	29
3	6653	1014.570175774308	30
3	6654	1014.645801069538	29
3	6657	1015.075528584511	28
3	6661	1015.724420674231	29
3	6662	1015.966773129066	28
3	6666	1015.988234405159	29
3	6667	1016.842739867929	28
3	6671	1017.431113233251	29
3	6672	1017.758994186248	28
3	6675	1018.324331890975	27
3	6679	1018.330864571659	28
3	6681	1018.788971184384	29
3	6682	1019.065402189872	28
3	6685	1019.613528033902	27
3	6689	1019.72217311504	28
3	6691	1019.912505598501	29
3	6693	1020.165825421699	30
3	6699	1021.067565657103	29
3	6702	1021.54638452986	28
3	6708	1021.71471404164	29
3	6713	1022.410809884922	30
3	6714	1023.145221519654	29
3	6720	1023.509949131763	30
3	6724	1024.456570498177	29
3	6733	1025.160997641015	30
3	6735	1025.703112948921	31
3	6736	1025.746066527299	30
3	6744	1027.23240239769	29
3	6753	1028.063411255769	30
3	6755	1028.113419042209	31
3	6757	1028.136786871623	32
3	6758	1028.428002634502	31
3	6766	1029.966665498583	30
3	6775	1031.112108619521	31
3	6777	1031.29663286523	32
3	6778	1031.491116204342	31
3	6787	1032.152568974951	32
3	6788	1032.469432032198	31
3	6794	1032.750703751759	32
3	6798	1034.28276592218	31
3	6806	1035.560297459686	30
3	6812	1036.178232049648	31
3	6814	1036.326499659004	32
3	6818	1037.226376216622	31
3	6822	1037.346516204623	32
3	6824	1037.404767362393	33
3	6825	1037.686071167929	32
3	6829	1037.79522134501	33
3	6836	1039.085933157362	34
3	6837	1039.200336454712	33
3	6846	1040.111682084355	34
3	6847	1040.829231770566	33
3	6855	1042.038521681164	32
3	6864	1042.917375347016	33
3	6865	1043.394436245316	32
3	6874	1044.542094740706	33
3	6875	1044.635543208939	32
3	6878	1045.265790184072	31
3	6881	1045.897263232569	30
3	6885	1046.337730070768	31
3	6886	1046.838166944726	30
3	6890	1047.105838914863	31
3	6892	1047.124020707577	32
3	6893	1047.264976811546	31
3	6896	1048.181055279912	30
3	6899	1048.996491875497	29
3	6903	1049.66969534533	30
3	6905	1049.925962080776	31
3	6906	1049.992652195783	30
3	6909	1050.747297296857	29
3	6912	1051.286133215528	28
3	6916	1051.714091964924	29
3	6918	1051.724593096083	30
3	6922	1051.832366025903	31
3	6927	1052.079689522152	32
3	6928	1052.628161274919	31
3	6932	1052.699640497932	32
3	6938	1054.383111936457	31
3	6947	1055.141649637182	32
3	6948	1055.91505711125	31
3	6951	1056.407491312407	30
3	6954	1056.919434504954	29
3	6958	1057.226769572953	30
3	6959	1057.406726768518	29
3	6963	1057.599300877216	30
3	6964	1058.287849186825	29
3	6968	1058.488124632167	30
3	6969	1058.942812938894	29
3	6973	1059.215483098266	30
3	6974	1059.582949291448	29
3	6978	1060.408889241693	30
3	6979	1060.514996851235	29
3	6983	1060.759087803502	30
3	6984	1061.346339615294	29
3	6988	1061.517426166866	30
3	6989	1062.197989897476	29
3	6992	1062.957275873096	28
3	6995	1063.380402847053	27
3	6998	1064.250469220336	26
3	7002	1064.947687049215	27
3	7003	1065.090513962134	26
3	7007	1065.323454121961	27
3	7008	1065.582335952995	26
3	7012	1065.700972572954	27
3	7013	1066.114762131124	26
3	7017	1066.552769931564	27
3	7018	1066.764140110555	26
3	7021	1067.305893356073	25
3	7025	1067.422678459848	26
3	7027	1067.445482471302	27
3	7029	1067.552562826595	28
3	7031	1067.706980778631	29
3	7032	1067.961711883172	28
3	7036	1068.198379349129	29
3	7037	1068.655713116983	28
3	7041	1069.020948269652	29
3	7043	1069.204707754443	30
3	7044	1069.521344250767	29
3	7047	1070.151039503748	28
3	7050	1070.74553633919	27
3	7054	1070.888608769302	28
3	7055	1071.35606568926	27
3	7059	1071.710281364062	28
3	7060	1072.001418634085	27
3	7064	1072.048894391465	28
3	7065	1072.586733421078	27
3	7068	1073.174427412124	26
3	7071	1073.930327950604	25
3	7074	1074.477686537569	24
3	7078	1074.989741844893	25
3	7079	1075.220184520166	24
3	7088	1076.21131405969	25
3	7089	1076.405493490072	24
3	7093	1076.441718078694	25
3	7094	1077.353743368434	24
3	7098	1077.36159541733	25
3	7107	1078.239346392757	26
3	7119	1080.072279437396	27
3	7121	1080.078570120841	28
3	7125	1081.035916474509	27
3	7144	1083.746141250449	28
3	7145	1083.9895789288	27
3	7154	1085.210552191928	28
3	7155	1085.460435744423	27
3	7163	1086.976509048232	26
3	7172	1087.923495407631	27
3	7173	1088.070863180702	26
3	7191	1091.035665659421	25
3	7194	1091.711697912543	24
3	7198	1092.139492863924	25
3	7217	1094.824781902482	26
3	7226	1095.665433478764	27
3	7278	1104.537863360812	26
3	7284	1104.720868342384	27
3	7288	1105.784272697243	26
3	7292	1105.887981981294	27
3	7293	1106.704932877888	26
3	7297	1107.116577477909	27
3	7298	1107.703531090497	26
3	7302	1108.275667539902	27
3	7303	1108.366602488748	26
3	7306	1108.774121415337	25
3	7310	1109.429138243395	26
3	7311	1109.570661036206	25
3	7314	1110.554066410476	24
3	7318	1110.810591263946	25
3	7319	1111.273568586262	24
3	7322	1111.684468540272	23
3	7325	1112.334604311504	22
3	7328	1112.954986485795	21
3	7332	1113.480778203821	22
3	7336	1113.540405038424	23
3	7340	1114.45392554519	22
3	7353	1115.855218205276	23
3	7358	1116.135668726689	24
3	7360	1116.2838406914	25
3	7385	1119.885372839394	26
3	7386	1120.566409294262	25
3	7395	1121.404269168756	26
3	7396	1122.186239118037	25
3	7405	1123.320148224045	26
3	7407	1123.600307157993	27
3	7408	1123.670091987077	26
3	7411	1124.384447127955	25
3	7419	1124.889489254159	26
3	7424	1125.201971489918	27
3	7428	1126.643446264558	26
3	7432	1126.756095263115	27
3	7433	1127.306200830222	26
3	7436	1127.826920216114	25
3	7439	1128.388318504582	24
3	7443	1129.105477148009	25
3	7444	1129.148717320061	24
3	7448	1129.330902971422	25
3	7449	1129.695871683492	24
3	7453	1129.832400471145	25
3	7455	1130.372998062298	26
3	7456	1130.596930106313	25
3	7460	1130.651379427046	26
3	7461	1131.158003851122	25
3	7465	1131.504314543862	26
3	7472	1131.990902112698	27
3	7474	1132.232105502782	28
3	7475	1132.553890142965	27
3	7483	1133.569994439467	26
3	7489	1133.974398254427	27
3	7494	1135.091813116714	28
3	7495	1135.163325630597	27
3	7504	1135.885892651459	28
3	7505	1136.67462147116	27
3	7508	1137.251039624124	26
3	7512	1137.320299599435	27
3	7519	1138.085521760788	28
3	7520	1138.751597591959	27
3	7528	1140.237669527116	26
3	7542	1141.528337096441	27
3	7553	1143.377061103848	26
3	7569	1145.21227302512	27
3	7578	1146.991635060641	26
3	7586	1148.777946743234	25
3	7594	1149.649390053754	24
3	7602	1150.879029498859	23
3	7606	1151.057119930032	24
3	7613	1151.585356044764	25
3	7614	1152.144272417254	24
3	7617	1152.760418270673	23
3	7621	1152.955913517574	24
3	7622	1153.613552456075	23
3	7625	1154.175044792849	22
3	7629	1154.727944626818	23
3	7630	1155.151439533946	22
3	7634	1155.649780967924	23
3	7635	1156.101757241231	22
3	7639	1156.262536138194	23
3	7640	1156.953265641401	22
3	7649	1158.292564178863	23
3	7650	1158.757478922424	22
3	7654	1158.758453843607	23
3	7655	1159.467670120443	22
3	7659	1159.720102798544	23
3	7666	1160.818325279942	24
3	7667	1160.992479173518	23
3	7671	1161.618154044847	24
3	7673	1161.619809432891	25
3	7674	1161.66948685763	24
3	7682	1162.947085672203	23
3	7686	1163.348939154348	24
3	7687	1163.582041348243	23
3	7691	1163.810829878476	24
3	7692	1164.302307348564	23
3	7696	1164.571343952356	24
3	7697	1165.066250896599	23
3	7701	1165.434729116891	24
3	7702	1165.832866620511	23
3	7706	1165.976516913845	24
3	7707	1166.494298759761	23
3	7710	1167.441282798496	22
3	7714	1167.969859028102	23
3	7715	1168.133071764192	22
3	7719	1168.152357346315	23
3	7721	1168.511146262566	24
3	7723	1168.806443334544	25
3	7724	1168.855102565844	24
3	7728	1168.932633170878	25
3	7730	1168.97402639931	26
3	7732	1169.127221979902	27
3	7733	1169.80931762844	26
3	7737	1170.128291270503	27
3	7738	1170.300739819982	26
3	7741	1170.994515444531	25
3	7745	1171.101788199375	26
3	7747	1171.280057462004	27
3	7748	1171.829669973913	26
3	7751	1172.454948898645	25
3	7755	1172.594958751267	26
3	7756	1173.005586147921	25
3	7760	1173.065669568639	26
3	7761	1173.599772324607	25
3	7765	1173.729975976102	26
3	7766	1174.491580326537	25
3	7769	1174.948510059489	24
3	7778	1176.234565220437	25
3	7779	1176.285583029415	24
3	7783	1176.486869892177	25
3	7784	1176.7272357978	24
3	7788	1176.788185292772	25
3	7794	1178.461742423622	24
3	7800	1179.158421344142	25
3	7804	1179.816334152881	24
3	7810	1180.516380922472	25
3	7879	1190.803779395862	24
3	7887	1192.419060204324	23
3	7895	1194.254277081235	22
3	7903	1195.251887247065	21
3	7906	1195.856933528656	20
3	7909	1196.33252145113	19
3	7913	1196.433462310689	20
3	7915	1196.547307986753	21
3	7917	1196.693577098477	22
3	7918	1196.843874692363	21
3	7921	1197.461359489854	20
3	7925	1197.992042852874	21
3	7927	1198.039435245986	22
3	7928	1198.149800657346	21
3	7932	1198.301890839935	22
3	7933	1199.016712002368	21
3	7937	1199.786335290713	22
3	7938	1199.839007009617	21
3	7941	1200.829046252607	20
3	7944	1201.472559292432	19
3	7948	1201.600302408796	20
3	7950	1201.803798224873	21
3	7952	1201.986195564833	22
3	7953	1202.285273305051	21
3	7957	1202.624141245077	22
3	7958	1203.033076998968	21
3	7961	1203.986303708613	20
3	7964	1204.50333473259	19
3	7967	1205.389765602121	18
3	7971	1205.805933152339	19
3	7972	1206.257226954637	18
3	7975	1206.860926394587	17
3	7978	1207.268443057084	16
3	7982	1207.381212111038	17
3	7984	1207.4755185567	18
3	7985	1208.092591213718	17
3	7988	1208.707005148711	16
3	7991	1209.186500462428	15
3	7995	1209.268315172026	16
3	7997	1209.285871863087	17
3	7999	1209.456167600438	18
3	8000	1209.86083041388	17
3	8004	1210.724092152035	18
3	8005	1210.737840447113	17
3	8009	1211.091031849123	18
3	8010	1211.176703419866	17
3	8014	1211.266564679994	18
3	8015	1211.605867467964	17
3	8019	1212.176637261046	18
3	8020	1212.275133580765	17
3	8024	1212.424353503807	18
3	8026	1212.534354675546	19
3	8027	1212.685355774643	18
3	8031	1212.715798938902	19
3	8032	1213.460987560595	18
3	8035	1213.946002333802	17
3	8039	1213.981880476384	18
3	8041	1214.201789213262	19
3	8042	1214.687578495922	18
3	8045	1215.66312909597	17
3	8048	1216.492582690394	16
3	8052	1216.901666943846	17
3	8054	1216.977576279341	18
3	8056	1217.256670455783	19
3	8057	1217.475179009283	18
3	8061	1217.975457095544	19
3	8062	1218.09125269689	18
3	8066	1218.276063882882	19
3	8067	1218.507280381307	18
3	8076	1219.391546073724	19
3	8077	1219.825528596112	18
3	8085	1221.355816631488	17
3	8093	1223.04626866449	16
3	8097	1223.45709983439	17
3	8098	1223.586011107921	16
3	8102	1224.176670580913	17
3	8103	1224.281794082889	16
3	8106	1224.686644649323	15
3	8109	1225.100991772352	14
3	8112	1225.800123497708	13
3	8116	1226.031553340375	14
3	8118	1226.275269871896	15
3	8119	1226.38929256597	14
3	8123	1226.408082836809	15
3	8125	1227.042699345594	16
3	8126	1227.344394513689	15
3	8129	1228.059742816774	14
3	8133	1228.188753090742	15
3	8134	1228.558300785538	14
3	8138	1229.077289599431	15
3	8140	1229.227442193867	16
3	8141	1229.474534823703	15
3	8144	1230.285083389659	14
3	8148	1230.791445798625	15
3	8149	1231.187875165608	14
3	8153	1231.6286211529	15
3	8154	1231.642859188797	14
3	8157	1232.316557172131	13
3	8161	1233.033067142677	14
3	8163	1233.070171329768	15
3	8164	1233.146371019216	14
3	8168	1233.301459159117	15
3	8170	1233.405163589246	16
3	8171	1233.666664324891	15
3	8175	1234.487158575069	16
3	8176	1234.50210978608	15
3	8182	1235.143684866231	16
3	8187	1235.940849405148	17
3	8188	1236.070891808722	16
3	8196	1237.35297074607	15
3	8204	1237.866992999822	16
3	8212	1238.745810236897	17
3	8214	1238.760855141383	18
3	8216	1238.80384417676	19
3	8218	1238.826624451729	20
3	8219	1239.374372652642	19
3	8227	1240.601296585057	18
3	8236	1241.712400437593	19
3	8237	1242.204292269799	18
3	8240	1242.731876751504	17
3	8244	1242.872240907639	18
3	8245	1243.305483603387	17
3	8248	1244.138987973242	16
3	8251	1244.791931438542	15
3	8255	1245.064105709473	16
3	8256	1245.76059805332	15
3	8259	1246.278261978182	14
3	8263	1246.384930780243	15
3	8265	1247.139004842606	16
3	8266	1247.154547010737	15
3	8270	1247.578239142057	16
3	8271	1247.761008695841	15
3	8274	1248.162470356703	14
3	8278	1248.375102984864	15
3	8279	1248.631313653805	14
3	8282	1249.118739949868	13
3	8286	1249.201185954411	14
3	8288	1249.522857385942	15
3	8289	1250.06311238874	14
3	8293	1250.131167633607	15
3	8294	1250.69310212089	14
3	8298	1250.71386072815	15
3	8300	1251.29925592433	16
3	8301	1251.440713425402	15
3	8305	1251.895251769855	16
3	8306	1252.337728243789	15
3	8310	1252.540804399627	16
3	8311	1253.198365245901	15
3	8314	1253.838544081014	14
3	8320	1254.20982401431	15
3	8322	1254.479570197633	16
3	8326	1255.35433232859	15
3	8330	1255.473491439943	16
3	8331	1256.125186494554	15
3	8335	1256.146163531935	16
3	8336	1257.028533681531	15
3	8339	1257.479477116934	14
3	8343	1257.952580690067	15
3	8345	1257.965089258305	16
3	8346	1258.337814093943	15
3	8350	1258.36924281178	16
3	8352	1258.664648242344	17
3	8353	1259.193810059459	16
3	8356	1259.963146744578	15
3	8360	1260.394653944527	16
3	8364	1260.540281202665	17
3	8369	1261.179050199673	18
3	8370	1261.60999842943	17
3	8378	1263.075199000587	16
3	8381	1263.65118441922	15
3	8384	1264.494602554481	14
3	8393	1265.834343292616	15
3	8394	1266.197851891586	14
3	8398	1266.260571704171	15
3	8402	1266.623827506434	16
3	8407	1267.105115501294	17
3	8408	1267.514376377923	16
3	8414	1268.129063828538	17
3	8419	1268.630821015151	18
3	8420	1269.264111755605	17
3	8429	1269.918334411939	18
3	8430	1270.368869935864	17
3	8434	1270.446928582666	18
3	8435	1271.177622490473	17
3	8443	1272.189187302723	16
3	8447	1272.31953705224	17
3	8448	1272.614956837058	16
3	8456	1273.486432242164	15
3	8459	1274.132796495737	14
3	8463	1274.300414725598	15
3	8465	1274.97067076934	16
3	8466	1275.101313830077	15
3	8470	1275.6122860774	16
3	8471	1275.740951707357	15
3	8475	1276.081083452331	16
3	8476	1276.595937430722	15
3	8480	1276.982957065175	16
3	8481	1277.376305572412	15
3	8484	1277.882499427444	14
3	8487	1278.526784508585	13
3	8491	1278.668106291317	14
3	8492	1279.269495917068	13
3	8496	1279.723828539858	14
3	8497	1279.991986840221	13
3	8500	1280.528575994496	12
3	8504	1280.625435667468	13
3	8505	1281.151432381992	12
3	8509	1281.390507969269	13
3	8510	1281.793745859156	12
3	8513	1282.620702154797	11
3	8517	1282.903421089064	12
3	8518	1283.066401271012	11
3	8521	1284.039144892108	10
3	8525	1284.209094835942	11
3	8526	1285.038885457117	10
3	8530	1285.231290188661	11
3	8532	1285.640458820844	12
3	8533	1285.720314339643	11
3	8537	1285.893580631735	12
3	8538	1286.27675056169	11
3	8541	1286.817985873904	10
3	8544	1287.352646218568	9
3	8548	1288.147962026119	10
3	8549	1288.267632696779	9
3	8553	1288.84097224791	10
3	8554	1289.150143679466	9
3	8558	1289.699995524603	10
3	8560	1289.866492861091	11
3	8561	1289.884026513716	10
3	8564	1290.379553610461	9
3	8568	1290.513617234729	10
3	8569	1291.283213986412	9
3	8572	1291.727934726795	8
3	8576	1291.94671035907	9
3	8577	1292.189328620864	8
3	8581	1292.466280697944	9
3	8583	1292.466397718429	10
3	8585	1292.787238584433	11
3	8586	1292.801688479401	10
3	8590	1293.273847917286	11
3	8591	1293.484793820793	10
3	8595	1293.706339017577	11
3	8597	1293.873005667073	12
3	8598	1293.908561469151	11
3	8602	1294.074917567329	12
3	8604	1294.204824712979	13
3	8605	1294.541498913665	12
3	8608	1295.05836882978	11
3	8612	1295.857720614404	12
3	8613	1296.006527582186	11
3	8616	1296.963619597678	10
3	8620	1297.019207548556	11
3	8621	1297.955897491801	10
3	8624	1298.939860364332	9
3	8627	1299.366791589654	8
3	8630	1300.335549761078	7
3	8633	1301.300907353594	6
3	8636	1302.069072605439	5
3	8640	1302.263793381049	6
3	8642	1302.764061028288	7
3	8643	1302.822735937967	6
3	8647	1302.82877846266	7
3	8649	1303.440565409339	8
3	8650	1303.645133231397	7
3	8654	1304.114757093112	8
3	8655	1304.287077335551	7
3	8659	1304.37574757848	8
3	8660	1305.256385128622	7
3	8664	1305.95394981354	8
3	8665	1306.248871741074	7
3	8669	1306.573127230947	8
3	8671	1306.661352433417	9
3	8672	1307.0670966364	8
3	8675	1307.537732816723	7
3	8678	1308.011943666966	6
3	8682	1308.272340998893	7
3	8684	1308.475138086544	8
3	8686	1308.738449915942	9
3	8687	1308.980978227596	8
3	8690	1309.56212491263	7
3	8693	1310.029968218508	6
3	8697	1310.332905473638	7
3	8698	1310.8963902202	6
3	8701	1311.58001166764	5
3	8704	1312.362105536464	4
3	8708	1312.610402316516	5
3	8709	1313.083959769414	4
3	8713	1313.140171063035	5
3	8715	1313.213927733648	6
3	8716	1313.503574396952	5
3	8720	1313.552109783394	6
3	8721	1314.218778055909	5
3	8725	1314.222644727459	6
3	8726	1315.018159667219	5
3	8730	1315.234013428194	6
3	8731	1315.903072452408	5
3	8735	1315.97083505931	6
3	8736	1316.551333658074	5
3	8739	1317.378515271286	4
3	8742	1317.985243088661	3
3	8745	1318.813803644248	2
3	8748	1319.609477241433	1
3	8752	1319.702717665895	2
3	8753	1320.304716957736	1
3	8757	1320.754104861215	2
3	8758	1320.979731446927	1
3	8762	1321.466633804395	2
3	8763	1321.972154022617	1
3	8766	1322.493752179811	0
3	8770	1322.577854636888	1
3	8771	1323.064407355529	0
3	8780	1325.502551525794	1
3	8781	1325.615294129839	0
3	8785	1326.089688344987	1
3	8792	1326.490416162118	2
3	8793	1327.019661365002	1
3	8799	1327.32597484391	2
3	8801	1327.473095118684	3
3	8803	1327.898241509627	4
3	8808	1327.998092976559	5
3	8810	1328.078945508772	6
3	8811	1328.945013405075	5
3	8822	1330.297507594653	6
3	8831	1332.113961827727	5
3	8850	1334.697546218395	6
3	8851	1335.2778869142	5
3	8862	1335.962735545329	6
3	8866	1337.217021474353	5
3	8875	1338.38314754415	6
3	8876	1338.837625339365	5
3	8879	1339.261630547483	4
3	8882	1340.103892747609	3
3	8888	1340.640786789191	4
3	8892	1341.420446049113	3
3	8896	1341.784177603761	4
3	8897	1342.180666140204	3
3	8900	1342.676677808461	2
3	8904	1342.947516503399	3
3	8905	1343.556769696779	2
3	8909	1343.845557388158	3
3	8910	1344.044438660673	2
3	8913	1344.497818493766	1
3	8917	1344.622211385705	2
3	8919	1344.627298414323	3
3	8920	1345.190161125238	2
3	8924	1345.29705780941	3
3	8925	1346.130860546247	2
3	8928	1347.00059914842	1
3	8931	1347.623282926266	0
3	8935	1348.062808908124	1
3	8936	1348.14705343248	0
3	8945	1349.783435272084	1
3	8946	1350.529051417977	0
3	8955	1351.461675956178	1
3	8956	1352.344838959174	0
3	8960	1353.241374536813	1
3	8961	1353.320641467124	0
3	8965	1353.690261236662	1
3	8967	1353.822530679448	2
3	8968	1354.108357393285	1
3	8972	1354.243174608523	2
3	8973	1354.713500518128	1
3	8977	1355.320878453476	2
3	8978	1355.613016853071	1
3	8981	1356.127139529175	0
3	8990	1358.082814810217	1
3	8991	1358.637303841077	0
3	8995	1358.891958642638	1
3	8996	1359.483960971572	0
3	9000	1359.619219993773	1
3	9001	1360.391727066609	0
3	9005	1361.063865618778	1
3	9011	1362.163065894471	0
3	9015	1362.330637758533	1
3	9021	1364.10935551013	0
3	9030	1365.470094376976	1
3	9031	1365.639390445139	0
3	9035	1365.994863315394	1
3	9041	1367.134045960998	0
3	9050	1367.940897188567	1
3	9051	1368.232697211077	0
3	9065	1369.811059401174	1
3	9071	1371.144537742074	0
3	9085	1373.008930056579	1
3	9091	1374.273878918785	0
3	9110	1376.347077121064	1
3	9116	1377.279591456906	0
3	9150	1387.012520594996	1
3	9151	1387.5955522661	0
3	9155	1387.716487617339	1
3	9156	1388.313861978137	0
3	9160	1388.898813421988	1
3	9161	1389.044539668447	0
3	9175	1392.14522510978	1
3	9176	1392.478465844054	0
3	9190	1394.918888497713	1
3	9191	1395.114141306798	0
3	9195	1395.165962265648	1
3	9196	1395.934447160042	0
3	9200	1396.629989309539	1
3	9201	1396.896485830429	0
3	9220	1400.591965945443	1
3	9221	1401.035064392364	0
3	9225	1401.101221825989	1
3	9226	1401.825236786683	0
3	9230	1402.217041606241	1
3	9237	1402.956930850074	2
3	9238	1403.341559494859	1
3	9247	1404.377171475481	2
3	9248	1404.658523526103	1
3	9251	1405.223326991093	0
3	9255	1405.386000349486	1
3	9256	1406.170955611593	0
3	9285	1414.17899191306	1
3	9286	1414.551885372376	0
3	9320	1421.524542418311	1
3	9321	1421.807164691715	0
3	9325	1422.523474080749	1
3	9326	1422.78022933146	0
3	9330	1423.121282922015	1
3	9331	1423.670600992581	0
3	9345	1427.695717396071	1
3	9346	1428.026028678637	0
3	9350	1428.443357119762	1
3	9357	1429.575635544317	2
3	9358	1429.837666042639	1
3	9366	1431.15874839977	0
3	9370	1431.318166867914	1
3	9377	1432.167299293868	2
3	9378	1432.968056735468	1
3	9384	1433.726800946081	2
3	9389	1434.405356941639	3
3	9390	1434.614924366192	2
3	9399	1435.606944973311	3
3	9400	1435.916997242372	2
3	9403	1436.506833746496	1
3	9407	1436.91735481398	2
3	9408	1437.124868587104	1
3	9411	1438.095950996855	0
3	9425	1440.4417742953	1
3	9426	1441.275838265193	0
3	9440	1443.549358360819	1
3	9441	1443.659264305892	0
3	9457	1445.350543712201	1
3	9461	1446.653553755614	0
3	9465	1446.762061676941	1
3	9471	1448.59854810013	0
3	9475	1448.6696404977	1
3	9482	1449.808511838266	2
3	9483	1450.13107741674	1
3	9491	1451.37153628267	0
3	9545	1463.947537863642	1
3	9546	1464.054306821533	0
3	9550	1464.295821978232	1
3	9551	1464.831563147724	0
3	9560	1465.874587557218	1
3	9561	1466.240002074787	0
3	9565	1466.759748541075	1
3	9567	1466.990182015572	2
3	9568	1467.228340870324	1
3	9572	1467.311041293782	2
3	9573	1467.970907037468	1
3	9576	1468.617671672344	0
3	9580	1468.701298475312	1
3	9581	1469.185245398102	0
3	9585	1469.538254142738	1
3	9586	1469.802840753873	0
3	9620	1481.200354747394	1
3	9649	1485.267571203917	2
3	9653	1486.531069040556	1
3	9656	1487.171855985398	0
3	9662	1487.549978802896	1
3	9667	1488.002059538509	2
3	9669	1488.316858782891	3
3	9670	1488.595095628199	2
3	9673	1489.110554760766	1
3	9679	1489.594877251941	2
3	9683	1490.469371991118	1
3	9691	1492.126602526221	0
3	9697	1492.28327556507	1
3	9704	1492.992539430137	2
3	9716	1495.109686768536	3
3	9730	1497.074748668939	2
3	9739	1497.962117218101	3
3	9740	1498.916909095438	2
3	9749	1499.892798503178	3
3	9750	1499.928560895917	2
3	9761	1501.487124555375	3
3	9808	1508.07083453592	4
3	9812	1508.517707156742	3
3	9815	1508.933759765726	2
3	9821	1508.975914275075	3
3	9826	1509.767940255969	4
3	9827	1510.299938486217	3
3	9830	1511.195952411488	2
3	9834	1511.230169641958	3
3	9835	1511.932409604246	2
3	9839	1512.053836938017	3
3	9840	1512.759702946412	2
3	9844	1513.13290721647	3
3	9845	1513.654207941078	2
3	9849	1513.9285654679	3
3	9850	1514.378266874541	2
3	9853	1515.250196390253	1
3	9857	1516.041529862081	2
3	9858	1516.192000618324	1
3	9862	1516.540374355127	2
3	9863	1516.629170738327	1
3	9866	1517.179427700656	0
3	9880	1520.257744010243	1
3	9887	1520.841948703555	2
3	9888	1521.522523902523	1
3	9892	1521.930389307261	2
3	9894	1522.018540556871	3
3	9895	1522.10183710114	2
3	9899	1522.662307772234	3
3	9900	1522.998594044129	2
3	9904	1523.386919879229	3
3	9905	1523.844339682049	2
3	9909	1524.265386623479	3
3	9910	1524.564890302465	2
3	9914	1524.722419145028	3
3	9915	1525.40428800213	2
3	9918	1525.955176309104	1
3	9922	1526.245658819246	2
3	9923	1526.370635474174	1
3	9926	1527.198223403635	0
3	9930	1527.418330608231	1
3	9932	1527.484800901399	2
3	9933	1528.188641157168	1
3	9936	1528.624430917277	0
3	9945	1531.046298905179	1
3	9946	1531.455498651072	0
3	9955	1532.626103467143	1
3	9957	1532.760038017696	2
3	9958	1532.881408590892	1
3	9962	1533.138556427635	2
3	9964	1533.62989740649	3
3	9965	1533.782803797325	2
3	9968	1534.323967000306	1
3	9972	1534.922508062	2
3	9978	1535.633975746459	1
3	9982	1535.670668986542	2
3	9983	1536.307919904752	1
3	9992	1536.945426848231	2
3	9993	1537.289910749416	1
3	9996	1537.869921832415	0
3	10005	1539.417016389106	1
3	10006	1539.699377844567	0
3	10010	1540.342309786868	1
3	10011	1540.451883974197	0
3	10015	1541.105439059871	1
3	10016	1541.41889627887	0
3	10020	1541.454941913253	1
3	10022	1542.001682502627	2
3	10023	1542.098545583469	1
3	10026	1542.980122756344	0
3	10030	1543.646816341256	1
3	10031	1543.795102850432	0
3	10040	1544.915075048758	1
3	10041	1545.43240268633	0
3	10045	1545.991969388919	1
3	10046	1546.322895041408	0
3	10050	1547.00797832454	1
3	10052	1547.014169796027	2
3	10053	1547.043270996792	1
3	10056	1547.580835693676	0
3	10060	1547.850239045868	1
3	10061	1547.993477673011	0
3	10065	1548.21414378443	1
3	10067	1548.21800524156	2
3	10068	1548.815628780305	1
3	10071	1549.766179977238	0
3	10075	1549.970559300908	1
3	10077	1550.266868618937	2
3	10078	1550.509609814148	1
3	10082	1550.558692742884	2
3	10083	1551.284864352291	1
3	10086	1551.848554813696	0
3	10092	1552.398804778902	1
3	10097	1552.538204748273	2
3	10098	1553.13409183861	1
3	10107	1554.277688698307	2
3	10108	1554.574096029413	1
3	10111	1555.177482378597	0
3	10115	1555.246701040092	1
3	10117	1555.313864691044	2
3	10118	1556.159396120275	1
3	10122	1556.251119173721	2
3	10123	1556.81867035825	1
3	10126	1557.696660906097	0
3	10130	1558.022435064513	1
3	10131	1558.568655938955	0
3	10135	1558.805291101869	1
3	10136	1559.228860022521	0
3	10140	1559.235376366689	1
3	10142	1559.484049873826	2
3	10143	1560.000229954647	1
3	10147	1560.015383057158	2
3	10148	1560.916446020335	1
3	10152	1561.415077744585	2
3	10153	1561.659271241093	1
3	10157	1561.955597095401	2
3	10158	1562.121063475331	1
3	10162	1562.684803563502	2
3	10164	1562.829366580086	3
3	10165	1563.030508165361	2
3	10168	1563.690707920652	1
3	10172	1563.952458517592	2
3	10173	1564.605369906893	1
3	10177	1564.850160986204	2
3	10178	1565.038884771682	1
3	10181	1565.678129545387	0
3	10185	1565.843102707719	1
3	10187	1566.159239881843	2
3	10188	1566.414454099277	1
3	10197	1567.472667807764	2
3	10198	1567.955784048208	1
3	10202	1567.982742934851	2
3	10209	1568.642281277608	3
3	10210	1569.521188815146	2
3	10221	1570.466851492199	3
3	10226	1570.854709639165	4
3	10232	1572.157676888418	3
3	10240	1573.354512925234	2
3	10248	1574.834820707023	1
3	10252	1575.184489743696	2
3	10253	1575.597491168996	1
3	10257	1575.904437064388	2
3	10261	1576.250333678238	3
3	10263	1576.385190986034	4
3	10268	1576.988200768265	5
3	10269	1577.1978260542	4
3	10277	1578.780038708189	3
3	10281	1578.91200513081	4
3	10282	1579.735568107545	3
3	10290	1581.24758852997	2
3	10294	1581.775280971319	3
3	10301	1582.567262245083	4
3	10302	1583.101215809883	3
3	10310	1584.248870712445	2
3	10316	1584.762197471462	3
3	10318	1584.856392605044	4
3	10323	1585.708858700587	5
3	10324	1585.878892063928	4
3	10333	1587.186949274569	5
3	10334	1587.46216450913	4
3	10338	1587.556279560585	5
3	10364	1591.088085251881	4
3	10373	1591.559403820389	5
3	10374	1592.079948443614	4
3	10383	1593.043550468487	5
3	10384	1593.546166575022	4
3	10392	1594.973571218477	3
3	10396	1595.036601178062	4
3	10403	1596.303944019758	5
3	10404	1596.362866926585	4
3	10410	1596.456926107691	5
3	10415	1597.646565127627	6
3	10416	1598.15129832753	5
3	10425	1599.557390423173	6
3	10427	1599.603953550184	7
3	10428	1599.82912663349	6
3	10437	1601.018786493608	7
3	10438	1601.339088367596	6
3	10444	1601.583960907365	7
3	10449	1602.140362925205	8
3	10450	1602.558744219756	7
3	10458	1604.177672551685	6
3	10464	1604.494343488082	7
3	10468	1605.113301311127	6
3	10472	1605.500896346723	7
3	10473	1606.031973252372	6
3	10476	1606.570168030468	5
3	10479	1607.214898948531	4
3	10482	1607.840293833121	3
3	10485	1608.698479902904	2
3	10489	1609.456369914224	3
3	10490	1609.531589894995	2
3	10494	1609.759090679441	3
3	10495	1610.084763260486	2
3	10498	1610.567390205639	1
3	10501	1611.522539922663	0
3	10505	1611.726181340241	1
3	10506	1611.977515678222	0
3	10510	1612.347306105187	1
3	10512	1612.544348286229	2
3	10514	1612.686888218672	3
3	10515	1612.706488523374	2
3	10521	1613.235463991464	3
3	10525	1614.126572866759	2
3	10531	1614.503096479548	3
3	10536	1615.160554814995	4
3	10537	1615.191229901065	3
3	10545	1616.53095415232	2
3	10549	1617.391515213794	3
3	10550	1617.439144272192	2
3	10553	1617.905144027222	1
3	10562	1618.771797807874	2
3	10564	1618.899779721049	3
3	10568	1619.156325516668	4
3	10570	1619.344136006294	5
3	10579	1621.002016527227	4
3	10588	1622.067768175433	5
3	10589	1622.150081697826	4
3	10592	1622.644150508263	3
3	10596	1623.036707453834	4
3	10603	1623.828098213825	5
3	10604	1623.969452732729	4
3	10613	1624.647668561918	5
3	10614	1625.110313889032	4
3	10623	1626.112899170475	5
3	10624	1626.640604937842	4
3	10627	1627.357132532235	3
3	10635	1628.432369580792	2
3	10638	1628.954970366714	1
3	10642	1628.987565086768	2
3	10649	1630.200571931926	3
3	10651	1630.292772529249	4
3	10652	1630.298783922076	3
3	10658	1630.418087489542	4
3	10663	1631.148679273488	5
3	10664	1631.530516396018	4
3	10667	1632.172588226127	3
3	10670	1632.987915543488	2
3	10673	1633.666114460465	1
3	10676	1634.43563247828	0
3	10680	1634.474945337724	1
3	10681	1635.152997633509	0
3	10685	1635.686460557266	1
3	10686	1636.041733439659	0
3	10690	1636.409834002788	1
3	10691	1636.715211998877	0
3	10700	1638.185032701199	1
3	10701	1638.691535835032	0
3	10715	1642.541437078175	1
3	10716	1642.766956121879	0
3	10720	1642.846347424704	1
3	10721	1643.564136660084	0
3	10730	1646.75396668192	1
3	10732	1646.760117678914	2
3	10736	1646.958297320226	3
3	10740	1647.688352275413	2
3	10749	1648.698759823308	3
3	10750	1648.842526133458	2
3	10758	1650.116785704398	1
3	10762	1650.197450292193	2
3	10769	1651.093743369208	3
3	10771	1651.45872398096	4
3	10772	1651.798552403047	3
3	10781	1652.433546568803	4
3	10782	1653.021637159499	3
3	10791	1654.261346665234	4
3	10792	1654.325107671932	3
3	10803	1655.48874914616	4
3	10820	1657.872782661966	5
3	10824	1659.091502808971	4
3	10833	1659.9730396026	5
3	10834	1660.760733408207	4
3	10843	1661.782461904844	5
3	10844	1661.885143505695	4
3	10847	1662.420267999924	3
3	10851	1662.660337534903	4
3	10852	1663.399365992245	3
3	10860	1664.768652397074	2
3	10869	1665.915444556732	3
3	10870	1666.246151299734	2
3	10873	1667.197066694411	1
3	10877	1667.559128281679	2
3	10878	1667.780879396579	1
3	10881	1668.358078028361	0
3	10895	1670.179342696735	1
3	10896	1670.702282140602	0
3	10905	1672.215548867225	1
3	10906	1672.450376150979	0
3	10910	1672.67260757879	1
3	10911	1673.012470218016	0
3	10915	1673.173784481351	1
3	10916	1673.528078101704	0
3	10920	1673.566889242688	1
3	10921	1674.071137093229	0
3	10935	1678.557068829245	1
3	10936	1678.587022607634	0
3	10940	1679.330872026114	1
3	10941	1679.400769330096	0
3	10945	1680.215988014912	1
3	10946	1680.220324094268	0
3	10954	1680.987366844645	1
3	10959	1681.288803334273	2
3	10968	1683.21060004118	1
3	10971	1683.899112410006	0
3	10980	1684.917422445973	1
3	10981	1685.027900623764	0
3	10987	1685.307704450664	1
3	10992	1685.936929210176	2
3	10993	1686.295896072966	1
3	11006	1687.857365565655	0
3	11015	1688.776927207464	1
3	11016	1689.510964921444	0
3	11035	1692.009474405281	1
3	11036	1692.02026223167	0
3	11042	1692.568222353684	1
3	11047	1693.331617667647	2
3	11048	1693.718764723643	1
3	11051	1694.631320928262	0
3	11057	1695.074533719215	1
3	11062	1695.696506460009	2
3	11063	1696.291215386559	1
3	11072	1696.73559038878	2
3	11073	1697.367447088325	1
3	11081	1698.657843906191	0
3	11095	1700.297909160161	1
3	11096	1700.964302581929	0
3	11105	1701.591827184036	1
3	11106	1702.28470997108	0
3	11122	1703.790423605678	1
3	11126	1704.899841260871	0
3	11137	1705.8215129224	1
3	11142	1706.400748703787	2
3	11143	1706.694394244687	1
3	11156	1707.975294673231	2
3	11165	1708.867133525262	3
3	11195	1714.188961899807	2
3	11204	1715.181168608084	3
3	11220	1718.041342396582	2
3	11223	1718.830298445574	1
3	11226	1719.739494594154	0
3	11235	1721.115577631171	1
3	11236	1721.472073959061	0
3	11250	1722.885209626366	1
3	11251	1723.344222866039	0
3	11260	1725.91824845714	1
3	11261	1726.189644200017	0
3	11265	1726.299389552422	1
3	11266	1727.12559002008	0
3	11270	1727.505282421612	1
3	11271	1727.669907117669	0
3	11280	1728.539040468648	1
3	11281	1729.274941120661	0
3	11285	1729.700174107068	1
3	11286	1729.786151732077	0
3	11290	1730.065354090681	1
3	11291	1730.487959617647	0
3	11295	1730.53289900225	1
3	11296	1731.291623732998	0
3	11300	1731.639949445859	1
3	11302	1732.10875453491	2
3	11303	1732.234365473167	1
3	11306	1732.694827104445	0
3	11310	1733.129669260908	1
3	11311	1733.395104089884	0
3	11325	1735.88881104061	1
3	11326	1736.350979773493	0
3	11330	1736.533189133804	1
3	11331	1737.212573148801	0
3	11340	1739.136476881247	1
3	11342	1739.355896393222	2
3	11343	1739.531020020088	1
3	11347	1739.814683057041	2
3	11348	1740.416485766973	1
3	11352	1740.566761279126	2
3	11353	1741.01806746223	1
3	11357	1741.076427704439	2
3	11359	1741.417360593641	3
3	11360	1742.005582980113	2
3	11363	1742.701434528688	1
3	11366	1743.629003481986	0
3	11375	1745.066056081266	1
3	11376	1745.588647836964	0
3	11385	1746.693255660049	1
3	11386	1747.081251025606	0
3	11407	1750.842753608596	1
3	11421	1752.864548605198	0
3	11445	1759.322813324611	1
3	11446	1759.551280991187	0
3	11450	1759.6374916649	1
3	11457	1760.08077726441	2
3	11459	1760.586380141217	3
3	11460	1760.781503283804	2
3	11469	1761.640893642715	3
3	11470	1762.441512315035	2
3	11479	1763.189056113927	3
3	11480	1763.482709418949	2
3	11489	1764.651423843668	3
3	11490	1765.007555917897	2
3	11494	1765.095317987947	3
3	11495	1765.581906058932	2
3	11498	1766.412856387174	1
3	11502	1766.795296954226	2
3	11503	1767.311944231823	1
3	11506	1768.254931517471	0
3	11520	1769.643615808292	1
3	11522	1769.796590663891	2
3	11523	1769.918069034794	1
3	11526	1770.320926342046	0
3	11530	1770.38982650304	1
3	11532	1770.457407277058	2
3	11534	1770.916422368724	3
3	11535	1770.99658294509	2
3	11539	1771.138794628307	3
3	11540	1771.844362281103	2
3	11543	1772.406179904452	1
3	11547	1772.535695465374	2
3	11549	1772.848275223639	3
3	11550	1773.313092116991	2
3	11559	1774.613261003667	3
3	11560	1775.168475459263	2
3	11568	1776.654849484776	1
3	11577	1777.462423518534	2
3	11578	1778.147293765451	1
3	11581	1778.759196224929	0
3	11605	1782.493894032648	1
3	11606	1782.729489483625	0
3	11625	1787.112213961543	1
3	11626	1787.217835813131	0
3	11630	1787.27710215803	1
3	11632	1787.299283877676	2
3	11639	1788.50759570025	3
3	11640	1788.739034612173	2
3	11646	1789.404971323935	3
3	11658	1790.766436231269	4
3	11660	1791.106159966783	5
3	11674	1792.730333678864	4
3	11683	1793.975480128784	5
3	11684	1794.385248290768	4
3	11692	1795.99974815773	3
3	11696	1796.279178025439	4
3	11697	1796.73213467572	3
3	11701	1796.971169865843	4
3	11702	1797.203406050355	3
3	11705	1797.916526911287	2
3	11708	1798.67950732668	1
3	11712	1799.178866455579	2
3	11713	1799.262209594455	1
3	11717	1799.736437296648	2
3	11718	1799.984175074539	1
3	11722	1800.089949580804	2
3	11723	1800.388956748155	1
3	11726	1801.00865276686	0
3	11730	1801.374746936948	1
3	11731	1801.590659219605	0
3	11750	1804.627464758422	1
3	11751	1804.99575467817	0
3	11825	1817.960581687225	1
3	11826	1818.307631292939	0
3	11835	1819.141238924352	1
3	11836	1819.921155914012	0
3	11842	1820.232648602192	1
3	11846	1821.249487329227	0
3	11855	1822.563542416347	1
3	11856	1822.932348788109	0
3	11870	1824.520532799907	1
3	11872	1824.611465688495	2
3	11873	1824.881559341043	1
3	11881	1826.543756158944	0
3	11890	1827.378732110085	1
3	11892	1827.394665280388	2
3	11893	1828.171919073643	1
3	11897	1828.907931726641	2
3	11898	1829.028953126272	1
3	11902	1829.169425900701	2
3	11909	1829.934026711093	3
3	11910	1830.729248689641	2
3	11919	1831.847414795211	3
3	11920	1831.897432608543	2
3	11929	1832.840123553984	3
3	11930	1833.21913232651	2
3	11939	1834.228861353254	3
3	11940	1834.564944088612	2
3	11948	1835.450238288627	1
3	11952	1835.921899700845	2
3	11954	1835.997804176146	3
3	11955	1836.180695979823	2
3	11959	1836.394900205773	3
3	11960	1837.108599892133	2
3	11964	1837.145863887021	3
3	11965	1838.057500064806	2
3	11974	1839.271081327482	3
3	11975	1839.762857228019	2
3	11983	1841.434830754497	1
3	11992	1842.144242780293	2
3	11993	1842.408701697798	1
3	12002	1843.13328027509	2
3	12004	1843.2906731857	3
3	12005	1843.846714723637	2
3	12013	1845.710165730413	1
3	12017	1845.89404920763	2
3	12018	1846.121296284828	1
3	12021	1846.935747171394	0
3	12035	1849.718571756641	1
3	12036	1849.751828402827	0
3	12040	1849.76033890652	1
3	12041	1850.651490545307	0
3	12045	1851.191693722184	1
3	12046	1851.535614506934	0
3	12055	1855.240860760466	1
3	12056	1855.963775598225	0
3	12060	1856.64318147836	1
3	12062	1856.680400385587	2
3	12063	1856.892553663128	1
3	12067	1857.312175391304	2
3	12068	1857.361746451226	1
3	12072	1857.594968010189	2
3	12073	1857.833539680918	1
3	12077	1858.005605921699	2
3	12078	1858.590670077331	1
3	12082	1859.140726421452	2
3	12083	1859.349973731363	1
3	12087	1859.769339260126	2
3	12088	1860.275048384225	1
3	12091	1860.845817952944	0
3	12100	1862.011216481282	1
3	12101	1862.146086589182	0
3	12105	1862.148170777581	1
3	12106	1862.567911864473	0
3	12115	1864.674405799904	1
3	12116	1864.979858750035	0
3	12125	1866.473952340201	1
3	12126	1866.814329350049	0
3	12130	1866.910453906039	1
3	12131	1867.253053179298	0
3	12140	1868.080097931341	1
3	12142	1868.508767868752	2
3	12143	1868.814194920341	1
3	12151	1870.287475563734	0
3	12162	1871.553361571547	1
3	12176	1873.756528955855	0
3	12187	1874.789346880192	1
3	12191	1876.17920018967	0
3	12270	1898.67299832329	1
3	12271	1899.0917988866	0
3	12287	1902.101557863568	1
3	12291	1902.848362062632	0
3	12300	1904.006990796734	1
3	12301	1904.242817403648	0
3	12315	1906.270215799462	1
3	12316	1906.626567310452	0
3	12330	1909.064206216884	1
3	12331	1909.251864526594	0
3	12345	1911.820894654889	1
3	12346	1912.000327728414	0
3	12355	1913.345592921001	1
3	12356	1913.363486213521	0
3	12365	1914.748278528005	1
3	12369	1914.877930924911	2
3	12386	1916.830007456433	3
3	12393	1918.016546139384	4
3	12397	1918.660152422722	3
3	12400	1919.13318552714	2
3	12404	1919.373404174864	3
3	12430	1924.380047016815	2
3	12439	1925.897063048006	3
3	12440	1925.912794868221	2
3	12446	1926.188532028973	3
3	12450	1926.996658403884	2
3	12459	1927.968809993107	3
3	12460	1928.839271522166	2
3	12469	1929.876208064363	3
3	12470	1930.180545687202	2
3	12473	1930.859867873361	1
3	12477	1931.192921717208	2
3	12486	1931.589118989883	3
3	12513	1935.189644170626	4
3	12535	1938.3464042591	5
3	12564	1943.369888892902	4
3	12570	1943.768142929335	5
3	12575	1943.883929274896	6
3	12576	1944.435924273349	5
3	12579	1945.271071866147	4
3	12583	1945.576013266292	5
3	12584	1945.774422006162	4
3	12587	1946.236387960512	3
3	12593	1946.758116733883	4
3	12598	1947.155529313112	5
3	12599	1947.780055701865	4
3	12602	1948.180340193717	3
3	12608	1948.538330959185	4
3	12615	1949.101262395074	5
3	12617	1949.38721336752	6
3	12621	1950.071151290314	5
3	12630	1951.049103060851	6
3	12634	1951.41205312964	7
3	12648	1953.357519879744	6
3	12652	1953.383549203643	7
3	12654	1953.699415424441	8
3	12668	1955.28990579281	9
3	12677	1957.457740259397	8
3	12700	1959.667199223568	9
3	12705	1960.777558400953	10
3	12722	1963.026812729664	11
3	12729	1963.618716055936	12
3	12881	1984.210174340081	13
3	12888	1984.846779664482	14
3	12905	1987.663612204169	15
3	12924	1990.311656142395	14
3	12938	1991.681771605441	15
3	12940	1991.726139961801	16
3	12961	1994.816860598742	15
3	12969	1996.226000136833	14
3	12975	1997.056930227397	15
3	12987	1998.293187293487	16
3	13012	2001.855870434059	17
3	13013	2002.341526998298	16
3	13041	2006.525061006841	15
3	13044	2007.026916856921	14
3	13048	2007.105459973097	15
3	13049	2007.61927176099	14
3	13055	2007.83812637915	15
3	13060	2008.733594544099	16
3	13061	2009.00792919276	15
3	13070	2009.86422598165	16
3	13071	2010.533181272444	15
3	13080	2011.243363077409	16
3	13082	2011.708840905162	17
3	13083	2011.80892133936	16
3	13086	2012.292556588069	15
3	13090	2012.401926089778	16
3	13091	2013.068902278595	15
3	13095	2013.712118233173	16
3	13096	2013.783626599979	15
3	13099	2014.323571296778	14
3	13103	2014.694235409703	15
3	13104	2014.863771128651	14
3	13108	2015.08262690726	15
3	13109	2015.505424686844	14
3	13113	2016.088371943219	15
3	13114	2016.261667119243	14
3	13117	2017.153524741341	13
3	13121	2017.365284045268	14
3	13122	2017.885111294404	13
3	13125	2018.540312059453	12
3	13128	2019.317447272452	11
3	13131	2020.158818135687	10
3	13134	2020.628108972355	9
3	13138	2020.793285148373	10
3	13139	2021.39675971912	9
3	13143	2021.808140432819	10
3	13144	2021.92726355288	9
3	13147	2022.664999727391	8
3	13150	2023.202583718717	7
3	13153	2024.070995483778	6
3	13157	2024.81409788144	7
3	13158	2025.007708623351	6
3	13161	2025.539837091926	5
3	13164	2026.211289748081	4
3	13168	2026.404577348146	5
3	13169	2026.962887076146	4
3	13173	2027.787381715862	5
3	13174	2027.794829678533	4
3	13177	2028.670653524806	3
3	13181	2029.094407507548	4
3	13182	2029.290155114091	3
3	13186	2029.757167969487	4
3	13187	2029.757968966241	3
3	13191	2030.170733130547	4
3	13193	2030.204559306824	5
3	13195	2030.529090715253	6
3	13196	2030.701368418007	5
3	13199	2031.26266205101	4
3	13202	2032.075280257219	3
3	13206	2032.187229943813	4
3	13208	2032.296411180578	5
3	13209	2033.018505964566	4
3	13213	2033.064217908732	5
3	13214	2033.506784737201	4
3	13217	2034.022827685669	3
3	13220	2034.629310977084	2
3	13224	2035.128771341058	3
3	13225	2035.474352041723	2
3	13228	2036.426757459666	1
3	13232	2036.946784494149	2
3	13233	2037.35338300308	1
3	13236	2038.034290504267	0
3	13240	2038.179379405457	1
3	13241	2038.634151967147	0
3	13260	2043.475484177943	1
3	13262	2043.514219039795	2
3	13264	2043.927357731643	3
3	13265	2044.013610922878	2
3	13269	2044.629026344261	3
3	13270	2044.747752976564	2
3	13274	2045.175068375445	3
3	13275	2045.175617433765	2
3	13278	2045.582537102054	1
3	13281	2046.121841075557	0
3	13290	2047.453205860048	1
3	13292	2047.649592890697	2
3	13293	2047.915421955528	1
3	13297	2048.261548849449	2
3	13299	2048.709748212116	3
3	13300	2048.859037152173	2
3	13304	2049.084994800512	3
3	13306	2049.122544738446	4
3	13307	2049.342395614933	3
3	13310	2049.903334900046	2
3	13313	2050.655493311312	1
3	13316	2051.488556809964	0
3	13320	2051.597030088845	1
3	13321	2052.109195802136	0
3	13330	2054.104708776931	1
3	13331	2054.329476725267	0
3	13335	2054.474470060549	1
3	13336	2054.932605384154	0
3	13340	2054.951391052276	1
3	13341	2055.661544079756	0
3	13345	2055.905725304899	1
3	13346	2056.396173840066	0
3	13352	2056.830733138061	1
3	13357	2057.725310684812	2
3	13358	2057.897934749446	1
3	13364	2058.518503243093	2
3	13366	2058.691251525691	3
3	13370	2059.213023655912	2
3	13379	2060.475860878794	3
3	13380	2060.51680452647	2
3	13389	2061.686347867964	3
3	13391	2061.797106350653	4
3	13392	2062.10099496567	3
3	13396	2062.165800979422	4
3	13398	2062.466734149316	5
3	13404	2063.555136205818	4
3	13413	2064.010896656174	5
3	13414	2064.948027957979	4
3	13420	2065.164883082229	5
3	13425	2065.775566165854	6
3	13427	2066.000071287785	7
3	13428	2066.18561140532	6
3	13431	2066.725690862447	5
3	13439	2067.157292380897	6
3	13444	2067.600435073876	7
3	13458	2069.448218037378	6
3	13466	2070.434129172893	5
3	13475	2071.674586481426	6
3	13477	2071.721184548238	7
3	13479	2072.085597704105	8
3	13488	2072.687648688822	9
3	13527	2078.902397313345	8
3	13530	2079.302498251995	7
3	13534	2079.526045354962	8
3	13538	2080.037564899187	9
3	13542	2080.766784423733	8
3	13546	2080.878938716566	9
3	13573	2084.452184155204	10
3	13574	2085.28555557337	9
3	13583	2086.467578792042	10
3	13584	2087.021292167067	9
3	13587	2087.743372218826	8
3	13590	2088.388844461882	7
3	13593	2089.206865397425	6
3	13596	2089.820951624591	5
3	13599	2090.753016561739	4
3	13603	2090.942858502412	5
3	13604	2091.257143015884	4
3	13607	2092.085983077487	3
3	13610	2092.666493004425	2
3	13614	2092.837830822808	3
3	13616	2093.234053005604	4
3	13617	2093.379039488737	3
3	13621	2093.662455780786	4
3	13622	2093.870757970218	3
3	13626	2094.083109792852	4
3	13628	2094.14578461413	5
3	13629	2094.796553245191	4
3	13632	2095.337422369658	3
3	13636	2095.837558737458	4
3	13637	2095.846486027404	3
3	13640	2096.793988566059	2
3	13643	2097.450285265227	1
3	13647	2097.631576967604	2
3	13649	2097.646913838882	3
3	13651	2097.852195118992	4
3	13652	2098.348651292087	3
3	13656	2098.825816784846	4
3	13658	2098.856138793015	5
3	13660	2098.918983154816	6
3	13661	2098.974025261733	5
3	13665	2099.257111186747	6
3	13666	2099.390630513621	5
3	13672	2100.037688744995	6
3	13674	2100.135193458888	7
3	13679	2100.790749441151	8
3	13680	2100.97627038714	7
3	13689	2102.093469866116	8
3	13690	2102.297317046723	7
3	13693	2103.08915632023	6
3	13697	2103.490265879748	7
3	13703	2104.350894288956	6
3	13712	2105.173740996116	7
3	13713	2105.668417599336	6
3	13721	2106.775563486531	5
3	13730	2108.111215200099	6
3	13731	2108.450930105061	5
3	13739	2110.035164707392	4
3	13743	2110.442960784647	5
3	13750	2111.304882893363	6
3	13751	2111.554023223328	5
[...]
6	171120	26863.117148665316	6.126494007884
6	171135	26865.980316132566	20.461621391568
6	171189	26880.890380273705	5.797841135579
6	171225	26887.531399865627	1.666380868829
6	171230	26888.637045560876	4.965759314292
6	171294	26900.569624606084	10.028041129389
6	171297	26901.224422448158	3.278213577151
6	171327	26906.846351725017	6.521050234057
6	171330	26907.435140144094	5.016272086017
6	171352	26911.072166990444	2.280008143874
6	171440	26925.340380024807	9.28902169772
6	171450	26935.193251496216	1.676632694172
6	171557	26968.719400330093	22.794538059086
6	171784	27005.436325333912	14.95725328255
6	171817	27010.331394975458	3.394767028572
6	172002	27037.572582625515	53.331315552152
6	172056	27045.654142102238	16.338083793686
6	172153	27058.953382552753	11.075193590482
6	172316	27082.403970042117	4.615894157478
6	172368	27088.437037288502	55.314659578378
6	172409	27092.721834912394	22.580386111455
6	172424	27094.471244346314	29.21626884678
6	172454	27097.801121250411	65.403712875474
6	172572	27112.649959795607	11.354681543916
6	172629	27121.797914168062	11.173114553135
6	172651	27124.334226830965	27.420216596737
6	172673	27127.005196972062	34.80266793284
6	172681	27128.475675378006	73.83536051882
6	172752	27138.436238908221	37.330201899601
6	172770	27141.67974400489	12.25551843411
6	172913	27158.878292677984	68.319985197247
6	173006	27171.673119529675	87.245748678992
6	173097	27183.914545982901	60.556189402778
6	173105	27185.571634226397	46.470387328976
6	173236	27205.43049091195	24.262643686257
6	173249	27207.758207428792	72.2496042907
6	173261	27209.477337912993	25.190871709119
6	173278	27212.73152819873	40.854916113322
6	173283	27213.425373297242	70.75522419938
6	173297	27216.571073534676	53.177493391198
6	173306	27218.642440761776	53.65460959727
6	173382	27233.31362116641	51.615505695498
6	173390	27234.582743485496	67.703913837134
6	173399	27235.971828204621	49.646897381516
6	173425	27238.640031853452	64.764599274518
6	173438	27239.869466707011	76.556624794092
6	173602	27260.712160140967	170.04160239293
6	173675	27271.288741049211	161.1722741062
6	173698	27274.385424341534	103.76066609964
6	173726	27277.991322010795	87.071870936844
6	173729	27278.911196736146	86.406541098943
6	173744	27281.557322572211	44.040127073533
6	173754	27283.010821301203	191.21503098058
6	173764	27284.392010053519	76.278483979378
6	173782	27287.767790616528	28.065785355937
6	173792	27289.366286881538	7.6401268942
6	173810	27292.084553206703	8.11347654051
6	173858	27299.073176067455	51.005355302403
6	173861	27299.834907410519	7.906482162695
6	173866	27300.598576915024	18.864776182403
6	173884	27303.846339599827	1.92384747435
6	174068	27327.259332502719	72.750662468517
6	174076	27328.461030025633	7.336687404606
6	174099	27331.575621363607	28.260928251103
6	174104	27332.038555283745	5.877487542295
6	174117	27334.282113370525	25.593442761456
6	174162	27340.105677547113	15.864200212756
6	174180	27343.397742790489	48.50757749635
6	174208	27347.167047087423	22.473662766762
6	174213	27347.619697879202	33.657039630666
6	174389	27371.87484226388	96.674843808834
6	174426	27376.866718443605	37.893730861828
6	174446	27379.784072875912	29.135122001465
6	174459	27382.125645487971	2.498334811094
6	174475	27385.644643193608	79.633724548733
6	174485	27387.919945242941	17.000069880995
6	174505	27405.587050984459	6.388669053983
6	174515	27408.114937563209	1.34723553611
6	174540	27413.456095473953	6.887463588038
6	174555	27419.110228249671	0.545992082218
6	174609	27428.063562148099	7.476421585771
6	174617	27429.315452344377	3.568240901921
6	174645	27435.395444810957	1.093084636746
6	174758	27451.705626315436	5.283414417828
6	174862	27464.894398381653	18.285269211052
6	174897	27470.280808106994	20.772714220311
6	174916	27473.406118002439	35.158895397798
6	174927	27475.63639347893	16.296684670053
6	174961	27480.148146736666	24.039734976511
6	174975	27482.425008866002	25.683832765393
6	175018	27488.647680186714	11.559209152558
6	175077	27500.344212041388	41.962709911643
6	175085	27501.549365536415	13.493336301535
6	175249	27525.151105933865	13.891984845343
6	175344	27540.076272800606	53.31454346827
6	175352	27541.663519470854	22.550542966256
6	175460	27556.888982291142	13.869328589565
6	175495	27562.225358999515	56.246076709762
6	175535	27567.557061615535	14.474577286271
6	175577	27575.590122124687	0.884126360694
6	175594	27578.292547968801	53.378770811735
6	175669	27589.00023360539	23.406674994111
6	175682	27591.373639379014	69.950135221919
6	175735	27598.249593972409	75.580528124847
6	175787	27605.560716158331	28.005081066798
6	175823	27611.536363742495	75.142111686851
6	175923	27626.054186705635	26.136125867477
6	175928	27626.945184722771	8.993058572357
6	175936	27628.633358240588	22.901292276517
6	175944	27630.104528132169	3.168286310264
6	175947	27631.089419344901	48.312413075489
6	175982	27637.19009247407	38.81881326189
6	176045	27653.373449692512	2.173105632504
6	176065	27667.309692415841	3.232795366416
6	176072	27668.427307712517	0.891441666801
6	176100	27673.82991932996	4.20289540018
6	176110	27676.468909662336	15.312301674063
6	176231	27708.890610914677	8.965844501878
6	176242	27711.226786488713	25.736056086678
6	176267	27717.605574027467	16.519153947915
6	176280	27721.533249351517	13.364292686717
6	176290	27734.413148326206	0.786530047655
6	176300	27738.900957908457	2.019119636167
6	176335	27753.713195957366	5.361951765359
6	176360	27762.38859989455	0.65416638793
6	176370	27764.004998631397	5.750948513689
6	176455	27785.288478081896	0.549537649192
6	176515	27793.469871908031	14.276830503473
6	176564	27800.638553764925	20.075815916848
6	176654	27813.596392485901	15.607968738124
6	176722	27822.959439845365	5.456655673505
6	176732	27824.264237840735	9.599480229636
6	176735	27824.674084895971	7.376187352988
6	176854	27843.865428164264	1.956134516119
6	176878	27846.456641624763	33.720886900574
6	176911	27850.869359579671	20.256648111217
6	177020	27865.03518117246	8.462696426073
6	177034	27867.972195759032	30.79166765723
6	177107	27879.163815239169	16.142979145558
6	177205	27894.643040799969	48.403701596972
6	177246	27899.186539733995	39.95921084261
6	177375	27916.65789500361	16.293647200276
6	177427	27924.755911769043	3.227411448894
6	177478	27930.653979561642	1.787330277029
6	177817	27976.168460239402	21.514384402802
6	177922	27991.509028149933	96.645892532912
6	177925	27992.087965621358	65.140146393006
6	177998	28002.191375629721	74.784352653175
6	178003	28002.891371373391	16.443489052932
6	178050	28009.185293960362	37.960556682054
6	178065	28011.928720141226	18.661725467261
6	178076	28014.508143016067	30.65643689203
6	178160	28026.457939859131	121.07036909351
6	178211	28034.349698373188	52.934023794302
6	178258	28039.865462013871	136.74638663232
6	178318	28047.118805797889	10.179745829521
6	178326	28048.683243993788	30.325158627761
6	178346	28051.959243225936	14.375041938731
6	178359	28054.409061873077	110.03878316611
6	178396	28060.567069746392	10.672950399567
6	178406	28062.08831061728	31.031618464672
6	178494	28073.318784654166	57.330337862271
6	178556	28081.846656781415	47.783359709901
6	178561	28082.777139330496	116.00784155624
6	178564	28083.179945731376	40.347067557196
6	178582	28086.182085713211	10.974111314014
6	178590	28087.571240773543	25.128820145441
6	178602	28090.344918396675	52.869686074847
6	178605	28091.032440279077	11.159851859386
6	178635	28094.821867107345	17.605136160345
6	178657	28097.26946566126	30.097020336936
6	178722	28105.894986494238	108.93956076304
6	178783	28116.012875611641	52.24657826312
6	178788	28116.503865259819	172.71909627465
6	178801	28118.725104224801	149.33763109053
6	178804	28119.447489304494	72.724062439624
6	178835	28124.332523822169	18.419339902559
6	178882	28130.199095778244	3.814743058243
6	178887	28131.015399697965	11.549946626931
6	178902	28133.609802258683	90.413438905696
6	178922	28136.742372705358	4.322707557931
6	178982	28159.993721367392	0.602816230152
6	179042	28171.674930019972	0.638462658599
6	179189	28194.772047050186	14.104875940454
6	179354	28218.395425219113	51.080846012004
6	179370	28222.111686171623	14.849793446499
6	179387	28225.632820590803	25.426709405676
6	179407	28229.662255362633	0.819601027528
6	179439	28234.046504868825	3.934347748842
6	179531	28247.688656350163	14.267077565841
6	179548	28250.156068192406	5.609311873093
6	179581	28254.672419093439	57.168435368402
6	179586	28255.372455194296	9.003243170422
6	179629	28261.334837801273	16.982319744702
6	179681	28269.7259029326	11.41950047434
6	179736	28277.331559184423	26.326218973307
6	179743	28278.28218971104	10.367905043441
6	179772	28283.542983880902	0.866383402469
6	179792	28286.285777840887	99.330391158608
6	179837	28293.426073690416	19.746297362024
6	179862	28297.621787198949	18.87567149741
6	179865	28298.137370283519	0.640596473961
6	179875	28302.833538107919	2.334951641558
6	179890	28319.347964100717	4.552848165688
6	179895	28322.190267716134	0.978705779184
6	179910	28326.668293573343	2.267896887303
6	179930	28333.70021571636	3.728828644914
6	179950	28341.521919176805	3.42541009335
6	180002	28374.018994812274	6.378441289432
6	180015	28376.303950149142	2.65686928032
6	180080	28402.018678669864	4.768331087243
6	180094	28404.951297380763	1.081535223195
6	180142	28411.453204828023	4.538182669311
6	180314	28435.043987508947	15.491315217212
6	180322	28436.208661672557	16.440488442043
6	180327	28436.835952566695	44.994432182571
6	180380	28444.288137846572	9.24663054333
6	180549	28468.666507988414	46.815130896231
6	180564	28470.865418165448	71.253267644134
6	180620	28478.967168613049	64.448530928257
6	180669	28485.764665920046	38.507562254859
6	180752	28496.573114866474	83.391773535196
6	180806	28503.709389821895	5.55580147579
6	180818	28505.430649251247	13.070744863331
6	180834	28507.693881404808	19.36646725684
6	180851	28510.181533496909	58.857366603404
6	181062	28540.45163517458	32.352378188654
6	181088	28545.237424628796	70.143123372979
6	181094	28546.839349454582	31.34626937789
6	181099	28547.247924315172	119.74771876372
6	181131	28552.333532156365	55.287938984043
6	181150	28555.472617834423	43.61573007986
6	181164	28557.271247199437	23.486688692998
6	181171	28558.124401943831	35.807837499615
6	181196	28561.370651822331	99.161106488396
6	181208	28562.947524524367	10.264829813413
6	181226	28565.945866795377	85.264282103875
6	181285	28575.357297424269	71.164577670664
6	181305	28577.857763714152	42.959371257534
6	181438	28597.453678300695	3.264807354462
6	181490	28604.141278490048	23.287361400574
6	181503	28605.991727615842	30.889590356782
6	181559	28614.009206880438	0.809535102648
6	181573	28615.735646697688	14.202337150238
6	181596	28618.341123629776	60.001145750962
6	181603	28619.095738273948	26.588400311885
6	181612	28621.029651444168	5.573523288591
6	181644	28626.899615412354	54.683814550772
6	181650	28627.795807455117	1.056113507753
6	181665	28631.599747888161	21.076363747363
6	181692	28635.686136455378	16.995285570938
6	181700	28637.386967689785	13.25238978261
6	181727	28645.890526213375	1.013918322474
6	181730	28646.509808270698	5.549064606878
6	181735	28651.011192061649	0.686535936454
6	181777	28660.124644930568	2.494911023843
6	181800	28664.123183569294	8.560209745339
6	181820	28672.132225975828	2.955793148986
6	181852	28679.854668375878	0.812712664809
6	181865	28682.252085781341	0.716401676554
6	181870	28684.530318581078	9.517021437109
6	181887	28694.089144792006	0.898250801535
6	181900	28697.78900688636	4.163191696252
6	181905	28708.00528548997	0.623872602312
6	181964	28722.536847410051	9.432961908352
6	181972	28723.358165919108	0.887323119562
6	181982	28724.465291690573	0.637789316169
6	182097	28747.370549959551	21.074347630818
6	182177	28764.126940457563	9.979887020762
6	182227	28770.253416031192	6.296976587369
6	182259	28775.656366084267	0.608422356844
6	182505	28807.448068513486	30.783142512315
6	182533	28812.281819177416	23.079787251812
6	182610	28823.137018392326	51.147227603161
6	182669	28831.109725104316	73.604302722869
6	182674	28831.521479359499	9.039254945597
6	182728	28838.698943347388	14.802393907674
6	182746	28840.467523977158	3.934284196106
6	182814	28850.18279787488	6.014675187115
6	182893	28861.899390573937	57.051336507491
6	182936	28867.216217942812	27.195252502817
6	182949	28869.044258218395	27.403413660264
6	182976	28872.145009364977	96.637460074588
6	182981	28872.9796037083	76.863728822861
6	183050	28881.058366539093	79.376126290734
6	183084	28885.266518326892	21.883815860373
6	183092	28886.475180775623	22.259555225139
6	183120	28890.65824055257	35.96423290741
6	183197	28899.935322039898	14.680217800498
6	183264	28908.19505759608	64.706744758888
6	183290	28911.772970934771	68.149679330718
6	183342	28918.39405869348	42.048512652051
6	183350	28919.769438789133	148.81455612112
6	183393	28926.982109720958	43.682780686399
6	183399	28928.181642164336	40.012242522071
6	183409	28929.64037281638	73.235609185035
6	183486	28940.770991974324	57.981523403465
6	183625	28958.66742103165	88.190921047765
6	183857	28988.104883613251	189.8837080515
6	183888	28993.870434447889	26.573190211594
6	183891	28994.362159561132	131.68929866332
6	183941	29002.838116918643	62.357780210318
6	184036	29016.105401842154	168.27193031801
6	184058	29020.565036788068	166.71423024632
6	184117	29028.950835901775	22.446458264617
6	184124	29029.790290989956	149.57480551213
6	184427	29069.464431148907	120.98933016285
6	184438	29071.131722267484	24.26153039052
6	184533	29084.660282474151	125.25809461944
6	184551	29087.175730598578	144.66380654769
6	184563	29088.616662910115	51.311548064065
6	184566	29089.274217729317	172.77271393784
6	184624	29097.391675538105	44.11690788639
6	184633	29099.543651010144	111.6999036155
6	184658	29102.866483380787	69.874363159793
6	184670	29104.324924472581	39.552222723233
6	184675	29105.107352977434	39.897283843774
6	184683	29106.603742500349	38.805507206799
6	184724	29112.29759072303	191.97819045126
6	184732	29113.750497812733	161.5039522665
6	184735	29114.502204426287	217.18780391021
6	184738	29115.126063597996	28.438437932664
6	184764	29119.37915136926	12.682115206534
6	184777	29121.744257251826	79.021800146951
6	184795	29124.428936126736	45.211651497513
6	184805	29125.519375954709	22.324220144139
6	184829	29128.621452791524	211.99429060999
6	184842	29130.648416393437	88.958537872553
6	184847	29131.591463640985	20.794395789234
6	184932	29143.351060108887	9.617081465718
6	184973	29149.688727775868	90.322486606557
6	185089	29165.343272174614	36.164702094804
6	185320	29198.928664839171	111.173803758
6	185335	29201.097600822659	73.385070163811
6	185355	29203.598323352631	81.611089575205
6	185383	29207.322592886488	52.624444559447
6	185454	29216.628753351278	113.18399868442
6	185573	29233.714698077784	20.770642203939
6	185592	29236.790161570952	212.11844766171
6	185622	29238.946718375244	37.279365317099
6	185630	29240.795182163639	112.27103217951
6	185636	29242.042101682488	13.71606748414
6	185646	29243.122897588134	60.861741479883
6	185649	29243.555223383427	38.386690541504
6	185663	29246.089194976443	75.775857373929
6	185713	29251.589872829008	138.03911007238
6	185719	29252.666456290192	76.335784324121
6	185858	29270.899292685833	83.271708653866
6	185916	29279.029761625821	15.995131138422
6	185951	29283.977288897703	129.56183858854
6	185984	29289.143014843712	16.841141840972
6	186131	29307.334552662956	199.70006759233
6	186165	29312.977113540701	47.449746332806
6	186190	29316.455601784212	66.916046850508
6	186198	29317.486947946062	422.60121711417
6	186233	29323.645948461069	22.272982809125
6	186236	29324.570196301768	22.300630803554
6	186239	29325.554500732523	99.534434259588
6	186273	29329.684172709797	115.71782385315
6	186351	29340.992713364819	102.05608718813
6	186354	29341.905910080532	81.758595796748
6	186364	29343.484012738849	119.42190566604
6	186374	29344.993510966284	45.973784383014
6	186442	29354.885914077007	24.394207185632
6	186453	29356.597393821462	67.360790462266
6	186543	29367.959224861862	28.806083871
6	186556	29370.166816019688	219.8377371581
6	186570	29372.865547705118	130.29566448606
6	186665	29383.853348022888	19.095356458348
6	186668	29384.388007360746	62.584909147431
6	186694	29388.57075269814	44.078923433222
6	186720	29393.262287597269	15.645936616236
6	186757	29398.802500734808	182.70922144841
6	186802	29404.858024012209	31.430766982228
6	186866	29413.370861672708	98.241446519526
6	187035	29437.823262661186	90.173194015723
6	187159	29455.04310726221	87.264335119406
6	187218	29463.711389629638	53.570754881056
6	187238	29466.936238807583	258.6058215031
6	187298	29474.972940329138	59.312018449836
6	187306	29476.415859436432	24.048279900031
6	187330	29480.675539791493	79.881055497414
6	187333	29481.161834127039	242.70733931262
6	187355	29484.642310828345	46.120678093218
6	187383	29489.731664356639	345.37027245515
6	187386	29490.16578770052	92.99592363152
6	187389	29490.928593785458	40.394498288203
6	187392	29491.926240295826	17.554528018453
6	187400	29493.386487563981	18.70698188955
6	187410	29494.730157757786	177.96401780088
6	187460	29501.517143999042	113.90330208505
6	187466	29503.36275779647	45.531093698711
6	187506	29508.908300690588	40.318284554595
6	187516	29510.37364470782	134.55044758799
6	187582	29520.200166264692	311.29153029893
6	187625	29527.229156852983	275.76759495324
6	187635	29528.094226752225	231.04991629055
6	187656	29531.070378739903	9.435321963006
6	187664	29532.841504946681	36.342590962209
6	187705	29539.765027680298	179.98021105263
6	187716	29541.287146312001	4.452322615648
6	187743	29545.293316004149	24.303219484249
6	187756	29547.771019709392	185.38112192901
6	187791	29552.600373026405	2.662711505384
6	187815	29555.304087095011	182.09099678716
6	187878	29563.048740170991	206.32717772272
6	187920	29569.347461757437	33.681627050242
6	187981	29577.698199124356	11.026737048531
6	188033	29584.978801629321	24.52222185687
6	188056	29588.957419516381	135.53228031051
6	188119	29598.784316361723	19.365302860376
6	188125	29600.436701999911	190.67045120782
6	188150	29606.080465313266	144.15271471677
6	188249	29623.09563699527	1.444385524798
6	188262	29625.323464949803	10.462122762963
6	188301	29634.694976009244	29.891540283658
6	188422	29655.12465471112	14.238534135369
6	188439	29657.254670561606	41.249630303679
6	188505	29665.229159855084	8.03735084298
6	188531	29669.592617701773	22.431620407481
6	188541	29671.409250806073	46.524045063414
6	188579	29677.059431016386	19.404804010537
6	188645	29684.86733500188	14.007144256842
6	188661	29687.71944916941	15.181586154963
6	188696	29693.307781867579	21.456723857145
6	188712	29696.093076731534	53.831511307844
6	188745	29702.37286941961	24.225067142552
6	188817	29718.798107940694	15.55741549628
6	188842	29723.309136499352	0.545406780848
6	189011	29747.736418132455	3.071889580796
6	189053	29752.642049192191	13.455273140601
6	189068	29755.295917851265	7.932640173617
6	189094	29759.339735879163	7.484432338033
6	189100	29760.532350440855	6.179798521403
6	189150	29766.641848422522	16.834739553694
6	189198	29774.146441074676	7.539468856138
6	189216	29777.799289029587	4.677060542769
6	189230	29780.675096685748	16.81099887172
6	189252	29785.911144790558	61.547954078547
6	189257	29786.55759448115	58.670474267887
6	189300	29797.468776986342	1.619555628593
6	189387	29815.562388029954	16.014794636276
6	189395	29817.052132144265	10.611560972313
6	189400	29818.638762782099	0.464616363263
6	189442	29828.594310392418	3.970731564871
6	189475	29837.233496973188	0.686879400723
6	189650	29874.799145330231	10.469161703312
6	189736	29889.68507706905	12.367206787826
6	189757	29893.624650310076	14.608266656477
6	189760	29894.211089443046	4.981073473249
6	189884	29925.91270282995	21.744422095154
6	189899	29928.088500900427	11.389088906138
6	189902	29928.499353305996	6.139298829643
6	189909	29929.437572546583	16.936488135549
6	189920	29931.729479450081	8.76889895814
6	189935	29934.73816150288	13.79666996445
6	190097	29968.969565739162	8.635775649202
6	190167	29978.058468301758	15.581989284066
6	190185	29981.06590075514	30.444274725438

