version 2
run First_exit_5-8-20191017-13:43:30-1842
attr configname First_exit_5
attr datetime 20191017-13:43:30
attr experiment First_exit_5
attr inifile omnetpp.ini
attr iterationvars ""
attr iterationvarsf ""
attr measurement ""
attr network ResponseTimeNetwork
attr processid 1842
attr repetition 8
attr replication #8
attr resultdir results
attr runnumber 8
attr seedset 8
param **.Source.interArrivalTime exponential(4s)
param **.jobPriority bernoulli(0.4)
param **.PS.serviceTimeU1 "uniform(0.4s, 1.0s)"
param **.PS.serviceTimeU2 "uniform(1s, 1.2s)"
param **.SS1.serviceTime exponential(0.4s)
param **.SS2.serviceTime exponential(0.8s)
param **.PS.exitProbability bernoulli(0.5)

vector 0 ResponseTimeNetwork.SS1 queueLength:vector ETV
attr interpolationmode sample-hold
attr title "queue length, vector"
vector 1 ResponseTimeNetwork.SS2 queueLength:vector ETV
attr interpolationmode sample-hold
attr title "queue length, vector"
vector 2 ResponseTimeNetwork.QueueU1 queueLength:vector ETV
attr interpolationmode sample-hold
attr title "queue length, vector"
vector 3 ResponseTimeNetwork.QueueU2 queueLength:vector ETV
attr interpolationmode sample-hold
attr title "queue length, vector"
vector 4 ResponseTimeNetwork.sink lifeTimeU2:vector ETV
attr interpolationmode none
attr title "lifetime of arrived jobs U2, vector"
attr unit s
vector 5 ResponseTimeNetwork.sink lifeTime:vector ETV
attr interpolationmode none
attr title "lifetime of arrived jobs, vector"
attr unit s
vector 6 ResponseTimeNetwork.sink lifeTimeU1:vector ETV
attr interpolationmode none
attr title "lifetime of arrived jobs U1, vector"
attr unit s
0	0	0	0
0	1655	795.759384016493	1
0	1661	797.159147001993	0
0	3114	1324.496326331767	1
0	3116	1324.646654806201	0
0	3997	1623.83978880117	1
0	3999	1623.86819730102	0
0	5642	2403.092506716645	1
0	5646	2403.999118694681	0
0	6305	2700.141016031925	1
0	6306	2701.617164025044	0
0	6310	2702.504694251304	1
0	6311	2702.71251664986	0
0	6637	2809.714828151743	1
0	6639	2810.012048851447	0
0	7050	2968.58574675912	1
0	7051	2968.803262342331	0
0	8945	3742.767481726543	1
0	8946	3742.848917876082	0
0	11384	4697.397132034862	1
0	11386	4697.751990287541	0
0	13490	5496.937765018227	1
0	13491	5497.17456056746	0
0	15125	6107.911680064204	1
0	15126	6108.200535947781	0
0	15130	6108.692365021769	1
0	15131	6108.727314330728	0
0	15135	6109.262913028754	1
0	15136	6109.951178522887	0
0	15170	6115.256966039405	1
0	15171	6115.839693704255	0
0	17855	7199.650388671178	1
0	17856	7199.909983216117	0
0	20560	8241.606105241214	1
0	20564	8242.168241860324	0
0	20572	8243.238295920778	1
0	20574	8243.244968631137	0
0	25825	10419.160002768496	1
0	25826	10419.289526970134	0
0	27290	11019.110557167894	1
0	27291	11019.336315872172	0
0	30755	12488.873150916806	1
0	30756	12488.900193775384	0
0	31690	12939.757993187042	1
0	31691	12940.478125530818	0
0	32190	13092.5855331122	1
0	32191	13092.597820251779	0
0	33095	13474.58542695881	1
0	33096	13475.031306911641	0
0	33110	13476.840706619397	1
0	33111	13476.950496041734	0
0	33600	13751.982514910337	1
0	33601	13752.202693965185	0
0	33610	13753.218380262322	1
0	33616	13754.285574592028	0
0	34590	14060.655252559414	1
0	34591	14060.733123063164	0
0	38687	15807.366674012477	1
0	38689	15808.022290967946	0
0	39904	16252.492368138196	1
0	39908	16253.110226963368	0
0	40167	16374.279784833192	1
0	40179	16376.12202382157	0
0	40747	16487.894891149977	1
0	40749	16487.989166983117	0
0	44560	17995.849179546484	1
0	44561	17996.324793257065	0
0	45275	18234.523968852463	1
0	45276	18234.714795707801	0
0	50154	20256.200133718757	1
0	50157	20256.780765474841	2
0	50159	20256.994870372617	1
0	50161	20257.036592459258	0
0	52072	21022.942128233932	1
0	52076	21023.763443437285	0
0	54500	21803.661627167944	1
0	54501	21804.032379383117	0
0	54505	21804.758651678113	1
0	54509	21804.859003818919	0
0	57652	22940.470357692539	1
0	57656	22941.51760298272	0
0	58175	23132.135146696279	1
0	58176	23132.159551076518	0
0	60435	24005.163548639487	1
0	60436	24006.630916670935	0
0	61106	24302.587629395457	1
0	61108	24302.858588788437	0
0	62590	24865.785173607675	1
0	62591	24866.50915299639	0
0	63127	25086.86279670542	1
0	63129	25086.951512614147	0
0	63375	25142.703436979876	1
0	63376	25142.837959106705	0
0	65525	26038.348597528897	1
0	65526	26038.525333599377	0
0	65827	26149.855774337589	1
0	65829	26149.971520286191	0
0	70976	28440.576267070211	1
0	70980	28441.067570685828	0
0	71003	28443.459454308803	1
0	71007	28443.703051190173	0
0	71804	28791.407218436445	1
0	71806	28791.562095865788	0
0	71987	28857.16153562435	1
0	71989	28857.556353611153	0
1	0	0	0
1	40	22.355168516488	1
1	41	22.54613274193	0
1	50	24.044467295395	1
1	51	26.034862938911	0
1	190	54.23944845295	1
1	191	54.298397119425	0
1	385	179.164360480789	1
1	386	179.379894419853	0
1	475	205.517270657277	1
1	476	206.605747466532	0
1	912	438.481751723009	1
1	914	438.554008220791	0
1	1317	635.892870736603	1
1	1319	636.733960459276	0
1	2337	1042.12392376671	1
1	2339	1042.343013477217	0
1	2735	1235.811908605636	1
1	2739	1236.888514853948	0
1	2880	1275.706725940212	1
1	2884	1277.023585262352	0
1	2906	1280.211804572716	1
1	2911	1281.445272166023	0
1	3275	1367.883373554292	1
1	3276	1370.097390591649	0
1	3490	1455.639037282616	1
1	3494	1455.710665946014	0
1	3510	1458.794965502219	1
1	3511	1459.086863506924	0
1	3524	1460.990624121775	1
1	3527	1461.465567093401	2
1	3529	1461.51823492716	1
1	3534	1462.385461580159	0
1	3770	1534.288834836717	1
1	3776	1536.055005669461	0
1	4440	1810.268288579901	1
1	4446	1812.554322534196	0
1	4585	1892.633600987085	1
1	4586	1892.746268890127	0
1	4747	1962.858614084262	1
1	4749	1963.034454288109	0
1	4840	2014.567572688933	1
1	4841	2015.403880217597	0
1	5605	2396.988038288826	1
1	5606	2397.198061209943	0
1	5935	2564.311767308717	1
1	5936	2564.746316633505	0
1	5940	2565.31094472184	1
1	5941	2566.990699135129	0
1	6235	2682.665936445665	1
1	6251	2685.459600043927	0
1	6335	2710.382631332067	1
1	6336	2711.334165500508	0
1	6340	2712.098643968192	1
1	6341	2712.828563500762	0
1	6345	2713.391597683735	1
1	6346	2713.759699568971	0
1	6465	2781.885162494438	1
1	6466	2781.916247808929	0
1	6477	2783.476435718448	1
1	6484	2784.991571192673	0
1	7465	3219.537051485242	1
1	7466	3219.704046583026	0
1	7475	3221.063512575057	1
1	7476	3221.755503164761	0
1	7545	3251.189969789803	1
1	7546	3253.941876687539	0
1	7680	3307.541150277383	1
1	7684	3308.616889340429	0
1	7687	3308.850266161649	1
1	7691	3311.436236035749	0
1	7732	3323.470760131088	1
1	7734	3323.511046221103	0
1	8620	3663.715134965518	1
1	8621	3663.885265481892	0
1	8685	3682.705507738903	1
1	8686	3682.846039186667	0
1	9060	3788.69010265174	1
1	9061	3788.983286914689	0
1	9412	3937.271591178869	1
1	9416	3937.584969130846	0
1	9419	3937.982039282081	1
1	9424	3938.889959985866	0
1	9434	3939.947323609172	1
1	9436	3940.031980251165	0
1	9540	3964.512739746039	1
1	9541	3965.949683392183	0
1	9550	3967.715045817751	1
1	9551	3968.14862682391	0
1	9900	4113.554530911236	1
1	9901	4114.32327770337	0
1	10175	4198.544627338365	1
1	10176	4199.255280716573	0
1	10275	4237.46114929328	1
1	10276	4239.498948746132	0
1	10282	4240.318933109664	1
1	10286	4241.239071290368	0
1	10795	4453.594068608671	1
1	10801	4454.796624596824	0
1	11035	4550.419502761749	1
1	11036	4550.560018635046	0
1	11044	4551.35821968505	1
1	11046	4551.636706744571	0
1	11090	4563.210746384526	1
1	11091	4563.778297204628	0
1	11469	4709.310369436518	1
1	11474	4710.264276851946	0
1	11595	4782.121377364663	1
1	11596	4782.245572964598	0
1	11635	4787.704111609779	1
1	11640	4788.680936227962	2
1	11641	4789.461028423178	1
1	11644	4789.522228438947	0
1	11647	4790.086251670699	1
1	11651	4790.308505776378	0
1	11654	4790.945822267159	1
1	11659	4791.382465885574	0
1	12595	5190.143041875451	1
1	12596	5191.412107087513	0
1	12605	5192.74726202514	1
1	12606	5194.001437986312	0
1	12610	5194.665992826778	1
1	12611	5195.207256484258	0
1	12615	5196.122766234347	1
1	12619	5196.845466414814	0
1	12850	5256.388112077778	1
1	12851	5256.608505835268	0
1	13710	5580.025043903919	1
1	13711	5581.974639197376	0
1	13910	5651.51181425323	1
1	13911	5652.233612431035	0
1	14130	5712.743386779581	1
1	14131	5712.759939706975	0
1	14235	5749.042732664775	1
1	14236	5749.662387998411	0
1	14297	5775.156852768459	1
1	14306	5776.305787275939	0
1	14360	5784.166175623599	1
1	14361	5784.225898449479	0
1	14882	5996.374292745387	1
1	14896	5999.297337029991	0
1	14912	6001.828517765156	1
1	14916	6002.306127151312	0
1	15272	6182.437182539559	1
1	15276	6183.119135703995	0
1	15280	6183.572018175629	1
1	15284	6184.279532990929	0
1	15755	6427.064781488949	1
1	15756	6429.296962935622	0
1	16092	6548.541181448813	1
1	16095	6549.382572943404	2
1	16096	6550.0328813424	1
1	16101	6551.767110664718	0
1	17092	6951.146138067655	1
1	17101	6952.822935823263	0
1	18140	7316.069435823612	1
1	18144	7317.697264519006	0
1	18407	7425.577568465481	1
1	18410	7426.251789422296	2
1	18411	7426.595845115751	1
1	18416	7427.3953076209	0
1	18420	7428.086220488424	1
1	18421	7428.36090257013	0
1	18437	7431.436141946024	1
1	18441	7433.061213320212	0
1	18490	7461.194051140558	1
1	18495	7462.236189498148	2
1	18496	7462.895120845825	1
1	18499	7463.021349662663	0
1	19455	7895.461368453579	1
1	19456	7896.235856248482	0
1	19460	7897.229176939369	1
1	19461	7897.676032286156	0
1	19835	7963.19132579851	1
1	19839	7964.650520027144	0
1	19842	7965.085398583667	1
1	19845	7965.686664864555	2
1	19846	7965.743819474755	1
1	19849	7966.067512040874	0
1	20190	8138.759318941855	1
1	20191	8139.092745015489	0
1	20195	8139.895331654789	1
1	20204	8141.167592971583	0
1	20210	8142.179177742943	1
1	20211	8143.06121622817	0
1	20217	8143.962584568927	1
1	20219	8144.529713331958	0
1	20232	8145.890191641537	1
1	20234	8146.389917493854	0
1	20640	8263.54004080029	1
1	20641	8263.919000868111	0
1	20805	8319.056734343766	1
1	20806	8319.434353289803	0
1	20910	8370.839051584246	1
1	20911	8371.019710660685	0
1	20915	8371.640649907995	1
1	20916	8371.910903652919	0
1	20975	8386.571504022523	1
1	20976	8386.717872886207	0
1	21310	8538.576174935636	1
1	21311	8539.343702846274	0
1	21455	8631.125290728466	1
1	21456	8633.264306238991	0
1	21495	8649.080940555085	1
1	21496	8650.796198527925	0
1	22520	9040.543912949806	1
1	22521	9041.160127725151	0
1	22557	9049.004837828403	1
1	22560	9049.762245153676	2
1	22561	9050.135318879256	1
1	22564	9050.187542855069	0
1	22570	9052.088036235174	1
1	22571	9052.102952911699	0
1	22630	9085.62979887007	1
1	22634	9086.927803671111	0
1	22680	9094.213359671018	1
1	22685	9096.173382183441	2
1	22686	9096.772605937186	1
1	22689	9096.906688689854	0
1	22905	9194.335108654014	1
1	22906	9194.63618144654	0
1	22920	9200.241391198495	1
1	22921	9200.61060911475	0
1	22925	9201.477716488878	1
1	22926	9202.204589476888	0
1	22930	9202.772632191223	1
1	22931	9203.926606410385	0
1	23670	9541.246544226399	1
1	23671	9542.320720763965	0
1	23689	9544.447675591469	1
1	23691	9544.492446878111	0
1	23697	9545.646995557653	1
1	23699	9545.648719622732	0
1	23775	9566.527704625393	1
1	23776	9568.428457539447	0
1	24770	9964.61287783855	1
1	24771	9965.119721824037	0
1	25460	10299.784174070234	1
1	25464	10300.211687649954	0
1	25785	10412.620229425324	1
1	25789	10413.268216994639	0
1	25850	10430.171143915443	1
1	25851	10430.806516252129	0
1	25860	10432.229877158577	1
1	25861	10432.37854310634	0
1	25867	10433.062791601861	1
1	25869	10433.597899791989	0
1	25952	10458.375300714994	1
1	25959	10458.975121672844	0
1	26050	10503.839167857956	1
1	26051	10504.457747417006	0
1	26105	10524.822437976611	1
1	26106	10525.216999618749	0
1	26180	10550.344441649826	1
1	26181	10550.812133583321	0
1	26187	10551.25060501726	1
1	26189	10551.689648188065	0
1	26222	10560.167389449087	1
1	26234	10561.345435576216	0
1	26437	10658.650920674778	1
1	26446	10659.779541718909	0
1	26484	10664.932152449865	1
1	26486	10665.357539394258	0
1	26570	10690.530031719167	1
1	26571	10690.678468659949	0
1	26575	10691.550986626056	1
1	26576	10692.230098175878	0
1	26912	10839.429841226462	1
1	26914	10839.817478775724	0
1	27190	10976.130305330393	1
1	27191	10976.256260543557	0
1	27195	10976.983206474789	1
1	27201	10981.020228538481	0
1	27350	11045.828237343211	1
1	27359	11047.344725659112	0
1	27695	11189.892606291528	1
1	27696	11193.173198078623	0
1	28235	11476.409740069342	1
1	28236	11477.179849379096	0
1	28375	11529.590696681231	1
1	28376	11529.928734800666	0
1	28730	11642.786064015257	1
1	28731	11642.991093677234	0
1	28737	11643.807344772386	1
1	28744	11644.722996316373	0
1	29075	11785.482216988976	1
1	29076	11786.237611699255	0
1	29410	11925.902919141533	1
1	29411	11926.836691737094	0
1	29510	11954.159861934481	1
1	29511	11954.29567015959	0
1	29534	11962.866401814107	1
1	29540	11964.560912028091	2
1	29550	11966.870328032508	3
1	29551	11967.661673547382	2
1	29559	11969.142457573827	1
1	29564	11969.971145363429	0
1	29980	12141.445222283382	1
1	29981	12141.539926675254	0
1	30205	12224.767491902861	1
1	30206	12224.908685415675	0
1	30222	12227.950138153449	1
1	30224	12228.268765321334	0
1	30239	12229.984519986517	1
1	30241	12230.557348929792	0
1	30267	12234.35224754772	1
1	30269	12234.48841690075	0
1	30510	12381.662236446309	1
1	30511	12382.025174901397	0
1	31515	12876.805530143524	1
1	31516	12877.133277939063	0
1	31550	12882.381388792357	1
1	31551	12882.50955952754	0
1	31772	12963.303378286781	1
1	31774	12963.689246510282	0
1	32002	13059.512470738681	1
1	32004	13059.831075948388	0
1	32075	13073.462785611479	1
1	32076	13073.988695990867	0
1	32115	13081.10105070303	1
1	32121	13082.472133355666	0
1	32125	13082.880150630543	1
1	32129	13083.118166413584	0
1	32149	13085.610437920596	1
1	32151	13086.051445794933	0
1	32672	13338.620597488348	1
1	32674	13338.775317541382	0
1	32757	13372.633313655901	1
1	32760	13373.160460864335	2
1	32761	13373.259961203501	1
1	32764	13373.448175633361	0
1	32785	13376.89297239768	1
1	32786	13376.953187525889	0
1	33050	13460.345566505653	1
1	33051	13460.763289537656	0
1	33055	13461.179819824875	1
1	33056	13461.307699219838	0
1	33700	13766.332549725661	1
1	33701	13766.817311224618	0
1	33717	13768.920201482249	1
1	33722	13769.886420115826	2
1	33724	13770.214048924667	1
1	33728	13770.602252294188	0
1	33989	13865.206279394124	1
1	33992	13865.714226874058	2
1	33994	13865.747146885858	1
1	33997	13866.424481309765	2
1	34001	13867.106458166185	1
1	34013	13868.095239555259	0
1	34094	13887.2650612219	1
1	34099	13887.962369548005	0
1	34784	14132.821280982196	1
1	34794	14134.025672522609	0
1	35150	14269.267923317624	1
1	35151	14270.363081557486	0
1	35435	14453.619836704532	1
1	35436	14454.586247760766	0
1	35615	14533.431209370709	1
1	35616	14534.238001903662	0
1	35620	14534.674852108772	1
1	35624	14535.393705101455	0
1	36452	14859.712103369513	1
1	36454	14860.241478835884	0
1	36880	14984.661632418597	1
1	36881	14985.144836106716	0
1	36985	15039.568952846951	1
1	36986	15039.693724476413	0
1	38500	15759.677380811915	1
1	38501	15759.784673301866	0
1	38505	15760.700110798552	1
1	38506	15761.494403014883	0
1	38527	15764.008094632152	1
1	38534	15764.887269246767	0
1	38630	15787.82080991988	1
1	38631	15788.227342332923	0
1	38662	15804.040491296231	1
1	38694	15808.361354495212	0
1	39092	15930.172903602115	1
1	39094	15930.301481430257	0
1	39315	16058.592224677271	1
1	39324	16059.600638034204	0
1	39615	16189.61524533458	1
1	39616	16193.30800742036	0
1	39630	16195.674815894855	1
1	39631	16196.020943776776	0
1	39815	16238.185935053212	1
1	39821	16238.749177957812	0
1	39835	16241.137108543749	1
1	39836	16241.490279813153	0
1	39850	16243.365407248536	1
1	39851	16243.417123948081	0
1	39855	16243.969391763626	1
1	39856	16244.503213465352	0
1	39862	16245.003463083225	1
1	39864	16245.01385395037	0
1	39950	16261.189217976156	1
1	39951	16261.200067105262	0
1	40080	16340.435562927596	1
1	40081	16341.134125794005	0
1	40577	16461.178426643966	1
1	40579	16461.232795915577	0
1	40595	16463.933823637472	1
1	40596	16464.377666442437	0
1	40600	16464.811394054038	1
1	40601	16465.622499576534	0
1	41095	16650.735717282247	1
1	41096	16651.037342928185	0
1	41177	16662.4355835587	1
1	41184	16663.360492950771	0
1	41239	16671.595525662203	1
1	41246	16673.23052579891	0
1	41265	16677.720740192182	1
1	41266	16677.8437471441	0
1	41555	16770.515046517435	1
1	41559	16770.84429853072	0
1	41685	16792.860206336513	1
1	41686	16793.204323723145	0
1	41812	16827.440294836141	1
1	41814	16827.51426530468	0
1	42820	17247.509554321093	1
1	42821	17247.6121037858	0
1	42830	17249.700839278661	1
1	42834	17250.872024890523	0
1	42837	17251.11272394366	1
1	42839	17251.391740609356	0
1	42847	17252.543198382737	1
1	42859	17254.015720161292	0
1	42865	17254.885800482169	1
1	42866	17254.943405562855	0
1	43400	17573.08422060778	1
1	43401	17573.41389808161	0
1	43415	17575.49451452121	1
1	43416	17576.487362179859	0
1	43900	17760.913831249924	1
1	43904	17761.449496186316	0
1	44045	17817.909947549881	1
1	44051	17822.120216212068	0
1	44055	17822.775184798399	1
1	44056	17823.042878977657	0
1	44115	17836.949594630715	1
1	44119	17839.099128735242	0
1	44122	17839.316013917785	1
1	44124	17839.412484629969	0
1	44132	17840.693735677182	1
1	44135	17841.248133484499	2
1	44136	17841.673276179519	1
1	44139	17841.681415217961	0
1	44154	17843.378715272436	1
1	44156	17843.559119187766	0
1	44362	17959.70410830483	1
1	44365	17960.329913728332	2
1	44370	17961.022845331278	3
1	44371	17961.717539625607	2
1	44374	17962.342022528503	1
1	44377	17962.447903067611	2
1	44380	17962.969103811674	3
1	44381	17962.997112457738	2
1	44386	17963.905812129655	1
1	44389	17964.338061861555	0
1	44417	17967.708436029075	1
1	44419	17968.218561567202	0
1	44425	17968.732281582706	1
1	44426	17969.013229762903	0
1	44430	17969.48620348461	1
1	44431	17969.492034859049	0
1	44465	17980.086186580818	1
1	44466	17980.161327849064	0
1	44492	17983.823331072336	1
1	44496	17984.125245194869	0
1	44499	17984.805558578126	1
1	44503	17985.318881383418	0
1	44520	17988.295373897874	1
1	44521	17988.317633593567	0
1	44760	18050.591327630667	1
1	44761	18051.217927743419	0
1	45172	18219.94088642892	1
1	45174	18220.207778049129	0
1	45707	18376.532463926495	1
1	45709	18376.728373904699	0
1	45740	18382.057773745888	1
1	45741	18383.523042646977	0
1	45900	18451.081135695608	1
1	45901	18451.33091596968	0
1	46075	18533.15089421165	1
1	46076	18533.861861892605	0
1	46285	18633.375714091599	1
1	46286	18633.384889170018	0
1	46290	18634.222088382256	1
1	46291	18634.494718631254	0
1	47490	19206.072611171475	1
1	47491	19206.244128558282	0
1	47495	19206.666089480985	1
1	47496	19206.992124821636	0
1	48295	19526.542668558416	1
1	48296	19527.473670567514	0
1	48315	19529.984116630431	1
1	48316	19530.281440430868	0
1	48465	19598.743669741248	1
1	48466	19598.904557461299	0
1	48500	19608.123163605544	1
1	48501	19608.200391754621	0
1	48505	19609.164133755138	1
1	48506	19609.466888324496	0
1	48515	19610.820442378194	1
1	48521	19612.544101591358	0
1	48845	19738.518242197668	1
1	48846	19738.589460861182	0
1	49565	20025.2029841151	1
1	49566	20025.870188484518	0
1	49572	20026.414134557163	1
1	49575	20026.836027695276	2
1	49576	20026.876777601195	1
1	49580	20027.406122296256	2
1	49594	20030.813298742726	1
1	49597	20031.429158529974	2
1	49599	20032.054471246116	1
1	49604	20032.131959408457	0
1	50317	20306.77038801482	1
1	50322	20307.301364443051	2
1	50331	20309.135179008485	1
1	50336	20309.986643274252	0
1	50339	20310.017799172026	1
1	50341	20310.424016449429	0
1	50344	20310.793254753609	1
1	50346	20310.854659071839	0
1	50655	20423.807151567764	1
1	50656	20424.171500164499	0
1	50755	20455.477872152818	1
1	50756	20455.683339962579	0
1	51142	20630.418339486316	1
1	51144	20631.125074496454	0
1	51340	20736.752884925244	1
1	51341	20737.512868504541	0
1	51405	20767.378257896616	1
1	51406	20767.884143627093	0
1	51472	20797.93808945327	1
1	51475	20798.913792699649	2
1	51476	20800.811162660098	1
1	51479	20800.860725575399	0
1	51484	20801.545939966491	1
1	51487	20802.013892661654	2
1	51490	20802.828360879481	3
1	51491	20803.493648918636	2
1	51495	20804.080446130002	3
1	51500	20805.423899057472	4
1	51501	20806.613825013764	3
1	51504	20806.771274493056	2
1	51510	20808.56711327396	3
1	51511	20808.739788859358	2
1	51514	20808.749390208896	1
1	51516	20808.974408244389	0
1	51519	20809.639313364422	1
1	51521	20809.889770465242	0
1	52165	21065.690074048504	1
1	52166	21066.106809236388	0
1	52350	21128.700368992887	1
1	52351	21128.733228223138	0
1	52515	21168.98033499415	1
1	52516	21169.536254412966	0
1	52527	21173.291864738492	1
1	52531	21173.898754635691	0
1	52720	21259.765543461307	1
1	52721	21259.809979607602	0
1	52745	21263.510685191621	1
1	52751	21265.316249010157	0
1	52784	21270.199158534285	1
1	52786	21270.352811018401	0
1	52802	21272.882215114747	1
1	52804	21273.037639627196	0
1	52822	21275.669142554951	1
1	52826	21278.208541572993	0
1	52910	21323.829686561668	1
1	52911	21324.026132321598	0
1	52920	21325.205224084536	1
1	52921	21326.088141397118	0
1	53045	21372.272171633945	1
1	53046	21372.376653093824	0
1	53536	21541.412586304264	1
1	53539	21541.920288462376	2
1	53541	21542.041497777521	1
1	53544	21542.353699484885	2
1	53550	21543.555592475178	3
1	53551	21544.123905415916	2
1	53555	21544.779622335489	3
1	53556	21545.521817317273	2
1	53559	21545.889482188807	1
1	53562	21546.078654348798	2
1	53564	21546.106904046463	1
1	53569	21546.81713903732	2
1	53571	21547.07303286804	1
1	53577	21548.3665780832	2
1	53584	21549.506652700779	1
1	53594	21551.495736827967	0
1	53597	21551.766141903349	1
1	53602	21552.431695950632	2
1	53614	21553.760701524639	3
1	53624	21555.261118341364	4
1	53636	21557.894831186985	3
1	53641	21560.81700260386	2
1	53644	21561.224427885999	1
1	53649	21561.606108885055	2
1	53651	21561.698665290442	1
1	53659	21562.962334432622	2
1	53661	21563.156753836577	1
1	53669	21564.429240043816	2
1	53673	21564.83206607131	1
1	53678	21565.298907385747	0
1	54025	21641.059961960833	1
1	54026	21641.892307498618	0
1	54037	21643.653645461365	1
1	54039	21643.882730628453	0
1	54185	21690.998267812012	1
1	54186	21691.044893260106	0
1	54190	21691.915609064085	1
1	54191	21692.056618820797	0
1	54195	21692.999745352487	1
1	54196	21693.016746441261	0
1	54200	21693.500554300877	1
1	54201	21693.855851607676	0
1	54205	21694.711394213791	1
1	54206	21694.739326909759	0
1	54260	21706.005160294079	1
1	54261	21706.035574219744	0
1	54689	21872.981687648284	1
1	54695	21874.212743972537	2
1	54696	21874.971437633715	1
1	54699	21875.267241406794	0
1	54702	21875.701425781592	1
1	54704	21876.251982997497	0
1	54810	21900.933566271257	1
1	54811	21901.004701575599	0
1	54947	21932.007663938687	1
1	54951	21935.697897136738	0
1	55195	22022.078470112218	1
1	55196	22022.089148115578	0
1	55200	22023.073486385333	1
1	55201	22023.304560867364	0
1	55205	22023.717020157252	1
1	55206	22024.1197272343	0
1	55425	22134.771682492628	1
1	55426	22135.26998885568	0
1	55685	22217.326145069788	1
1	55689	22217.815204217355	0
1	55692	22218.10408182558	1
1	55695	22218.573704241396	2
1	55696	22218.878105212355	1
1	55701	22220.204028220488	0
1	55980	22332.235636581201	1
1	55981	22332.377033252092	0
1	56155	22382.362802858808	1
1	56159	22382.822039737055	0
1	56167	22384.226568513469	1
1	56170	22385.187986045296	2
1	56171	22387.381434305984	1
1	56174	22387.622233122183	0
1	56297	22451.005039685094	1
1	56299	22451.18504409145	0
1	56490	22526.057208023431	1
1	56491	22529.689694836493	0
1	56695	22590.279364266871	1
1	56700	22590.785109494517	2
1	56709	22592.436053552235	1
1	56718	22593.104731796653	0
1	56721	22593.440504128105	1
1	56723	22594.035431031601	0
1	56782	22603.140623375208	1
1	56789	22603.982024770327	0
1	56940	22662.609033665039	1
1	56944	22664.242055629822	0
1	56950	22665.536722554166	1
1	56951	22666.787053122554	0
1	57130	22715.35571608552	1
1	57134	22716.264318511094	0
1	57142	22717.742669558793	1
1	57144	22717.784971049036	0
1	57152	22719.065103730688	1
1	57154	22719.390193513371	0
1	57162	22719.990244044679	1
1	57179	22722.340480756175	0
1	57350	22797.349343786477	1
1	57351	22797.88840773915	0
1	57542	22894.428071489333	1
1	57544	22895.09646160146	0
1	57987	23060.950458819653	1
1	57990	23061.378843499675	2
1	57999	23064.160528742686	3
1	58001	23064.58692325485	2
1	58007	23065.578567232262	3
1	58009	23065.927566899876	2
1	58014	23066.27392215465	1
1	58016	23066.52229681993	0
1	58019	23066.656684557698	1
1	58025	23068.139152417263	2
1	58026	23069.333271736849	1
1	58029	23069.405339551131	0
1	58041	23070.552660767186	1
1	58043	23070.773690387046	0
1	58285	23164.128382875854	1
1	58289	23164.836009856122	0
1	58292	23165.291925243863	1
1	58294	23165.633172006289	0
1	58702	23302.863238746549	1
1	58704	23303.510145273439	0
1	58707	23303.600378603551	1
1	58711	23305.365800349747	0
1	58750	23313.298557686641	1
1	58754	23314.937291993674	0
1	58792	23319.235061204472	1
1	58794	23319.770317089388	0
1	59262	23521.283063789363	1
1	59264	23521.943168172613	0
1	59267	23522.242584157594	1
1	59271	23522.816435701073	0
1	59330	23538.228648382298	1
1	59334	23538.440844631533	0
1	60955	24234.488585718263	1
1	60956	24235.496935072957	0
1	61535	24510.294039613467	1
1	61544	24512.009628485742	0
1	61922	24647.531431412487	1
1	61924	24647.65646047639	0
1	61927	24648.151595455571	1
1	61931	24649.076264740639	0
1	61997	24684.084178522811	1
1	61999	24684.456491074188	0
1	62017	24687.072497380408	1
1	62021	24688.159119719982	0
1	62027	24688.912863296939	1
1	62029	24689.531270671942	0
1	62032	24689.608849992108	1
1	62034	24690.252363896631	0
1	62037	24690.530434010894	1
1	62039	24690.715965394159	0
1	62750	24945.444244075431	1
1	62751	24946.213496708551	0
1	62770	24949.202060501284	1
1	62771	24949.669575529471	0
1	63195	25104.118046759084	1
1	63196	25104.910778607252	0
1	63200	25105.422310337621	1
1	63201	25105.5163645953	0
1	63205	25106.129008802638	1
1	63206	25106.408246240279	0
1	63210	25106.815613108248	1
1	63211	25108.512847262135	0
1	63215	25108.922587685732	1
1	63216	25108.971155016374	0
1	63225	25109.872649829666	1
1	63226	25111.432837755895	0
1	63230	25112.256865719949	1
1	63231	25112.70297738089	0
1	63297	25124.618642896782	1
1	63300	25125.020839147917	2
1	63301	25126.531106199025	1
1	63305	25127.423895876742	2
1	63306	25127.694415364412	1
1	63310	25128.148979269571	2
1	63311	25128.199296137487	1
1	63316	25128.561330786466	0
1	63332	25130.97758988117	1
1	63334	25131.350742765326	0
1	63345	25133.10318836866	1
1	63346	25135.218244236494	0
1	63465	25159.564578434234	1
1	63466	25161.124974344869	0
1	63470	25161.872245693638	1
1	63471	25162.424816906845	0
1	63485	25165.60754991296	1
1	63486	25165.676511044624	0
1	63490	25166.448245636896	1
1	63491	25166.763277760239	0
1	63724	25252.929609879486	1
1	63726	25253.133474317678	0
1	63735	25255.220324093623	1
1	63736	25255.427564580083	0
1	63910	25383.52855629125	1
1	63911	25383.860296603088	0
1	64465	25661.64898964411	1
1	64474	25663.69818698342	0
1	64900	25813.161331154475	1
1	64901	25813.547267936599	0
1	65245	25891.656127943494	1
1	65246	25892.412092513113	0
1	65275	25904.708631689063	1
1	65276	25905.614147372328	0
1	65585	26078.247137877196	1
1	65586	26078.557880799269	0
1	65660	26100.194596065721	1
1	65661	26102.309050126521	0
1	66130	26292.946188029439	1
1	66131	26293.690966908826	0
1	66140	26294.614184476395	1
1	66141	26295.462906639373	0
1	66262	26321.508875030565	1
1	66266	26322.798014071329	0
1	66854	26550.413765629866	1
1	66856	26550.856838396648	0
1	66862	26551.881505223662	1
1	66864	26552.06930001924	0
1	67124	26680.257186591708	1
1	67126	26680.549003793388	0
1	67136	26682.147247788393	1
1	67146	26683.584992627276	0
1	67149	26683.875016875835	1
1	67152	26684.692611085893	2
1	67155	26685.658909015627	3
1	67156	26685.881610998107	2
1	67159	26685.997558284516	1
1	67169	26688.089377336472	0
1	67455	26792.199083144175	1
1	67456	26792.322293002543	0
1	67545	26819.582791842668	1
1	67546	26819.762087507262	0
1	67565	26823.521681297821	1
1	67566	26823.83367883003	0
1	67682	26901.031788695962	1
1	67685	26901.750194774461	2
1	67686	26902.144897539875	1
1	67690	26902.560722286402	2
1	67703	26903.528942926156	1
1	67713	26904.539885418401	2
1	67715	26904.716549032677	1
1	67720	26905.383633241146	0
1	67731	26906.991569403563	1
1	67733	26907.368769601901	0
1	67742	26908.997792059001	1
1	67744	26909.072692948615	0
1	67865	26953.113820220694	1
1	67866	26953.21060811713	0
1	68437	27228.472092446763	1
1	68439	27228.555380130282	0
1	68565	27294.50037567486	1
1	68566	27295.082002724919	0
1	68570	27295.638964164003	1
1	68571	27298.145140267565	0
1	68575	27298.698691427643	1
1	68579	27299.453263175702	0
1	68614	27303.545646867506	1
1	68621	27304.186009281022	0
1	68990	27484.204143631599	1
1	68999	27486.143101624176	0
1	69005	27486.558479313616	1
1	69006	27487.136134389322	0
1	70495	28178.471077875126	1
1	70496	28179.597608938134	0
1	70740	28311.794415061189	1
1	70741	28312.373736064418	0
1	70745	28312.786320349297	1
1	70746	28312.835075896281	0
1	71045	28450.501811713752	1
1	71046	28451.222819436647	0
1	71050	28452.013051528696	1
1	71051	28452.537529448934	0
1	71300	28577.154289546519	1
1	71301	28577.894288370854	0
1	71550	28696.890993020951	1
1	71551	28698.117196462554	0
1	71852	28808.316491356472	1
1	71855	28809.169509719758	2
1	71856	28809.405994788474	1
1	71861	28810.510046430951	0
1	72075	28898.301484025629	1
1	72076	28898.878255902978	0
1	72095	28901.472164644854	1
1	72096	28903.17835938897	0
1	73417	29448.913705395593	1
1	73421	29449.426425371809	0
1	73662	29557.609418244401	1
1	73664	29558.075511474739	0
1	73940	29669.596301933801	1
1	73941	29669.666452467733	0
1	74005	29712.255819410819	1
1	74006	29713.344482136338	0
1	74070	29725.324807158245	1
1	74071	29725.758207799817	0
1	74077	29726.705171229408	1
1	74084	29728.91353010214	0
1	74225	29779.684488742107	1
1	74226	29780.687540744486	0
1	74360	29843.645871168388	1
1	74365	29844.806144689001	2
1	74366	29844.896404358543	1
1	74371	29845.630361140306	0
1	74390	29848.019955602867	1
1	74391	29848.245321017793	0
2	0	0	0
2	5	8.312526862358	1
2	6	8.811483945509	0
2	70	28.763244031097	1
2	71	28.826666177104	0
2	80	29.57025394591	1
2	81	30.482947017432	0
2	85	30.706914625441	1
2	86	31.473796682193	0
2	90	31.485457841883	1
2	91	32.073379644326	0
2	95	32.201712365017	1
2	98	32.701954976696	0
2	105	33.819319885283	1
2	106	34.153189456084	0
2	140	43.088070614007	1
2	141	43.212098867005	0
2	145	43.291875638539	1
2	146	43.8799526111	0
2	150	43.963339577506	1
2	151	44.564780952014	0
2	225	66.663037862401	1
2	226	67.061278693171	0
2	325	151.032560315867	1
2	328	151.522848952145	0
2	335	152.486467638017	1
2	336	153.017284400578	0
2	350	171.241481023712	1
2	351	171.627793959256	0
2	360	172.67177349498	1
2	361	173.042283579668	0
2	490	208.670920496507	1
2	491	208.931365316871	0
2	575	242.511007101802	1
2	576	242.539096474088	0
2	585	243.315702425003	1
2	586	243.613749826187	0
2	870	417.666462997942	1
2	871	418.044693527103	0
2	910	438.326995952187	1
2	911	438.481751723009	0
2	955	454.644311862308	1
2	956	455.343501119132	0
2	1010	501.055328346987	1
2	1011	501.725959896381	0
2	1022	503.194733090289	1
2	1023	503.490201273412	0
2	1045	510.683975916254	1
2	1046	511.408298170532	0
2	1135	561.625984510883	1
2	1136	562.1608404968	0
2	1195	589.371830419732	1
2	1196	590.039423411244	0
2	1205	591.215883021614	1
2	1206	591.688504154828	0
2	1265	623.699889889499	1
2	1266	624.064857483916	0
2	1270	624.38917315302	1
2	1273	624.768615346197	0
2	1277	625.031386883111	1
2	1278	625.424638277041	0
2	1282	625.685530832212	1
2	1283	626.144597688299	0
2	1290	626.799155509495	1
2	1291	627.63299695624	0
2	1315	635.337241427376	1
2	1316	635.892870736603	0
2	1360	650.474803729402	1
2	1361	651.274527411406	0
2	1530	740.667071274517	1
2	1531	741.514400805092	0
2	1535	742.010633419579	1
2	1536	742.100089680475	0
2	1540	742.655098162159	1
2	1541	743.034277562729	0
2	1545	743.144337149993	1
2	1546	743.51892834257	0
2	1662	797.159147001993	1
2	1664	797.285941425193	2
2	1665	797.733826424865	1
2	1668	798.176952391662	0
2	1710	810.463172248906	1
2	1711	810.632494633777	0
2	1765	835.698921607296	1
2	1766	835.855769902409	0
2	1785	842.046555215389	1
2	1786	842.394284315843	0
2	1820	860.049634739859	1
2	1822	860.306702061489	2
2	1823	860.525493165434	1
2	1828	860.980945900038	0
2	1832	861.04325782811	1
2	1833	861.464208891664	0
2	1837	861.775681565868	1
2	1838	862.020813362396	0
2	1842	862.259877659462	1
2	1843	863.007303692496	0
2	1850	864.15263350729	1
2	1851	864.379118020509	0
2	1920	886.074937060322	1
2	1923	886.631691101823	0
2	1930	887.843885538955	1
2	1931	888.265843984742	0
2	2042	921.233445199795	1
2	2043	922.049055511537	0
2	2080	940.176158304102	1
2	2081	940.644107974184	0
2	2210	1003.537156148302	1
2	2211	1004.129926130652	0
2	2227	1007.161719917	1
2	2228	1007.638869853105	0
2	2305	1036.681439036497	1
2	2306	1037.234448797986	0
2	2325	1040.392897125753	1
2	2328	1040.909747746078	0
2	2335	1041.87819231197	1
2	2336	1042.12392376671	0
2	2532	1131.939840068342	1
2	2533	1132.750654448355	0
2	2540	1133.72543109193	1
2	2543	1133.894824495046	0
2	2550	1134.722020028498	1
2	2551	1135.199268347323	0
2	2595	1187.957159130681	1
2	2596	1188.683330217182	0
2	2600	1188.690156748234	1
2	2601	1189.277064965797	0
2	2612	1191.356161773376	1
2	2613	1191.611901902786	0
2	2655	1203.806653445573	1
2	2656	1204.129957482931	0
2	2745	1237.6310653894	1
2	2746	1238.263786948043	0
2	2770	1246.112939788287	1
2	2771	1246.63784088095	0
2	2790	1253.605254775871	1
2	2791	1253.77445870428	0
2	2894	1277.660472847287	1
2	2895	1278.450855040354	0
2	2902	1279.737271271652	1
2	2904	1280.027072985015	2
2	2905	1280.211804572716	1
2	2908	1280.806185648907	0
2	2921	1282.426492172407	1
2	2922	1282.568013998671	0
2	2944	1285.846763136951	1
2	2945	1286.326719058762	0
2	2954	1287.509858066408	1
2	2955	1287.957798308265	0
2	2970	1290.620347373747	1
2	2971	1290.745925154668	0
2	2980	1291.478698187736	1
2	2981	1292.226519041406	0
2	2990	1293.136976718891	1
2	2991	1293.823937229523	0
2	2995	1294.408382333791	1
2	2996	1294.715966184847	0
2	3000	1295.204803814664	1
2	3005	1295.430363138569	0
2	3012	1296.32783266404	1
2	3013	1296.808562453408	0
2	3020	1298.487777930649	1
2	3021	1298.492772925543	0
2	3075	1318.221198306812	1
2	3076	1318.837739548963	0
2	3085	1319.926165318212	1
2	3086	1320.1507143747	0
2	3095	1321.358697457121	1
2	3098	1322.226384911426	0
2	3102	1322.939191260996	1
2	3103	1323.031212485089	0
2	3107	1323.478365948001	1
2	3108	1323.787274839981	0
2	3112	1324.340872500093	1
2	3113	1324.496326331767	0
2	3117	1324.646654806201	1
2	3119	1325.203175523109	2
2	3120	1325.224832563634	1
2	3124	1325.307281552123	2
2	3125	1326.118909676951	1
2	3129	1326.478312059285	2
2	3130	1326.970893983842	1
2	3133	1327.947075548276	0
2	3137	1328.049675071725	1
2	3138	1328.936625389402	0
2	3190	1349.493315314464	1
2	3191	1349.72189311175	0
2	3195	1350.117538027359	1
2	3196	1350.672818222729	0
2	3200	1350.896041135236	1
2	3203	1351.432486219791	0
2	3220	1354.267715192239	1
2	3221	1354.316930264741	0
2	3230	1355.132300866088	1
2	3231	1355.95812402232	0
2	3375	1424.811284450023	1
2	3376	1425.165229888981	0
2	3390	1427.663659091263	1
2	3392	1427.738912942289	2
2	3393	1428.446388421901	1
2	3396	1428.983159996564	0
2	3405	1429.926160867662	1
2	3406	1430.417703672074	0
2	3440	1441.510992864511	1
2	3441	1441.753468864019	0
2	3575	1477.677364773492	1
2	3576	1477.815866067114	0
2	3635	1496.464259468362	1
2	3636	1496.7330277254	0
2	3645	1497.709256501173	1
2	3646	1498.216756993359	0
2	3660	1502.436295258173	1
2	3661	1502.519610631794	0
2	3665	1502.575215151762	1
2	3666	1503.09682218903	0
2	3700	1510.082236543637	1
2	3701	1510.296759571053	0
2	3720	1514.789306105959	1
2	3721	1515.207514479103	0
2	3735	1517.840131421277	1
2	3736	1518.37356457207	0
2	3785	1536.679539200084	1
2	3788	1537.065389530088	0
2	3875	1598.891439880024	1
2	3876	1599.012810261711	0
2	3880	1599.115448817216	1
2	3881	1599.706867855159	0
2	3920	1610.287001787965	1
2	3921	1610.806982344974	0
2	3955	1616.957287759468	1
2	3956	1617.456086945517	0
2	3960	1617.691194704048	1
2	3961	1617.902628366726	0
2	3965	1617.913903739587	1
2	3966	1618.590717457684	0
2	3970	1618.674121806961	1
2	3972	1619.043682153218	2
2	3973	1619.456822983159	1
2	3976	1620.278284454841	0
2	3985	1621.751204327572	1
2	3986	1622.559528617648	0
2	3990	1622.937209470276	1
2	3991	1623.105862948758	0
2	4000	1623.86819730102	1
2	4002	1623.917606783745	2
2	4003	1624.421915284584	1
2	4006	1624.871572475175	0
2	4010	1625.016198502515	1
2	4011	1625.35876970025	0
2	4037	1634.772721754849	1
2	4038	1634.954589609783	0
2	4042	1634.970925944988	1
2	4043	1635.890612173714	0
2	4054	1637.083132435519	1
2	4055	1637.39200421691	0
2	4062	1638.081975460417	1
2	4063	1638.57182486903	0
2	4067	1638.596115784956	1
2	4070	1639.014986950374	0
2	4105	1644.363748792281	1
2	4106	1644.859142577261	0
2	4115	1645.629848151496	1
2	4116	1646.003064590445	0
2	4125	1647.174174756793	1
2	4126	1647.193902798448	0
2	4157	1682.920346529948	1
2	4158	1682.991172300829	0
2	4175	1692.546125424176	1
2	4176	1692.832968415923	0
2	4180	1693.063098667705	1
2	4181	1693.373805666945	0
2	4210	1700.493947693287	1
2	4211	1700.942300909929	0
2	4240	1720.720746699126	1
2	4241	1720.873867120362	0
2	4380	1789.169573126309	1
2	4381	1789.336517138605	0
2	4635	1916.810573290572	1
2	4636	1917.524763635568	0
2	4645	1920.080263799154	1
2	4646	1920.478699585518	0
2	4665	1931.883072251075	1
2	4669	1932.087502857578	2
2	4670	1932.221063510201	1
2	4675	1932.930393073999	0
2	4682	1933.872580194452	1
2	4683	1933.917436878023	0
2	4692	1934.557706970337	1
2	4693	1934.941135640502	0
2	5000	2094.753302170662	1
2	5002	2095.029866417261	2
2	5003	2095.132213545217	1
2	5006	2095.562364806886	0
2	5050	2110.423566793635	1
2	5051	2110.637780938204	0
2	5160	2180.310882321373	1
2	5161	2180.843472664186	0
2	5290	2247.611590611557	1
2	5291	2248.080249530059	0
2	5350	2288.081956883536	1
2	5351	2288.256504266273	0
2	5355	2288.433574937338	1
2	5356	2288.670076429548	0
2	5420	2332.98523275161	1
2	5421	2333.322927762223	0
2	5430	2334.782279410488	1
2	5431	2334.963221417395	0
2	5437	2335.19055753021	1
2	5438	2335.376358672492	0
2	5445	2336.491862151793	1
2	5446	2336.652401672704	0
2	5470	2347.257979220104	1
2	5471	2347.906040774566	0
2	5500	2351.960433430641	1
2	5502	2352.290902849225	2
2	5503	2352.654221983952	1
2	5506	2353.261407148279	0
2	5550	2386.471931719901	1
2	5551	2387.180481146136	0
2	5595	2395.051497250743	1
2	5596	2395.519307678869	0
2	5630	2401.340088467648	1
2	5633	2401.863406517788	0
2	5637	2402.263764356972	1
2	5638	2402.688426622993	0
2	5650	2404.084216795759	1
2	5651	2404.798520528729	0
2	5665	2408.215125828608	1
2	5666	2408.346771232075	0
2	5730	2471.652024596511	1
2	5731	2471.821395312427	0
2	5760	2486.885057106634	1
2	5761	2486.977454654	0
2	5815	2503.427608609622	1
2	5816	2503.665208761742	0
2	5825	2504.125013184786	1
2	5827	2504.533489322123	2
2	5828	2504.913703843414	1
2	5833	2505.436324498358	0
2	5970	2590.054987863639	1
2	5971	2590.543198498249	0
2	5987	2592.773070414717	1
2	5988	2593.352774267396	0
2	5992	2593.454108430339	1
2	5994	2593.529802791719	2
2	5995	2593.765374489766	1
2	6000	2594.754856402552	0
2	6085	2625.64890810336	1
2	6086	2625.832100631919	0
2	6105	2635.746924178326	1
2	6106	2636.132383998521	0
2	6115	2637.32990217945	1
2	6116	2638.007425665227	0
2	6120	2638.444001532455	1
2	6121	2638.484916411457	0
2	6125	2638.515170846735	1
2	6126	2638.956915063993	0
2	6205	2676.32076055047	1
2	6206	2676.732528508817	0
2	6255	2685.605368913029	1
2	6256	2686.348640611048	0
2	6265	2687.790355770277	1
2	6266	2687.830791881568	0
2	6300	2698.695164902245	1
2	6301	2699.354171702156	0
2	6315	2702.985135423454	1
2	6316	2703.166812634609	0
2	6320	2703.28129233691	1
2	6321	2703.810804649351	0
2	6365	2731.934555931761	1
2	6366	2732.065923399948	0
2	6405	2748.402379645583	1
2	6406	2748.796315812664	0
2	6425	2753.217384993579	1
2	6426	2753.526094093979	0
2	6475	2783.346644726906	1
2	6476	2783.476435718448	0
2	6489	2785.155640124955	1
2	6490	2785.231466190685	0
2	6497	2786.336706787415	1
2	6498	2786.547067494765	0
2	6512	2788.812139735761	1
2	6513	2788.84003992264	0
2	6517	2789.169169447133	1
2	6518	2789.787073100981	0
2	6522	2789.839480367539	1
2	6523	2790.478308485699	0
2	6527	2790.558037380855	1
2	6528	2791.147702426574	0
2	6532	2791.216772509178	1
2	6533	2791.928326930449	0
2	6545	2793.299960534466	1
2	6546	2793.957397483642	0
2	6560	2795.365950558015	1
2	6561	2795.725797626111	0
2	6575	2797.257013505489	1
2	6576	2797.672310515691	0
2	6605	2805.072808594348	1
2	6606	2805.522042902555	0
2	6620	2807.124465794612	1
2	6622	2807.556209975766	2
2	6623	2807.796600105379	1
2	6628	2808.26940913624	0
2	6632	2808.372793838518	1
2	6633	2808.8207856304	0
2	6640	2810.012048851447	1
2	6641	2810.197091330401	0
2	6645	2810.332465532414	1
2	6648	2810.823656245553	0
2	6700	2843.427323029198	1
2	6701	2843.629293806344	0
2	6710	2844.806810122725	1
2	6713	2845.555714832996	0
2	6720	2846.342799664513	1
2	6721	2847.200353363208	0
2	6730	2847.972898936888	1
2	6731	2848.313171233828	0
2	6830	2897.19465641137	1
2	6831	2898.052018067125	0
2	6835	2898.822953352	1
2	6836	2899.003274391941	0
2	6845	2900.418262044486	1
2	6846	2900.773336024373	0
2	6855	2901.611774967715	1
2	6858	2901.986986343795	0
2	6862	2901.989886493414	1
2	6863	2902.578035993734	0
2	6867	2902.631392622653	1
2	6868	2903.334593052044	0
2	6940	2932.660924700923	1
2	6941	2933.349014414412	0
2	6960	2938.346063447761	1
2	6961	2938.43586528659	0
2	6965	2938.436338567234	1
2	6966	2939.367182714298	0
2	6975	2940.390941203773	1
2	6976	2941.007664915073	0
2	7025	2964.637268939182	1
2	7026	2965.120456989472	0
2	7030	2965.693210543555	1
2	7031	2965.991634348677	0
2	7035	2966.022082265444	1
2	7036	2966.88175448439	0
2	7040	2967.002458989614	1
2	7041	2967.436919462578	0
2	7045	2967.947066286555	1
2	7046	2968.116139109842	0
2	7150	3043.617579844732	1
2	7151	3044.002914168133	0
2	7200	3062.075553199842	1
2	7201	3062.305967874114	0
2	7275	3112.437611420149	1
2	7276	3112.518568600828	0
2	7355	3168.984536510622	1
2	7356	3169.732571275335	0
2	7420	3188.904600734887	1
2	7421	3189.014627266762	0
2	7500	3232.278829522643	1
2	7501	3232.43213822456	0
2	7580	3264.432653733786	1
2	7581	3264.99316062952	0
2	7605	3282.274815315855	1
2	7606	3282.314240582472	0
2	7662	3304.353948922929	1
2	7665	3305.181687888639	0
2	7672	3305.763734859337	1
2	7673	3306.421329001147	0
2	7700	3312.714989434865	1
2	7701	3313.150011640265	0
2	7815	3356.555354819218	1
2	7816	3357.39790574423	0
2	7825	3359.006150603137	1
2	7826	3359.92428616032	0
2	7860	3372.652325794133	1
2	7861	3373.279554512802	0
2	7867	3374.158712630458	1
2	7868	3374.215787253933	0
2	7912	3396.731468358613	1
2	7913	3396.870435588561	0
2	7920	3397.458893483453	1
2	7921	3398.399296626854	0
2	7930	3399.334761754948	1
2	7931	3399.85854601882	0
2	8000	3430.097927563321	1
2	8001	3430.67154475171	0
2	8010	3431.634833603697	1
2	8011	3432.064636333496	0
2	8015	3432.117533395109	1
2	8016	3432.988203646498	0
2	8020	3433.14636046597	1
2	8021	3433.410244905133	0
2	8025	3433.640539866815	1
2	8026	3434.10097463869	0
2	8030	3434.145089356143	1
2	8031	3434.693731122953	0
2	8035	3434.88335832017	1
2	8036	3435.585542149074	0
2	8050	3437.775136734218	1
2	8051	3438.383693344464	0
2	8085	3462.049587163983	1
2	8086	3462.70265762985	0
2	8120	3477.513673462524	1
2	8121	3477.563869444884	0
2	8315	3558.428844711576	1
2	8316	3558.458137270025	0
2	8322	3558.676511398102	1
2	8323	3559.343545420523	0
2	8385	3581.047529101364	1
2	8386	3581.098258126662	0
2	8495	3617.456987307788	1
2	8496	3617.962051385467	0
2	8540	3631.960008456611	1
2	8541	3632.520696438943	0
2	8555	3635.300162821215	1
2	8556	3635.919936888769	0
2	8645	3675.898993207689	1
2	8646	3676.353863862061	0
2	8667	3679.970849865596	1
2	8668	3680.335233461034	0
2	8677	3681.102448338742	1
2	8678	3681.758663379323	0
2	8760	3702.19880788054	1
2	8761	3702.537681403012	0
2	8800	3714.107030374263	1
2	8801	3714.715177557002	0
2	8810	3715.892961476435	1
2	8811	3716.158942549834	0
2	8830	3718.344431292135	1
2	8835	3719.027669521229	0
2	8865	3723.765727797987	1
2	8867	3724.090998247099	2
2	8868	3724.331711840728	1
2	8871	3724.913745054375	0
2	8877	3725.353581123263	1
2	8878	3725.397691139398	0
2	8887	3727.016207311368	1
2	8888	3727.147287310153	0
2	8910	3730.710659688022	1
2	8911	3731.455605095328	0
2	8940	3741.567771957211	1
2	8941	3742.116135046068	0
2	8950	3742.946882547581	1
2	8951	3743.580335391444	0
2	8970	3756.213075828346	1
2	8971	3756.237197247303	0
2	9170	3869.28356696786	1
2	9171	3869.682667308476	0
2	9200	3882.91234264685	1
2	9201	3883.687954576175	0
2	9205	3884.044301375225	1
2	9206	3884.602782750829	0
2	9210	3885.042615872005	1
2	9211	3885.326388539049	0
2	9215	3885.786655030481	1
2	9217	3885.793827876468	2
2	9219	3885.875560062905	3
2	9220	3886.105147308811	2
2	9225	3886.700343518799	1
2	9229	3886.986797670018	2
2	9231	3887.06326607498	3
2	9232	3887.460839323236	2
2	9236	3887.488403698129	3
2	9239	3887.881769706171	2
2	9243	3888.311143932112	3
2	9245	3888.534505521584	4
2	9246	3888.70612155772	3
2	9250	3888.79540268609	4
2	9251	3889.450182911942	3
2	9254	3889.912058884047	2
2	9257	3890.909185535369	1
2	9261	3891.198727893494	2
2	9262	3891.321222710238	1
2	9266	3891.978513711846	2
2	9267	3892.209043154448	1
2	9270	3893.021773703584	0
2	9277	3893.639989414564	1
2	9280	3894.351760523302	0
2	9287	3895.188538694253	1
2	9288	3895.587652867195	0
2	9295	3896.515789481094	1
2	9296	3897.131651212462	0
2	9305	3898.369002444865	1
2	9306	3898.697911809833	0
2	9320	3907.50134131246	1
2	9321	3908.24912561852	0
2	9415	3937.290351501674	1
2	9418	3937.982039282081	0
2	9430	3939.334639972241	1
2	9432	3939.722322917137	2
2	9433	3939.947323609172	1
2	9440	3940.876454126817	0
2	9446	3941.247628895531	1
2	9447	3941.749628717528	0
2	9500	3953.127512025032	1
2	9501	3953.854080332597	0
2	9525	3961.42054038045	1
2	9526	3962.379939345907	0
2	9640	3998.756850229095	1
2	9642	3998.84498294979	2
2	9645	3999.173432072138	1
2	9648	3999.959858787132	0
2	9652	4000.538366341589	1
2	9653	4000.539637617094	0
2	9725	4041.571721643643	1
2	9726	4041.729691014534	0
2	9780	4059.43862495712	1
2	9781	4059.60999894763	0
2	9930	4122.401964373505	1
2	9931	4122.476954508548	0
2	9935	4122.507559894869	1
2	9938	4123.064308481685	0
2	9947	4123.613850089048	1
2	9948	4124.480345257114	0
2	10005	4143.916227342076	1
2	10006	4144.820346233488	0
2	10140	4193.561364554185	1
2	10145	4194.178380689347	0
2	10154	4195.002270714275	1
2	10155	4195.295900547826	0
2	10162	4196.065097918065	1
2	10163	4196.411741292333	0
2	10415	4317.171084011054	1
2	10416	4317.643437096563	0
2	10430	4325.263291924343	1
2	10431	4326.160743578035	0
2	10445	4328.010452188795	1
2	10446	4328.193684055667	0
2	10450	4328.583074251202	1
2	10451	4329.110851456049	0
2	10480	4369.469936513044	1
2	10481	4369.645812820376	0
2	10565	4392.37443465721	1
2	10568	4392.992620598954	0
2	10575	4394.427615496204	1
2	10576	4394.957012437527	0
2	10635	4405.089138569375	1
2	10637	4405.351591758546	2
2	10639	4405.401082059982	3
2	10640	4405.58133210698	2
2	10643	4406.44829482748	1
2	10646	4407.052901485654	0
2	10662	4409.443497008111	1
2	10664	4409.672848620247	2
2	10665	4409.830026478439	1
2	10669	4410.292052406514	2
2	10670	4410.477761124845	1
2	10674	4410.813593289746	2
2	10675	4410.980224570006	1
2	10679	4411.102834253968	2
2	10680	4411.801070769483	1
2	10683	4412.270658499867	0
2	10687	4412.30198413084	1
2	10688	4413.144048317315	0
2	10700	4416.268023009273	1
2	10701	4416.86210549619	0
2	10710	4417.994043834967	1
2	10711	4418.44551291923	0
2	10715	4418.510091877649	1
2	10718	4419.057444542423	0
2	10722	4419.130038177441	1
2	10723	4419.822217321498	0
2	10727	4419.999521176784	1
2	10728	4420.512648228611	0
2	10755	4424.221970595967	1
2	10756	4425.139899664893	0
2	10775	4450.487899440342	1
2	10778	4450.968432731698	0
2	10785	4452.331349536934	1
2	10786	4452.356757566896	0
2	10865	4473.072997603537	1
2	10866	4473.167280341269	0
2	10870	4473.191568221721	1
2	10871	4474.157239683209	0
2	10875	4474.235985570666	1
2	10876	4474.569580383975	0
2	10880	4474.830702395985	1
2	10881	4475.544293059133	0
2	10945	4507.121721116943	1
2	10946	4507.177146497124	0
2	10980	4518.84067293433	1
2	10982	4519.034410100775	2
2	10983	4519.130043064272	1
2	10988	4519.606891933158	0
2	10995	4520.144909018282	1
2	10996	4520.510598198445	0
2	11005	4521.677994984113	1
2	11006	4521.849642199959	0
2	11120	4573.978689889887	1
2	11121	4574.224343650488	0
2	11135	4576.1431209939	1
2	11136	4576.686951564874	0
2	11140	4576.695496228328	1
2	11141	4577.462038998881	0
2	11185	4597.795279791373	1
2	11186	4598.366406040263	0
2	11190	4598.560963657052	1
2	11191	4599.28690569	0
2	11270	4645.22573722614	1
2	11271	4645.444183082968	0
2	11275	4646.026544580161	1
2	11276	4646.083636112461	0
2	11280	4646.276009869095	1
2	11281	4646.662171339287	0
2	11285	4646.701836645757	1
2	11286	4647.607759453912	0
2	11305	4655.34242437535	1
2	11306	4655.530871233393	0
2	11312	4656.137153545698	1
2	11313	4656.284121793371	0
2	11375	4696.355129118267	1
2	11376	4696.60104535849	0
2	11387	4697.751990287541	1
2	11388	4697.828748064285	0
2	11392	4698.256673068477	1
2	11393	4698.421828315483	0
2	11397	4698.431543240254	1
2	11398	4699.122326161835	0
2	11405	4699.963438686957	1
2	11406	4700.53836139695	0
2	11427	4703.273509821116	1
2	11429	4703.592445287669	2
2	11430	4703.881015678524	1
2	11433	4704.317861129419	0
2	11439	4704.8471488478	1
2	11440	4705.050417262764	0
2	11446	4705.616234694688	1
2	11449	4705.768277501111	0
2	11453	4705.773404660779	1
2	11454	4706.600762128626	0
2	11606	4782.485684866406	1
2	11607	4782.646806316946	0
2	11650	4790.280957355489	1
2	11653	4790.945822267159	0
2	11662	4791.721107320031	1
2	11665	4792.274831411912	0
2	11775	4827.844031565849	1
2	11776	4828.244423982112	0
2	11822	4849.198462591454	1
2	11823	4849.78505216882	0
2	11827	4850.165693911889	1
2	11828	4850.44869357644	0
2	11840	4856.976809926008	1
2	11841	4857.468208215258	0
2	11905	4879.705912708093	1
2	11906	4880.119318955283	0
2	12050	4967.349938775779	1
2	12051	4967.904186392419	0
2	12205	5025.353513799054	1
2	12206	5025.596244597742	0
2	12272	5059.04951983244	1
2	12273	5059.367628432107	0
2	12285	5060.962366323844	1
2	12286	5061.378316956258	0
2	12445	5131.425456246247	1
2	12446	5131.628700789061	0
2	12520	5160.272486773868	1
2	12521	5160.611372844013	0
2	12577	5186.325789098199	1
2	12578	5187.110881816406	0
2	12627	5197.484939721621	1
2	12628	5197.902027690932	0
2	12647	5202.344775610168	1
2	12648	5202.871795425332	0
2	12695	5210.328079261312	1
2	12696	5210.800245704779	0
2	12745	5228.717228893024	1
2	12746	5229.255808899051	0
2	12805	5244.824634320119	1
2	12806	5245.306727964519	0
2	12815	5248.057289207867	1
2	12816	5248.705302899368	0
2	13035	5338.753472674613	1
2	13036	5339.493431221918	0
2	13040	5340.093014871319	1
2	13041	5340.306520233202	0
2	13045	5340.564777970846	1
2	13046	5341.234508841011	0
2	13065	5344.104827086514	1
2	13066	5344.785971168506	0
2	13155	5381.265713660677	1
2	13156	5381.789782621266	0
2	13225	5405.444087591273	1
2	13226	5405.638120807478	0
2	13285	5434.65948088651	1
2	13286	5435.270938786922	0
2	13295	5435.795446693944	1
2	13297	5435.867807498697	2
2	13300	5436.254156720836	1
2	13305	5436.905345063947	0
2	13380	5460.77258150957	1
2	13381	5460.806695970249	0
2	13400	5463.055183255313	1
2	13401	5463.732852803301	0
2	13447	5487.92393954345	1
2	13448	5488.34809463656	0
2	13457	5489.526350416371	1
2	13458	5489.556106996615	0
2	13465	5490.700276037361	1
2	13466	5491.250112017509	0
2	13495	5497.392685194459	1
2	13496	5498.157341751319	0
2	13500	5498.251130839199	1
2	13503	5498.787669844416	0
2	13507	5498.829292478676	1
2	13508	5499.594589524486	0
2	13555	5511.172365687863	1
2	13556	5512.077581207988	0
2	13595	5524.670978010343	1
2	13596	5525.335931985317	0
2	13652	5560.862964526663	1
2	13653	5560.999408531544	0
2	13657	5561.119241967568	1
2	13658	5561.604446411954	0
2	13665	5562.317907034883	1
2	13666	5562.902327976825	0
2	13720	5584.213999395941	1
2	13721	5584.346080853442	0
2	13755	5601.502758367648	1
2	13756	5601.616012216114	0
2	13850	5627.641506151139	1
2	13851	5628.283479913586	0
2	13900	5649.864639370074	1
2	13901	5650.009891220659	0
2	13975	5691.007241963749	1
2	13976	5691.116560257406	0
2	13980	5691.599794489394	1
2	13984	5691.781489113177	2
2	13987	5692.05435325838	1
2	13991	5692.113426332054	2
2	13992	5692.631481673423	1
2	13996	5692.740470735939	2
2	13998	5692.852252498877	3
2	14001	5693.494237030851	2
2	14004	5694.22623514905	1
2	14007	5694.718013643142	0
2	14013	5695.399887390737	1
2	14014	5695.511915369978	0
2	14026	5697.686615795649	1
2	14027	5697.777213787748	0
2	14036	5698.427781933593	1
2	14037	5698.800177780301	0
2	14046	5699.957153884026	1
2	14047	5700.147214967566	0
2	14056	5700.791113950555	1
2	14057	5701.678810449219	0
2	14064	5702.630365662834	1
2	14065	5703.227145329252	0
2	14072	5704.546295069789	1
2	14073	5704.660177123448	0
2	14084	5705.554869281825	1
2	14085	5706.053838238627	0
2	14295	5774.88405274843	1
2	14296	5775.156852768459	0
2	14305	5776.066046195728	1
2	14310	5776.435216822283	0
2	14316	5776.716000472482	1
2	14317	5776.897468546446	0
2	14321	5777.001186799107	1
2	14322	5777.300061951013	0
2	14326	5777.708565947734	1
2	14327	5777.983473619254	0
2	14334	5779.401795814414	1
2	14335	5779.673039693332	0
2	14430	5812.480696031073	1
2	14431	5812.5942186086	0
2	14440	5813.665661486737	1
2	14441	5814.1892071371	0
2	14450	5815.529234521047	1
2	14451	5816.421886596072	0
2	14545	5853.163010653633	1
2	14546	5853.935542385149	0
2	14610	5883.163054104342	1
2	14611	5883.704195860291	0
2	14620	5884.832437084479	1
2	14621	5885.14697650525	0
2	14730	5941.318582204256	1
2	14731	5941.512990203161	0
2	14735	5941.906955016665	1
2	14736	5942.511055060184	0
2	14745	5943.622754989955	1
2	14746	5944.17915154657	0
2	14790	5965.830706255726	1
2	14791	5965.873264211796	0
2	14845	5981.881641676017	1
2	14846	5982.543863442284	0
2	14880	5996.310451416184	1
2	14881	5996.374292745387	0
2	15035	6062.934786273148	1
2	15036	6063.133830255226	0
2	15140	6110.036526547721	1
2	15141	6110.924035780099	0
2	15145	6110.955936677553	1
2	15146	6111.580129471249	0
2	15155	6112.532006879758	1
2	15157	6112.575553482688	2
2	15158	6112.892807011127	1
2	15162	6112.955759243256	2
2	15163	6113.715118537431	1
2	15166	6114.468148756872	0
2	15175	6115.98159319378	1
2	15176	6116.474528650574	0
2	15180	6116.933872049813	1
2	15181	6116.968147021167	0
2	15185	6117.495906504644	1
2	15186	6117.510379983818	0
2	15192	6117.879367853654	1
2	15193	6118.293550624892	0
2	15202	6119.181818250687	1
2	15203	6120.095502187506	0
2	15235	6168.241074914809	1
2	15236	6168.888595252062	0
2	15292	6184.796382029738	1
2	15293	6184.802873519266	0
2	15345	6200.362146360786	1
2	15346	6200.385785486468	0
2	15350	6201.24446295625	1
2	15351	6201.316656439531	0
2	15355	6201.413838222129	1
2	15357	6201.487714705477	2
2	15358	6201.942378898676	1
2	15361	6202.481555001636	0
2	15440	6247.363945284726	1
2	15443	6247.93157591757	0
2	15450	6248.796956926861	1
2	15451	6249.477050458198	0
2	15575	6340.29411183474	1
2	15576	6340.704329419807	0
2	15585	6341.712672586233	1
2	15586	6342.152583846376	0
2	15635	6367.458808532086	1
2	15636	6367.500280774241	0
2	15660	6380.85939915955	1
2	15661	6381.488642797018	0
2	15665	6381.649975660528	1
2	15666	6382.008656511041	0
2	15670	6382.058341310328	1
2	15671	6382.807383360066	0
2	15675	6382.912629005289	1
2	15676	6383.230613814485	0
2	15690	6385.087560969984	1
2	15691	6385.225669057072	0
2	15695	6385.637540484503	1
2	15696	6386.096994936476	0
2	15785	6439.206536425685	1
2	15788	6440.148704809741	0
2	15810	6446.444119763158	1
2	15811	6446.677439978793	0
2	15885	6474.185100011251	1
2	15886	6474.592605666183	0
2	15980	6531.261860763258	1
2	15981	6531.829323548521	0
2	16010	6536.723792005193	1
2	16011	6537.384843385373	0
2	16015	6537.402655197716	1
2	16018	6537.918322270051	0
2	16026	6538.45264864517	1
2	16027	6538.806756033622	0
2	16031	6539.033912667127	1
2	16032	6539.336566449156	0
2	16036	6539.978804934729	1
2	16037	6540.277572897322	0
2	16041	6540.50311826124	1
2	16042	6541.115884728835	0
2	16046	6541.121319468183	1
2	16047	6541.751365882031	0
2	16051	6542.2400473041	1
2	16054	6542.446263240616	0
2	16058	6542.701628064636	1
2	16059	6543.110087560921	0
2	16063	6543.42733765816	1
2	16064	6543.831311145763	0
2	16071	6545.063811885365	1
2	16072	6545.339688954142	0
2	16140	6559.835820615911	1
2	16141	6560.195675312713	0
2	16212	6593.029828975525	1
2	16213	6593.234618830576	0
2	16225	6595.240348676703	1
2	16226	6595.797817941131	0
2	16242	6613.342109556779	1
2	16243	6613.553391231387	0
2	16252	6614.390003245159	1
2	16253	6614.95730976637	0
2	16260	6615.69355741613	1
2	16261	6616.194486927078	0
2	16272	6617.151698734038	1
2	16273	6617.533955997298	0
2	16287	6619.894905959416	1
2	16288	6620.244240197892	0
2	16292	6620.413801648404	1
2	16293	6620.671601282832	0
2	16327	6635.088191690002	1
2	16328	6635.186503940859	0
2	16341	6636.196669052038	1
2	16342	6636.934157768163	0
2	16352	6638.866040595128	1
2	16355	6639.756546279034	0
2	16362	6640.576271095374	1
2	16363	6640.999915573784	0
2	16369	6641.613134073343	1
2	16370	6641.791821271079	0
2	16435	6666.641996142155	1
2	16436	6667.392275785859	0
2	16450	6668.733591245751	1
2	16453	6669.156895094954	0
2	16605	6724.749175574147	1
2	16606	6725.042996430606	0
2	16610	6725.35481183866	1
2	16611	6725.54343778633	0
2	16735	6797.433156821458	1
2	16736	6797.856664088021	0
2	16760	6802.618441428541	1
2	16763	6803.443287096425	0
2	16770	6804.482141465263	1
2	16771	6804.603260208314	0
2	16785	6823.153792899115	1
2	16786	6823.201165603146	0
2	16800	6825.040970264899	1
2	16801	6825.600944730845	0
2	16825	6845.789103121277	1
2	16826	6845.846481901304	0
2	16920	6896.872938571912	1
2	16921	6897.412640668143	0
2	16945	6914.059397798005	1
2	16946	6914.266983789811	0
2	16965	6917.68132452428	1
2	16966	6917.708663534863	0
2	16970	6917.89173556372	1
2	16971	6918.144162293594	0
2	16995	6922.218999904236	1
2	16996	6922.763330322533	0
2	17047	6933.721316772908	1
2	17049	6933.846083039693	2
2	17050	6934.339683429395	1
2	17053	6934.926574023963	0
2	17057	6934.966587774808	1
2	17058	6935.802355482393	0
2	17090	6950.862620085625	1
2	17091	6951.146138067655	0
2	17107	6953.549427181715	1
2	17108	6953.672667376609	0
2	17115	6954.384265805159	1
2	17116	6954.582226867793	0
2	17145	6967.146367751595	1
2	17146	6967.403416271694	0
2	17150	6967.745480495283	1
2	17152	6967.761454639953	2
2	17153	6968.235752935149	1
2	17157	6968.507688823435	2
2	17158	6968.91595202107	1
2	17161	6969.412227812875	0
2	17170	6970.513844497449	1
2	17171	6970.906290900619	0
2	17175	6971.088415980168	1
2	17176	6971.428479043492	0
2	17190	6973.844012062669	1
2	17191	6974.114762057069	0
2	17200	6975.233042825364	1
2	17201	6975.778924664699	0
2	17210	6976.514689080502	1
2	17211	6976.845646139824	0
2	17215	6977.284694762008	1
2	17216	6977.364775509837	0
2	17257	6993.524524996212	1
2	17258	6993.843264406637	0
2	17290	7008.053970984305	1
2	17291	7008.455189885722	0
2	17450	7048.854162956559	1
2	17453	7049.274273339536	0
2	17464	7050.077602283523	1
2	17465	7050.699150656879	0
2	17472	7051.585003100285	1
2	17473	7051.972378418891	0
2	17477	7052.254674131345	1
2	17478	7052.747964512155	0
2	17482	7053.237739608264	1
2	17483	7053.358061585686	0
2	17492	7054.050050077854	1
2	17493	7054.368337664118	0
2	17510	7057.012961123638	1
2	17511	7057.883311103713	0
2	17655	7130.374228841955	1
2	17656	7130.614141434302	0
2	17662	7131.199255938984	1
2	17663	7131.603492127695	0
2	17675	7133.599169130274	1
2	17676	7134.20498296801	0
2	17690	7135.993988296383	1
2	17691	7136.771864572914	0
2	17700	7138.152623595612	1
2	17701	7138.949932678727	0
2	17705	7139.137653021516	1
2	17706	7139.596102491146	0
2	17710	7140.112010132045	1
2	17711	7140.390205759587	0
2	17715	7140.585301931086	1
2	17716	7140.843704396099	0
2	17720	7141.022421637014	1
2	17721	7141.563933964897	0
2	17725	7141.818899856722	1
2	17730	7142.361866817329	0
2	17734	7142.807407352531	1
2	17735	7143.32319770249	0
2	17742	7144.485629303274	1
2	17743	7144.554243288267	0
2	17835	7196.674512012824	1
2	17836	7197.083549903287	0
2	17840	7197.295692897207	1
2	17841	7197.707716230955	0
2	17845	7198.101454328762	1
2	17846	7198.401026323903	0
2	17850	7198.428865308308	1
2	17851	7198.974558340758	0
2	17860	7200.013373436865	1
2	17861	7200.570906757966	0
2	17900	7212.99629178812	1
2	17901	7213.662185661596	0
2	17945	7226.251787991489	1
2	17946	7226.914823776528	0
2	17955	7227.71532810724	1
2	17956	7228.239820115452	0
2	18060	7285.529582818021	1
2	18061	7286.430246321092	0
2	18065	7286.868894886875	1
2	18066	7287.046726608117	0
2	18070	7287.071125200471	1
2	18071	7287.533590929144	0
2	18112	7309.718227425378	1
2	18113	7310.123653944223	0
2	18210	7345.942015529571	1
2	18211	7346.104571747047	0
2	18235	7352.685711794563	1
2	18236	7353.169605900291	0
2	18245	7354.555092099042	1
2	18246	7354.722891146168	0
2	18255	7355.9331046818	1
2	18256	7356.295825527599	0
2	18260	7357.020934883092	1
2	18261	7357.170552882356	0
2	18265	7357.284164159655	1
2	18266	7358.071862464155	0
2	18270	7358.398141405219	1
2	18271	7359.038679635747	0
2	18275	7359.106241312626	1
2	18276	7359.807949612652	0
2	18345	7405.753666948043	1
2	18346	7406.310131324699	0
2	18360	7408.03124942898	1
2	18361	7408.115964581251	0
2	18435	7430.968672348943	1
2	18436	7431.436141946024	0
2	18475	7450.623682601682	1
2	18476	7450.696670110001	0
2	18540	7468.977188577258	1
2	18541	7469.536944350902	0
2	18590	7487.016738980169	1
2	18591	7487.200626967516	0
2	18600	7488.283117107218	1
2	18601	7488.743269687164	0
2	18635	7509.533118287349	1
2	18636	7509.929557728408	0
2	18645	7511.020183340289	1
2	18646	7511.787230607507	0
2	18705	7527.019281070289	1
2	18706	7527.096731551163	0
2	18715	7528.156557127953	1
2	18716	7528.892529638316	0
2	18725	7529.86857099405	1
2	18726	7530.451049103047	0
2	18750	7541.201152228985	1
2	18751	7541.808802937862	0
2	18765	7549.034220284142	1
2	18766	7549.762048179795	0
2	18770	7549.988051503355	1
2	18771	7550.223032065247	0
2	18775	7550.353504059695	1
2	18776	7551.115223326207	0
2	18785	7552.328979118324	1
2	18786	7552.622309996699	0
2	18795	7553.523186438488	1
2	18796	7554.101877004088	0
2	18815	7560.226988694638	1
2	18816	7560.276576186425	0
2	18915	7603.913781985199	1
2	18916	7604.174132099263	0
2	18945	7635.851231670744	1
2	18946	7636.603050285975	0
2	18950	7636.890762026871	1
2	18951	7637.035433428433	0
2	18955	7637.171415572617	1
2	18956	7637.727375125816	0
2	19170	7767.853869412906	1
2	19171	7768.406597454841	0
2	19180	7769.41948608031	1
2	19181	7770.27254064241	0
2	19310	7849.264599893797	1
2	19313	7849.481557232576	0
2	19322	7850.503377609565	1
2	19323	7850.712336610366	0
2	19390	7884.584983599806	1
2	19391	7885.056550915235	0
2	19395	7885.447277876472	1
2	19396	7885.64977558886	0
2	19400	7885.970294227795	1
2	19403	7886.104401151438	0
2	19410	7887.757118203362	1
2	19411	7887.967230728802	0
2	19435	7892.043183529011	1
2	19438	7892.458883340872	0
2	19505	7905.467459402636	1
2	19506	7905.824414435093	0
2	19515	7906.69154607595	1
2	19516	7907.320042181172	0
2	19520	7907.657848419553	1
2	19521	7908.11943486763	0
2	19525	7908.468077831367	1
2	19526	7908.811619277129	0
2	19530	7909.09417032554	1
2	19531	7909.301076171657	0
2	19555	7912.536853220558	1
2	19556	7913.1385892584	0
2	19560	7913.268977179746	1
2	19561	7914.096977400688	0
2	19567	7914.934250043532	1
2	19568	7915.001061967296	0
2	19572	7915.044346309715	1
2	19573	7915.79767071833	0
2	19580	7916.909577399915	1
2	19581	7917.253745664377	0
2	19600	7920.349597034401	1
2	19601	7921.316169172778	0
2	19612	7922.627928636414	1
2	19613	7922.792772524684	0
2	19624	7923.949073278287	1
2	19625	7924.303292296847	0
2	19632	7924.927128016493	1
2	19633	7925.430979366713	0
2	19642	7926.417091015735	1
2	19643	7927.184273418012	0
2	19650	7928.186518810084	1
2	19655	7929.077647387302	0
2	19664	7929.909173242417	1
2	19665	7930.217480356219	0
2	19672	7930.825032956363	1
2	19673	7931.521836294625	0
2	19682	7932.684171213862	1
2	19683	7932.954010639824	0
2	19690	7934.373804418767	1
2	19691	7934.389056723397	0
2	19710	7937.240039177313	1
2	19711	7938.033512677434	0
2	19740	7945.947245772459	1
2	19741	7945.975257851416	0
2	19754	7947.084645441002	1
2	19755	7947.380359430983	0
2	19762	7948.412706908555	1
2	19765	7948.874807619349	0
2	19790	7952.565109218437	1
2	19791	7952.923982886151	0
2	19892	7995.801782589464	1
2	19893	7995.92815830723	0
2	19900	7996.997261468685	1
2	19903	7997.709350174168	0
2	19910	7998.434876811929	1
2	19911	7998.780486089658	0
2	19915	7999.26220776453	1
2	19918	7999.772869031239	0
2	19922	8000.011438356077	1
2	19923	8000.548525501476	0
2	19927	8000.705148278791	1
2	19928	8001.392715729322	0
2	19932	8001.728321443567	1
2	19933	8001.826396978102	0
2	19937	8001.911740385991	1
2	19938	8002.31465991355	0
2	19942	8002.842065569007	1
2	19943	8002.966100115948	0
2	19972	8014.928454253502	1
2	19973	8015.376768161875	0
2	19990	8028.574533063216	1
2	19991	8029.370928021765	0
2	20020	8089.54304922901	1
2	20021	8089.687189862722	0
2	20070	8104.541082167378	1
2	20071	8105.088891833788	0
2	20085	8114.265399470828	1
2	20086	8114.658153727685	0
2	20120	8125.254205578717	1
2	20121	8126.182867073849	0
2	20157	8133.279616110433	1
2	20158	8133.439037332009	0
2	20275	8153.719581830868	1
2	20276	8154.220533141056	0
2	20307	8160.205724044765	1
2	20308	8160.213502248459	0
2	20320	8164.12137124215	1
2	20321	8164.299059016418	0
2	20330	8164.94971761059	1
2	20331	8165.664873838538	0
2	20345	8167.373096321831	1
2	20346	8168.025613027846	0
2	20415	8191.471189265931	1
2	20416	8191.772777993253	0
2	20422	8192.171733025197	1
2	20423	8192.343926673776	0
2	20427	8192.56449670149	1
2	20428	8193.300905139206	0
2	20432	8193.311514143804	1
2	20434	8193.320660144127	2
2	20435	8193.790025928916	1
2	20438	8194.336064557239	0
2	20442	8194.728782241139	1
2	20443	8195.127254271527	0
2	20447	8195.337953977831	1
2	20448	8195.646192522693	0
2	20452	8195.800023554127	1
2	20453	8196.546446603138	0
2	20457	8196.725546809002	1
2	20458	8197.103038727466	0
2	20462	8197.317288415851	1
2	20463	8197.880904666541	0
2	20510	8215.267026983934	1
2	20511	8215.988933955156	0
2	20555	8240.972289505717	1
2	20556	8241.042002624308	0
2	20565	8242.168241860324	1
2	20566	8242.421628722807	0
2	20575	8243.244968631137	1
2	20577	8243.397020286851	2
2	20578	8243.668776242834	1
2	20581	8244.099689806186	0
2	20585	8244.18561598496	1
2	20586	8244.823823399077	0
2	20615	8252.325744875854	1
2	20616	8252.651388695185	0
2	20675	8280.717593518743	1
2	20676	8280.805694953519	0
2	20685	8281.576183975485	1
2	20686	8282.463360750656	0
2	20695	8283.729617782228	1
2	20696	8283.981371190543	0
2	20745	8297.546111409292	1
2	20748	8297.850987204877	0
2	20752	8298.066587621306	1
2	20753	8298.426727809911	0
2	20850	8338.046436700898	1
2	20851	8338.195454265937	0
2	20880	8354.935429063947	1
2	20881	8354.941308069917	0
2	20885	8355.145999282599	1
2	20886	8355.644622525469	0
2	20945	8378.729528843223	1
2	20946	8378.75005243903	0
2	20997	8392.774751818577	1
2	20998	8393.255325515514	0
2	21005	8394.704218701999	1
2	21006	8394.798092018572	0
2	21035	8409.272605572118	1
2	21036	8409.708582810839	0
2	21055	8436.579932857364	1
2	21056	8436.584641751497	0
2	21085	8459.358199465691	1
2	21086	8459.930472495625	0
2	21095	8460.716228380866	1
2	21096	8461.188909358936	0
2	21180	8504.390385929277	1
2	21181	8504.427526814607	0
2	21190	8505.60093864633	1
2	21191	8506.042215311272	0
2	21235	8518.713565886793	1
2	21236	8518.718114504198	0
2	21245	8519.876094068798	1
2	21246	8520.243225365577	0
2	21265	8524.685224154386	1
2	21267	8524.781200970684	2
2	21268	8524.791720711307	1
2	21271	8525.426925450151	0
2	21280	8526.593403159394	1
2	21281	8527.133552272345	0
2	21330	8548.791368497456	1
2	21331	8549.508754239124	0
2	21340	8555.623942762863	1
2	21341	8556.254725592089	0
2	21600	8677.578214104602	1
2	21601	8678.078128775173	0
2	21635	8698.066122128906	1
2	21636	8698.495693051225	0
2	21640	8698.91556034155	1
2	21641	8698.998445323777	0
2	21645	8699.096956206506	1
2	21646	8699.840752369321	0
2	21657	8706.863352530649	1
2	21658	8706.86613314269	0
2	21670	8708.476493103944	1
2	21671	8709.098500031008	0
2	21720	8724.712385962136	1
2	21721	8725.685151889505	0
2	21730	8726.376738051236	1
2	21731	8726.884176961994	0
2	21875	8775.530897435452	1
2	21876	8775.673923069433	0
2	21889	8776.441361457502	1
2	21890	8777.297740482361	0
2	21905	8782.692828778779	1
2	21906	8783.08297626004	0
2	21915	8783.858975229176	1
2	21916	8783.922572975656	0
2	21925	8785.413119249245	1
2	21926	8785.623176005813	0
2	21935	8792.916240459246	1
2	21936	8793.461073158831	0
2	21965	8802.663012306243	1
2	21966	8803.039587847348	0
2	21995	8813.955212370924	1
2	21997	8813.987842845449	2
2	21998	8814.068137744204	1
2	22003	8814.760912698596	0
2	22007	8815.114635609797	1
2	22010	8815.44804529021	0
2	22035	8825.558945743474	1
2	22036	8825.931643628207	0
2	22090	8847.939073645164	1
2	22091	8848.346368833746	0
2	22140	8877.569449480026	1
2	22141	8878.151659306904	0
2	22180	8892.26495938694	1
2	22181	8892.689193466172	0
2	22205	8898.022591221817	1
2	22206	8898.553905400339	0
2	22210	8899.120894309436	1
2	22211	8899.204212117971	0
2	22260	8935.525463178909	1
2	22261	8936.019120130118	0
2	22270	8937.232149129892	1
2	22271	8937.651532013377	0
2	22295	8952.783187992086	1
2	22296	8953.608326400156	0
2	22355	8975.068527642302	1
2	22356	8975.723455638043	0
2	22410	9000.092105283242	1
2	22411	9000.553615370046	0
2	22430	9005.134502562723	1
2	22431	9005.753315183536	0
2	22445	9012.850488136828	1
2	22446	9012.956150998263	0
2	22877	9190.085243119329	1
2	22878	9190.357325333642	0
2	22895	9192.739753487664	1
2	22898	9193.193917669681	0
2	22940	9205.466917018298	1
2	22944	9205.874268741024	2
2	22945	9206.100093950503	1
2	22948	9206.522323673157	0
2	23080	9261.247150150928	1
2	23081	9261.567569705773	0
2	23090	9262.167181234808	1
2	23091	9262.680351550992	0
2	23110	9272.633923419702	1
2	23111	9273.055110504486	0
2	23115	9273.633679193058	1
2	23116	9273.751403201565	0
2	23120	9274.006902374655	1
2	23121	9274.289810200509	0
2	23155	9309.020212768534	1
2	23158	9309.583627669278	0
2	23162	9309.968690130226	1
2	23163	9310.452162289431	0
2	23167	9310.779839657293	1
2	23168	9311.03923155614	0
2	23175	9311.760462373248	1
2	23176	9312.350563594557	0
2	23365	9424.416419664981	1
2	23366	9425.060732445984	0
2	23370	9425.27645479033	1
2	23371	9425.964567297536	0
2	23375	9426.172915658808	1
2	23376	9426.915252212367	0
2	23380	9427.00244461518	1
2	23381	9427.734303509283	0
2	23400	9431.706950510667	1
2	23401	9432.404053448019	0
2	23430	9443.460747490601	1
2	23431	9444.036034070549	0
2	23465	9458.058045885745	1
2	23466	9458.2524970947	0
2	23595	9520.545047761679	1
2	23596	9521.164055929212	0
2	23620	9524.177152178336	1
2	23621	9524.939772596557	0
2	23687	9544.112929817759	1
2	23688	9544.447675591469	0
2	23704	9546.151354179846	1
2	23705	9546.635829737637	0
2	23745	9560.980742371231	1
2	23746	9561.133281558577	0
2	23780	9568.830515531818	1
2	23781	9569.352664413175	0
2	23802	9574.383944269527	1
2	23803	9574.559001649681	0
2	23814	9575.145142443292	1
2	23816	9575.318307423916	2
2	23817	9575.782697555979	1
2	23822	9576.286446082263	0
2	23842	9578.890056838557	1
2	23843	9578.941726397067	0
2	23945	9617.7195109629	1
2	23946	9617.984467233204	0
2	24005	9644.34663055452	1
2	24006	9644.387508293521	0
2	24015	9645.419759674417	1
2	24016	9646.269749867311	0
2	24045	9652.997671109325	1
2	24046	9653.666242201606	0
2	24120	9693.283034938591	1
2	24121	9693.507255959948	0
2	24180	9714.888409389892	1
2	24181	9715.545106750246	0
2	24195	9717.187754765378	1
2	24196	9717.544761223675	0
2	24210	9719.160144680218	1
2	24213	9720.056817601732	0
2	24220	9721.096422602776	1
2	24221	9721.641563220899	0
2	24245	9727.507920241185	1
2	24246	9727.886058206365	0
2	24325	9772.193799028827	1
2	24326	9772.790438363551	0
2	24385	9786.250466424463	1
2	24386	9787.092960878331	0
2	24450	9827.574343503283	1
2	24451	9827.587048689841	0
2	24455	9827.610416869179	1
2	24456	9827.993682690157	0
2	24507	9858.980148972676	1
2	24508	9859.189119615702	0
2	24522	9861.030707393892	1
2	24523	9861.34748990556	0
2	24532	9862.474551246441	1
2	24533	9863.137139846215	0
2	24557	9868.357767954503	1
2	24558	9868.505752808127	0
2	24592	9874.607927334921	1
2	24593	9874.911767538538	0
2	24602	9875.900626336194	1
2	24603	9876.688000996079	0
2	24612	9877.482091607223	1
2	24613	9877.875531831797	0
2	24624	9878.773776020001	1
2	24625	9879.557747444504	0
2	24787	9966.739924555926	1
2	24788	9967.187166209316	0
2	24840	9988.233665069799	1
2	24841	9989.0787711936	0
2	24845	9989.224133516996	1
2	24846	9989.494379546768	0
2	24850	9989.986987528948	1
2	24851	9990.414325591358	0
2	24880	10011.95469558587	1
2	24881	10012.607622205203	0
2	24885	10012.886428137984	1
2	24886	10013.520879280956	0
2	24890	10013.74959086196	1
2	24891	10014.270171411026	0
2	25095	10159.424221156547	1
2	25096	10159.680356210738	0
2	25230	10225.640956832412	1
2	25231	10226.046014542868	0
2	25290	10240.502256524424	1
2	25291	10241.08008859187	0
2	25300	10242.457456930626	1
2	25301	10242.98491393996	0
2	25320	10250.924001891041	1
2	25321	10251.122855205805	0
2	25342	10267.139799201753	1
2	25343	10267.169369172798	0
2	25347	10267.549357964498	1
2	25348	10267.579018478961	0
2	25355	10268.559626233895	1
2	25356	10268.684465448539	0
2	25375	10271.581650631834	1
2	25376	10272.073122484026	0
2	25385	10273.43370281045	1
2	25386	10274.107153160512	0
2	25400	10276.212175160135	1
2	25401	10276.513910398555	0
2	25432	10294.351920707627	1
2	25434	10294.472605272626	2
2	25435	10294.883628322903	1
2	25438	10295.531073223261	0
2	25555	10328.834828475091	1
2	25556	10329.113941395078	0
2	25570	10344.307952638274	1
2	25571	10344.635535352584	0
2	25585	10347.61490977916	1
2	25586	10347.874415535309	0
2	25630	10367.294594666273	1
2	25633	10368.055007438239	0
2	25639	10368.271693173319	1
2	25642	10368.669212634925	0
2	25649	10369.754664763325	1
2	25650	10369.93625852458	0
2	25659	10370.721609270412	1
2	25660	10370.881290565261	0
2	25667	10371.538971089727	1
2	25668	10372.082467340507	0
2	25675	10372.928447058621	1
2	25679	10373.415412127218	2
2	25682	10373.569607970134	1
2	25685	10374.544082791607	0
2	25689	10375.108505868211	1
2	25690	10375.269133953952	0
2	25694	10375.790165559093	1
2	25695	10376.187060898791	0
2	25702	10377.136177744668	1
2	25705	10378.000705162126	0
2	25712	10378.649960888655	1
2	25713	10379.417311465244	0
2	25720	10380.114760118481	1
2	25721	10380.693780724907	0
2	25805	10416.058092322615	1
2	25806	10416.158272603971	0
2	25815	10416.974385814329	1
2	25816	10417.417909328339	0
2	25830	10419.549373330837	1
2	25831	10420.010946674188	0
2	25865	10432.799688754463	1
2	25866	10433.062791601861	0
2	25900	10448.913034897787	1
2	25901	10449.025300918871	0
2	25910	10450.316558223686	1
2	25911	10450.660616658561	0
2	25920	10451.629642602069	1
2	25921	10452.390421815722	0
2	25950	10457.872062337763	1
2	25951	10458.375300714994	0
2	25955	10458.666184569637	1
2	25956	10458.937680997901	0
2	25995	10471.784754018185	1
2	25996	10471.983926587267	0
2	26170	10548.464742035766	1
2	26173	10548.951735433047	0
2	26185	10551.075020393354	1
2	26186	10551.25060501726	0
2	26197	10552.88878597071	1
2	26198	10553.033215810345	0
2	26230	10560.873848800471	1
2	26231	10561.299113657542	0
2	26330	10612.741111525892	1
2	26332	10613.088600614426	2
2	26333	10613.501182554215	1
2	26338	10614.453951830156	0
2	26345	10615.316637533708	1
2	26346	10615.511107053161	0
2	26395	10646.15214125758	1
2	26396	10647.030769741802	0
2	26425	10657.315857672892	1
2	26426	10657.619860800184	0
2	26435	10658.329094705329	1
2	26436	10658.650920674778	0
2	26445	10659.283062296937	1
2	26450	10660.2577781208	0
2	26459	10661.165060238466	1
2	26460	10661.417794956467	0
2	26469	10662.339122608691	1
2	26470	10662.668827125956	0
2	26482	10664.205814881134	1
2	26483	10664.932152449865	0
2	26622	10717.127201277377	1
2	26623	10717.803173663517	0
2	26630	10719.17561890297	1
2	26631	10719.343415300691	0
2	26635	10719.550743420242	1
2	26636	10719.823972986828	0
2	26640	10720.388282249746	1
2	26641	10720.726643598595	0
2	26697	10750.668408263664	1
2	26698	10750.952314001587	0
2	27050	10915.702790665052	1
2	27051	10915.904423165055	0
2	27055	10916.019645304739	1
2	27058	10916.513341485815	0
2	27140	10952.087933106736	1
2	27141	10952.561895048954	0
2	27215	10983.51371083163	1
2	27218	10984.414245836893	0
2	27225	10985.512269595969	1
2	27226	10985.780648834761	0
2	27240	10989.913157280222	1
2	27241	10990.035825386787	0
2	27270	11016.214594832676	1
2	27272	11016.510909907636	2
2	27273	11016.787085840163	1
2	27277	11017.446200059429	2
2	27278	11017.496710210583	1
2	27281	11017.967487278963	0
2	27285	11018.07488816822	1
2	27286	11018.607936592643	0
2	27295	11019.634809075688	1
2	27297	11020.106494088901	2
2	27298	11020.20348166593	1
2	27301	11021.181838451443	0
2	27435	11079.558604900965	1
2	27436	11080.493307717228	0
2	27502	11090.687799331766	1
2	27503	11091.069807041758	0
2	27512	11092.241841382645	1
2	27513	11092.52817112342	0
2	27570	11123.637398561124	1
2	27571	11124.209230059488	0
2	27580	11124.735068259336	1
2	27581	11125.12150129238	0
2	27635	11159.539484885027	1
2	27636	11160.124184876493	0
2	27650	11162.149438745562	1
2	27651	11162.558974323846	0
2	27730	11213.191750067488	1
2	27731	11213.534288622614	0
2	27830	11270.582426846029	1
2	27831	11270.784308470541	0
2	27895	11298.402262016815	1
2	27896	11298.504266760027	0
2	27905	11300.031283741743	1
2	27906	11300.10414204704	0
2	28010	11388.83107481296	1
2	28011	11389.39592608798	0
2	28024	11390.334717809667	1
2	28025	11390.719853728663	0
2	28080	11417.968266547822	1
2	28081	11418.784805465904	0
2	28085	11418.852431096351	1
2	28087	11419.137234106996	2
2	28090	11419.658896381915	1
2	28094	11419.728554376527	2
2	28095	11420.160073320469	1
2	28098	11420.698131412355	0
2	28105	11421.51166789001	1
2	28106	11421.818048595165	0
2	28145	11437.631271424401	1
2	28146	11437.827588246619	0
2	28295	11500.543765579349	1
2	28296	11500.707891174399	0
2	28352	11524.542922871485	1
2	28353	11524.865647180738	0
2	28357	11524.920837548011	1
2	28358	11525.451343017291	0
2	28400	11533.875422280195	1
2	28401	11533.919978529104	0
2	28415	11535.757642926495	1
2	28416	11536.121187108009	0
2	28430	11539.233072254217	1
2	28431	11539.765021844845	0
2	28475	11560.772261540656	1
2	28476	11561.175433054955	0
2	28500	11574.979209391474	1
2	28501	11575.236679272381	0
2	28555	11597.486218409074	1
2	28556	11598.096992339355	0
2	28570	11600.136351617376	1
2	28571	11600.316557701852	0
2	28590	11603.95155905257	1
2	28591	11603.982735727732	0
2	28654	11622.587158196605	1
2	28655	11622.871771442201	0
2	28685	11628.093173282694	1
2	28686	11628.543760698029	0
2	28735	11643.137813433619	1
2	28736	11643.807344772386	0
2	28740	11644.610367472514	1
2	28741	11644.682281251297	0
2	28755	11646.499513051108	1
2	28758	11647.040974403637	0
2	28780	11650.716953153215	1
2	28781	11651.126617035448	0
2	28805	11666.175341193995	1
2	28806	11666.344277232273	0
2	28820	11667.625368048935	1
2	28821	11667.845161284143	0
2	28850	11679.667033214131	1
2	28851	11679.711987204735	0
2	28860	11680.548758898068	1
2	28862	11680.550529842928	2
2	28863	11681.101432669514	1
2	28866	11681.795092829575	0
2	28872	11681.935842794229	1
2	28873	11682.346337049061	0
2	28877	11682.381424034725	1
2	28878	11683.084934554508	0
2	29055	11782.751545584489	1
2	29056	11783.012234112255	0
2	29065	11783.811598839789	1
2	29068	11784.543292238896	0
2	29122	11819.86262105751	1
2	29123	11820.435132427335	0
2	29150	11832.954438206255	1
2	29151	11833.608299171676	0
2	29230	11862.474429331507	1
2	29231	11862.945070323266	0
2	29285	11886.073854034141	1
2	29286	11886.134817426735	0
2	29305	11890.499712460408	1
2	29306	11890.50830507789	0
2	29332	11907.419720808508	1
2	29333	11907.979336692196	0
2	29340	11908.933450166834	1
2	29344	11909.360242478327	2
2	29347	11909.465506366071	1
2	29353	11910.106323736763	2
2	29354	11910.220981265501	1
2	29358	11910.380466116855	2
2	29359	11911.025608002477	1
2	29362	11911.513462932304	0
2	29530	11961.93239312248	1
2	29533	11962.866401814107	0
2	29595	11979.120161054079	1
2	29596	11979.520728736739	0
2	29605	11981.173965731954	1
2	29606	11981.271489147838	0
2	29615	11982.610430763766	1
2	29616	11982.946536407476	0
2	29685	12030.022382089616	1
[...]
6	62900	24989.085724703801	4.001842279242
6	62910	24993.311416399689	2.643084785985
6	62915	24997.000101146048	0.41300298092
6	62930	25009.773640701626	0.890041320119
6	62950	25032.374600297557	0.888571386319
6	62972	25049.082341673194	0.860547388157
6	62980	25050.284303155727	2.651936263715
6	62997	25052.905848589885	1.134416654626
6	63097	25083.281901865527	5.022394460113
6	63135	25088.341352234147	4.105527006448
6	63154	25090.752916437315	0.439494572603
6	63165	25093.078704551907	7.334494757964
6	63280	25121.899739666251	2.056409905903
6	63394	25145.103020523228	3.458300552264
6	63407	25147.93332944255	7.031464378736
6	63420	25150.820525348695	3.195088291707
6	63425	25153.914952472056	0.462861684477
6	63435	25154.940543629361	0.435635850625
6	63456	25157.284108223547	2.313605005481
6	63536	25179.34889714852	1.111570503115
6	63568	25183.948621836576	6.504785637698
6	63657	25222.732775170153	2.749704164201
6	63660	25223.650624477753	1.622100649305
6	63685	25232.23751761059	2.242806037625
6	63729	25253.899478114683	1.396977671254
6	63780	25261.318849328844	4.287147550274
6	63797	25284.75452026028	0.88675916926
6	63825	25303.193140422903	1.142335289555
6	63840	25320.302143231311	2.475716662821
6	63857	25339.703585572701	3.353602621814
6	63870	25342.195060893138	2.952375220083
6	63945	25396.511350759425	4.024235205337
6	63952	25398.635884475202	0.989700917667
6	63960	25400.114491584326	2.449422934852
6	63975	25402.174567977759	1.998026044154
6	63992	25406.951953226956	1.560792985385
6	64002	25410.892101716442	0.759006439708
6	64010	25412.172336877516	1.970105756016
6	64020	25414.208522797591	1.228961071916
6	64040	25418.470275264758	2.82219435132
6	64060	25426.67997335709	1.678661626951
6	64080	25433.487887867004	3.720612935324
6	64100	25442.804564927488	3.315229330441
6	64120	25455.278121649038	1.059340261956
6	64149	25473.376907823457	0.920461376417
6	64152	25474.107230593114	2.494858346041
6	64165	25493.062122328661	3.553320720192
6	64205	25514.839147249432	5.38670085768
6	64210	25520.723990315416	0.873194742063
6	64232	25526.146013744279	0.880694837009
6	64235	25526.639832678727	3.481533907817
6	64245	25529.89183909064	1.386202275315
6	64255	25541.086625127255	0.582721206825
6	64260	25546.460120729254	0.421975365141
6	64295	25576.869728062778	0.519460869813
6	64300	25580.881369761754	0.554969712393
6	64329	25585.883798192102	3.823580951943
6	64332	25586.626106537073	4.297452200352
6	64355	25602.038136126229	2.157047597055
6	64365	25603.695513420855	1.12993631812
6	64405	25628.797356226649	1.753221045701
6	64410	25643.334991653746	0.473548673186
6	64477	25663.834214738304	1.744239812364
6	64516	25668.342376572885	3.328164672345
6	64531	25670.571819630279	1.140212053684
6	64534	25671.025832761139	1.023744720606
6	64585	25682.904516158459	8.763492267005
6	64605	25713.190240628325	0.813587569958
6	64610	25716.64155236611	0.587033747975
6	64617	25719.029397655855	0.97679992984
6	64651	25725.895535729918	1.288064614722
6	64670	25729.708275247141	7.781373899923
6	64715	25744.728090601965	0.564411734881
6	64722	25745.554510459841	1.751809394905
6	64737	25747.463557371269	2.435530963004
6	64745	25752.050942854699	0.413485719031
6	64837	25789.267198380064	1.874060613289
6	64845	25790.337204826901	1.113379231436
6	64850	25791.982100928442	0.534613531455
6	64877	25808.563330131246	1.725447961609
6	64924	25816.542058773442	2.452983283501
6	64966	25823.276597233093	4.458806794612
6	64984	25826.407709425338	3.287165080158
6	64992	25828.164983416186	1.435359250005
6	65009	25830.464707187447	1.796261716894
6	65051	25838.457819142611	1.153257964099
6	65054	25839.01598285227	10.383562493444
6	65067	25841.226387372706	1.345310055809
6	65112	25852.34170171266	4.488139512547
6	65155	25868.107473503301	1.825772210114
6	65160	25869.758323741685	0.691819737619
6	65169	25872.99943076632	0.535160279088
6	65172	25873.80387431331	1.232745460861
6	65187	25878.466944162523	0.937393116615
6	65190	25879.44056887084	2.580181525647
6	65224	25886.768286193337	4.910040724653
6	65229	25887.475483840739	3.608177284041
6	65265	25903.144095847854	0.648751382856
6	65320	25917.051904779962	2.962869838263
6	65330	25918.986687143817	1.547370798153
6	65365	25941.368603449329	7.839869702898
6	65392	25962.484194130729	3.963928613667
6	65407	25965.35028641739	4.085177616448
6	65415	25967.176237969623	3.707769596278
6	65470	26003.622196168106	2.253872865173
6	65480	26009.811835433873	2.4407459438
6	65487	26013.212411412291	0.635302514723
6	65500	26025.042264043095	0.854822540842
6	65545	26041.531850262641	6.757554078226
6	65550	26042.572351308427	7.383104758718
6	65567	26057.714304740386	0.852328631422
6	65570	26058.28767134108	1.424855541785
6	65620	26086.887655051659	1.182027109367
6	65630	26089.932544544456	0.732645065337
6	65650	26097.317396368951	0.627310371725
6	65689	26109.284601236559	1.236072631609
6	65767	26121.822740459484	5.993312910009
6	65775	26123.533630344314	1.088973558963
6	65846	26151.620338064409	5.540898047805
6	65849	26152.156508609536	4.274270224122
6	65907	26179.054800165249	1.829275593064
6	65935	26183.729254885798	4.141544829878
6	65972	26206.028019031972	3.795847691324
6	65995	26212.313053773192	2.435844415029
6	66005	26221.581738281476	0.588971189689
6	66040	26243.23751065767	1.089289520671
6	66065	26266.138242204025	3.977569461198
6	66112	26289.731794546321	2.128100844333
6	66184	26304.989789664927	3.601305402758
6	66235	26313.598551488112	13.839632476129
6	66305	26328.826211100842	2.608697993441
6	66330	26333.364002523822	0.658919807244
6	66357	26338.877456313211	0.911329726828
6	66360	26339.558174965929	0.928825150727
6	66405	26356.825887851254	1.926876030284
6	66422	26367.097464491612	0.941873307806
6	66437	26374.3892290003	0.667217172077
6	66452	26377.05329823024	0.828255650621
6	66455	26377.838792477785	3.79434227752
6	66465	26382.495097803337	0.96129959817
6	66500	26400.307170420202	4.566105689953
6	66505	26401.135640275982	0.492155274609
6	66510	26407.944597424459	0.752662834479
6	66517	26409.083040558249	0.83852773956
6	66535	26412.509103787619	2.847751425264
6	66559	26418.905271040789	1.621579177846
6	66592	26424.830415328903	8.028211924931
6	66595	26425.794123787977	1.4057216386
6	66605	26428.682456400397	0.584753932897
6	66610	26432.920225404971	0.741750166379
6	66625	26442.277786799771	1.918582616711
6	66647	26457.35183072695	2.166725583318
6	66680	26468.562011751258	1.41358596248
6	66690	26475.865899754642	1.290757824776
6	66727	26488.739327087422	1.559077956385
6	66740	26491.089692952688	8.209520490444
6	66765	26513.640580521567	0.439282320626
6	66775	26529.207095244534	0.512355869683
6	66802	26539.185758493251	2.474492227666
6	66805	26540.084253961562	1.425658637211
6	66825	26546.970404414864	2.725578229412
6	66859	26550.998824471953	3.067000671969
6	66900	26574.665925921443	0.580291664766
6	66910	26578.288139400644	1.725979973799
6	66920	26586.794925907818	1.24752041192
6	66940	26597.989195182619	1.374693733125
6	66950	26601.446315502549	1.821272343749
6	66960	26609.951928622228	0.789109983202
6	66980	26613.476548188107	3.091693556041
6	66985	26621.363898519992	0.400599325774
6	67022	26652.471731694985	0.55885370695
6	67025	26653.432413143163	1.250445950245
6	67045	26658.710798045057	2.061279960121
6	67075	26666.322501261672	7.406770157857
6	67139	26682.761441033603	1.500964265515
6	67172	26688.618054897166	1.187991618461
6	67190	26693.503181285662	0.641584485024
6	67222	26701.705865403173	1.464394652974
6	67230	26705.72344592704	0.843023403082
6	67259	26713.282833068441	5.242852827507
6	67262	26713.721172451643	1.691018709951
6	67280	26718.289965874745	4.176538619658
6	67362	26768.509797836101	2.752151975192
6	67367	26769.168527464388	4.0392503235
6	67400	26776.595457467671	7.437906515853
6	67415	26785.795585082363	0.760517808122
6	67422	26786.669625900496	2.611652670985
6	67447	26791.042294667805	4.960165232753
6	67495	26801.858285612864	1.783030517631
6	67507	26806.152265878283	1.048436420552
6	67594	26827.424992306798	1.039450529506
6	67640	26841.790006839526	0.630256379768
6	67728	26906.581145642516	2.329655924272
6	67786	26914.081012607883	3.832785857387
6	67809	26918.348322138009	1.129695711294
6	67905	26960.043647009314	3.184838074195
6	67910	26963.922269906609	0.889972351585
6	67930	26978.438809981386	1.562270132184
6	68049	27032.464111699828	7.215042785379
6	68140	27071.863190789752	3.048005160788
6	68165	27078.952726893392	3.05830572067
6	68195	27089.346454430355	2.075244201534
6	68200	27089.982738719598	0.428214406688
6	68205	27090.448768365377	0.408469116176
6	68210	27092.800024716231	0.795115198288
6	68217	27099.289922522688	0.648791925982
6	68235	27106.745674591871	2.022197752537
6	68240	27109.188561321899	3.767580536312
6	68250	27126.957386374928	0.884866970265
6	68295	27150.169251744214	7.730277237141
6	68360	27192.141533236543	4.928883771468
6	68365	27194.981037472222	0.639104154846
6	68375	27207.525961673416	0.752085460769
6	68387	27219.216572733737	0.914962156722
6	68416	27222.662793471829	2.749668932054
6	68419	27223.434537651601	3.283571475098
6	68422	27224.085833822588	5.144732415186
6	68480	27239.347499491897	0.719597292232
6	68532	27289.214447353612	3.710282035698
6	68562	27293.644319205693	2.204589023346
6	68633	27305.284466797044	1.858426460456
6	68675	27312.681026242509	3.06243798278
6	68680	27316.536566964679	0.919838889362
6	68695	27321.061646487917	2.689475790703
6	68700	27331.25788072899	0.418060818128
6	68717	27343.649711509934	0.911544589931
6	68740	27348.271595979136	2.549296350518
6	68745	27352.930323043039	0.4514855491
6	68750	27356.030661110051	0.979107045475
6	68780	27364.847873345361	3.878687889705
6	68790	27368.792245453429	0.415006410005
6	68805	27379.344986200635	0.974205948599
6	68817	27403.761710132576	1.611417106768
6	68825	27405.555793791406	0.934537452739
6	68835	27409.226395494828	0.693338399474
6	68890	27462.366219075491	0.716710340558
6	68965	27478.565061152332	7.492996599074
6	69002	27486.154333884426	0.48912492604
6	69070	27528.498820359178	1.077449427509
6	69100	27544.191097523921	0.834515847918
6	69105	27547.992849149326	0.530662106723
6	69117	27549.95301520562	1.741631688827
6	69125	27551.168497292068	1.764471363211
6	69132	27554.272971526554	0.433865342615
6	69155	27573.462377695375	0.94300643201
6	69160	27576.140289456897	0.482000741409
6	69175	27587.281682791522	2.39098713221
6	69190	27608.32322152861	2.032830134899
6	69195	27610.284736896793	0.62382044117
6	69275	27638.365915724572	0.403304338735
6	69285	27645.842231885567	1.849593480464
6	69302	27659.58076690389	2.257362709732
6	69315	27663.806022776745	1.728922298305
6	69320	27669.786553945197	0.908960502967
6	69345	27677.744212221416	0.465024950309
6	69387	27691.928314075371	0.652734971664
6	69422	27707.32336241906	1.511844985835
6	69425	27708.22954142434	1.333263559803
6	69475	27729.968995647713	0.400261648512
6	69510	27750.475483854268	0.644763823459
6	69535	27759.8566985	2.568622648456
6	69586	27781.361135164347	0.595556008982
6	69635	27802.071960397306	0.65986905694
6	69680	27818.893993685739	4.277615920134
6	69702	27823.21330529966	0.645136878177
6	69705	27823.809577337118	3.828628938997
6	69720	27834.021123323241	0.673093180265
6	69735	27860.124740466291	0.575764893554
6	69745	27862.492816045946	0.951873407315
6	69780	27877.493902762652	1.877451173309
6	69842	27902.295250521416	3.018524202094
6	69860	27908.545835872766	0.806710544322
6	69865	27910.952377898584	0.77185963979
6	69915	27921.667241601623	8.218115011572
6	69922	27922.734683869234	0.930652755499
6	69945	27941.931328372665	0.519134730799
6	69972	27953.546594093176	5.532154977586
6	69985	27956.119179360817	3.146516672206
6	70027	27964.588976897103	1.223580247652
6	70054	27967.738270519943	8.673642651709
6	70067	27969.641895360717	2.354311663227
6	70070	27970.130067252911	0.80686350216
6	70090	27988.198398424611	0.767628407152
6	70095	27993.109343017729	0.40165995867
6	70120	28012.777312359892	1.260999321709
6	70135	28024.545536259514	0.698286833707
6	70200	28047.631362338437	2.218344055627
6	70232	28053.011362162966	1.463742711121
6	70275	28065.487484050716	2.159543889017
6	70280	28067.620262999074	0.884646986797
6	70295	28072.261359530682	0.828094658256
6	70329	28080.403756578468	1.639224632617
6	70335	28081.982061818444	6.479434208383
6	70340	28082.678070260957	3.874785489796
6	70355	28099.764382954996	1.615589614838
6	70375	28108.810551726972	0.668315139087
6	70385	28112.925411865293	1.756539565183
6	70400	28120.370879392324	2.791428289871
6	70415	28137.96189395289	0.671905542258
6	70427	28142.836204849114	0.981712084543
6	70435	28144.141324731421	0.768362677377
6	70445	28149.953701004294	1.189788375017
6	70477	28167.022658481454	1.19069908186
6	70480	28167.870737810112	1.129366867182
6	70505	28180.77137297147	1.04908534417
6	70552	28196.625825316478	1.52314424535
6	70595	28218.850443070432	3.254853475608
6	70630	28237.878531692724	2.909316395732
6	70657	28244.398644759675	8.046909877741
6	70665	28250.252264034052	0.564533066191
6	70670	28252.23113685335	0.450342601584
6	70680	28256.252290719726	1.680214443889
6	70705	28285.966348958607	4.765277811179
6	70720	28307.073116932868	0.547818015423
6	70725	28308.135012905068	0.884734920925
6	70772	28317.749101563764	0.703243794991
6	70790	28331.722153033483	0.635939644417
6	70795	28336.411105525337	0.616426232411
6	70840	28371.668892036453	0.560555598326
6	70845	28373.217233841573	0.420091905678
6	70850	28375.999908244577	0.427144780848
6	70860	28384.811475727197	0.549452819303
6	70885	28389.412655116224	0.665573734557
6	70935	28422.126646950761	0.747862409428
6	70945	28429.296837135738	2.673875216522
6	70995	28442.389843068485	5.474613222991
6	71020	28445.483785046803	7.021713738818
6	71023	28446.385806180796	5.061109553511
6	71090	28491.785746868702	0.765865526395
6	71100	28500.988182053589	0.877414186532
6	71115	28507.462533964015	1.603784454753
6	71134	28509.93092765131	1.365669229036
6	71165	28522.54403240637	0.783961276803
6	71195	28535.332287998562	1.647994910549
6	71227	28554.771987830532	2.73506716474
6	71250	28563.066941491017	1.924062132915
6	71271	28567.045875377665	1.174934108458
6	71274	28567.771161164148	1.405428928864
6	71320	28581.388070692832	1.77988997202
6	71425	28622.698818135236	4.353143151319
6	71430	28631.264913079309	0.896854035603
6	71440	28649.401802437392	0.72659084769
6	71457	28653.535024722954	2.085045595774
6	71472	28656.344020585298	2.98518202101
6	71480	28657.978281029676	3.56426499252
6	71485	28660.196320657663	0.710340244323
6	71495	28664.733283934829	1.000940587328
6	71510	28685.456599520323	0.744161427161
6	71605	28715.680621133148	3.438866439923
6	71610	28716.925911690898	0.893457616493
6	71622	28724.421982050209	0.880901966849
6	71625	28725.3990373392	3.956313637538
6	71642	28729.327633654661	3.478699787372
6	71650	28730.647652023583	1.874982398192
6	71707	28747.28104348934	0.970204271981
6	71710	28747.966523352794	1.498824554568
6	71720	28760.602201667215	0.992798878439
6	71727	28762.492403817679	0.454030553484
6	71740	28769.262707729114	0.499858423833
6	71814	28792.463900570306	2.309711492248
6	71817	28792.900953217517	9.008207420393
6	71905	28823.541512842113	0.567044954794
6	71999	28858.954846253088	7.071150685072
6	72002	28859.607098002807	4.646272884449
6	72010	28861.812580259232	3.719383763982
6	72020	28864.668096141354	0.626113392645
6	72030	28875.603299529293	1.216396556992
6	72037	28883.326334152095	0.787954127137
6	72040	28883.776812834576	1.030787568398
6	72045	28888.630531473102	0.808213655651
6	72062	28896.020550625218	1.251065028827
6	72112	28906.261253352348	0.884933017018
6	72145	28925.836632590729	0.584889164567
6	72150	28927.877070039929	0.539188614208
6	72217	28958.963937536287	1.536973143191
6	72220	28959.470134080932	2.304495659004
6	72225	28960.783864416668	0.43572825091
6	72240	28964.793264883201	0.637195499381
6	72280	28987.395666896311	0.672456275485
6	72285	28988.997248145984	0.463391814567
6	72305	28996.003212634939	1.429060701401
6	72310	28998.156532533516	0.452294226456
6	72355	29021.363541629413	3.050226013566
6	72399	29033.650518602449	3.89106921041
6	72415	29038.026905182679	1.259429770513
6	72430	29051.136406864778	1.879214275079
6	72455	29059.351120070617	0.756156233052
6	72472	29063.275764973037	1.243693406399
6	72500	29067.581846484181	2.959770140081
6	72530	29089.777347984546	0.762181897461
6	72545	29097.5623331509	2.559064701996
6	72560	29105.57360722538	1.576534935928
6	72565	29116.152812147148	0.554591134517
6	72605	29133.249711826125	0.927589329006
6	72612	29140.36461156951	0.712052881159
6	72695	29158.985970227832	1.768582801435
6	72700	29160.803645092217	0.518515670532
6	72752	29175.967763256477	0.888656396
6	72765	29179.590993721546	0.895154205039
6	72795	29193.563260527826	0.93208446779
6	72850	29228.236232215796	0.865057619801
6	72912	29258.54072268948	0.890023743547
6	72920	29259.589336762792	0.553262385011
6	72940	29269.142306052435	0.712675768882
6	72967	29283.764558879456	1.015613263701
6	72975	29285.406579476108	3.22612880114
6	72994	29294.72725812361	0.697212829556
6	72997	29295.716991573958	1.225276056972
6	73024	29300.428973035321	2.508819863999
6	73027	29301.428449284697	2.788422393309
6	73042	29309.55203222058	1.963372857191
6	73050	29314.591644455547	0.818186896667
6	73065	29319.997068174328	0.671165279811
6	73125	29354.816920243296	0.558440066595
6	73147	29366.988492775285	0.655146429501
6	73164	29370.240589959147	0.744740513852
6	73172	29372.066800829927	6.321799696906
6	73177	29372.6103271099	3.02399550361
6	73212	29379.660833722012	2.238329095736
6	73217	29380.644787563182	1.9618588206
6	73225	29382.703522495706	2.701527225832
6	73280	29401.27407468099	3.648760369842
6	73319	29415.075413755509	4.175128110388
6	73360	29432.419926450103	1.100879114645
6	73387	29439.985854508307	2.189327345386
6	73390	29440.565394889189	0.901308814581
6	73420	29449.3297130291	2.587509566145
6	73465	29458.180444820054	1.406623761063
6	73470	29462.699625043587	0.975663354667
6	73480	29468.21915719792	0.95336806695
6	73485	29470.570364682151	0.927130331937
6	73507	29475.682359791409	1.727945199207
6	73535	29482.938140275611	3.378176627903
6	73550	29502.865853824678	0.787352418248
6	73570	29516.366250648575	2.500951214613
6	73575	29517.77137389235	0.608287539938
6	73595	29526.54962770729	2.843900937817
6	73605	29534.390661180073	0.42145146043
6	73630	29540.097153198007	2.25607320407
6	73635	29541.137976457419	0.593651716644
6	73650	29555.384154965942	0.861259631673
6	73679	29558.993730091697	1.730728336358
6	73722	29565.983844189754	1.013724581785
6	73770	29577.5667357384	0.466893387027
6	73802	29597.822289857822	3.745469077357
6	73825	29606.485205893642	0.974319952121
6	73830	29609.77468558811	0.931648469996
6	73835	29624.822940995604	0.595625918591
6	73842	29632.180195367693	0.55691060815
6	73850	29634.081383830376	2.016176517021
6	73859	29637.956491926566	0.829986719787
6	73872	29640.162657715634	3.030253495591
6	73880	29641.650204657737	4.185661365825
6	73910	29658.942741255007	6.875501232971
6	74040	29718.965032151904	4.707845338898
6	74045	29719.639925505247	0.523871763377
6	74087	29729.521609836493	3.198259855042
6	74160	29759.973802701022	0.478270591237
6	74165	29762.587091497975	0.847113940865
6	74202	29776.191052388238	0.42813753779
6	74245	29792.239701125454	0.796046510244
6	74250	29793.594453094425	2.416544353338
6	74315	29817.377592211922	6.79025697464
6	74345	29840.857499933302	3.329659947773
6	74432	29862.165415817433	1.056855625167
6	74456	29865.039389426708	5.317909939262
6	74464	29866.143260587314	3.145100809367
6	74467	29866.739828988472	4.010127930604
6	74505	29873.789945581276	3.469349584682
6	74510	29879.486487076956	0.997754640132
6	74525	29888.145977896726	3.028496953973
6	74535	29890.378650228998	2.1166508443
6	74545	29908.23708919877	1.409322090536
6	74562	29921.134914970112	1.405149982622
6	74669	29963.144370190742	0.879912183503
6	74697	29968.298106056969	7.931761608908
6	74700	29968.948633424011	1.109801832491
6	74730	29985.831264894958	0.972984508332

