version 2
run First_exit_9-5-20191023-00:19:46-5147
attr configname First_exit_9
attr datetime 20191023-00:19:46
attr experiment First_exit_9
attr inifile omnetpp.ini
attr iterationvars ""
attr iterationvarsf ""
attr measurement ""
attr network ResponseTimeNetwork
attr processid 5147
attr repetition 5
attr replication #5
attr resultdir results
attr runnumber 5
attr seedset 5
param **.Source.interArrivalTime exponential(4s)
param **.jobPriority bernoulli(0.4)
param **.PS.serviceTimeU1 "uniform(0.4s, 1.0s)"
param **.PS.serviceTimeU2 "uniform(1s, 1.2s)"
param **.SS1.serviceTime exponential(0.4s)
param **.SS2.serviceTime exponential(0.8s)
param **.PS.exitProbability bernoulli(0.9)

vector 0 ResponseTimeNetwork.SS1 queueLength:vector ETV
attr interpolationmode sample-hold
attr title "queue length, vector"
vector 1 ResponseTimeNetwork.SS2 queueLength:vector ETV
attr interpolationmode sample-hold
attr title "queue length, vector"
vector 2 ResponseTimeNetwork.QueueU1 queueLength:vector ETV
attr interpolationmode sample-hold
attr title "queue length, vector"
vector 3 ResponseTimeNetwork.QueueU2 queueLength:vector ETV
attr interpolationmode sample-hold
attr title "queue length, vector"
vector 4 ResponseTimeNetwork.sink lifeTimeU2:vector ETV
attr interpolationmode none
attr title "lifetime of arrived jobs U2, vector"
attr unit s
vector 5 ResponseTimeNetwork.sink lifeTime:vector ETV
attr interpolationmode none
attr title "lifetime of arrived jobs, vector"
attr unit s
vector 6 ResponseTimeNetwork.sink lifeTimeU1:vector ETV
attr interpolationmode none
attr title "lifetime of arrived jobs U1, vector"
attr unit s
2	0	0	0
2	5	1.231123805253	1
2	6	1.90287661476	0
2	10	2.157435660096	1
2	11	2.890543613331	0
2	15	3.092704162319	1
2	16	3.750088329408	0
2	20	4.042359826566	1
2	21	4.442071128431	0
2	25	4.838371988298	1
2	26	4.95470386411	0
2	35	6.551266631938	1
2	37	6.620203969002	2
2	38	6.863927223395	1
2	41	7.330467683404	0
2	45	7.711822805813	1
2	46	7.852960533324	0
2	50	7.925757460339	1
2	51	8.430608493231	0
2	55	8.766933484792	1
2	57	9.113779273709	2
2	58	9.144813665796	1
2	62	9.511259162968	2
2	63	9.983936324904	1
2	67	9.989811562689	2
2	68	10.554747855107	1
2	72	10.671738983667	2
2	75	11.450680406487	1
2	78	11.950048119484	0
2	82	12.342455224608	1
2	83	12.92840643707	0
2	97	14.218230435037	1
2	99	14.601205580143	2
2	103	14.875957899122	3
2	104	14.93688543714	2
2	109	15.751444154795	1
2	115	16.159877129048	2
2	116	16.706830246797	1
2	119	17.110271283336	0
2	123	17.620257744222	1
2	124	17.991769415563	0
2	133	18.809346950569	1
2	135	19.062912312583	2
2	136	19.256876882263	1
2	139	19.695581020605	0
2	143	19.773620294254	1
2	144	20.583820506329	0
2	148	20.900086140574	1
2	149	21.349042056691	0
2	153	21.436043329691	1
2	154	22.040000704214	0
2	158	22.051818187288	1
2	161	23.00080841347	0
2	165	23.149802359608	1
2	166	23.467680700453	0
2	170	23.583418142325	1
2	171	23.905007633012	0
2	178	24.572681446923	1
2	179	25.360210207062	0
2	186	26.503393126709	1
2	187	26.73020097353	0
2	199	28.566576696018	1
2	201	28.66123705849	2
2	202	28.984520970522	1
2	205	29.405826390958	0
2	209	29.722005478131	1
2	210	29.934813924185	0
2	214	30.003144015199	1
2	215	30.365499606221	0
2	219	30.449130648543	1
2	224	31.272532744617	0
2	228	31.384572234778	1
2	229	31.753077192376	0
2	233	31.830861947093	1
2	234	32.364334154925	0
2	238	32.771749573129	1
2	240	33.177576292566	2
2	241	33.337963318922	1
2	245	34.223383908189	2
2	246	34.301542929005	1
2	249	35.267666980488	0
2	253	35.31504187099	1
2	256	36.154497621258	0
2	260	36.328490086738	1
2	261	36.614993985466	0
2	265	36.808413770022	1
2	266	37.460272048696	0
2	270	37.646851586076	1
2	271	38.436933902049	0
2	275	38.622709634784	1
2	276	38.928531772134	0
2	280	39.083796158831	1
2	281	39.844355908132	0
2	285	39.891468959949	1
2	286	40.4601668302	0
2	290	40.938566503387	1
2	291	41.370154848744	0
2	295	41.659381351425	1
2	296	42.03785692272	0
2	308	43.45057789523	1
2	311	43.878177331297	0
2	318	45.134124499644	1
2	322	45.218648919105	2
2	323	45.503490705092	1
2	328	46.174942011482	0
2	332	46.336357686066	1
2	333	46.705311744151	0
2	337	47.046707117377	1
2	338	47.658194082047	0
2	345	48.886639485745	1
2	346	49.100965792176	0
2	357	49.801998584699	1
2	361	50.234517082159	2
2	362	50.546661732348	1
2	365	51.020052531131	0
2	369	51.39191476563	1
2	370	51.875512000082	0
2	390	54.926973609104	1
2	391	55.33075345522	0
2	400	56.259519838308	1
2	401	56.749831651153	0
2	412	57.48241463965	1
2	413	58.073791671407	0
2	422	59.068684192728	1
2	423	59.187811630734	0
2	427	59.202598064025	1
2	428	59.649004726394	0
2	432	59.817625169971	1
2	433	60.166211501139	0
2	439	60.840397989219	1
2	440	61.120998954543	0
2	444	61.688777745445	1
2	445	61.874623277553	0
2	452	62.859416650857	1
2	453	63.289379298038	0
2	460	63.905432710935	1
2	464	64.200341175483	2
2	466	64.631180073621	3
2	467	64.742986228739	2
2	470	65.223319594472	1
2	473	65.971870707305	0
2	480	66.792745381738	1
2	481	67.446930068921	0
2	485	67.892565729216	1
2	490	68.289241693219	0
2	494	68.603550545945	1
2	495	69.223054269193	0
2	499	69.566251400052	1
2	500	70.158454230804	0
2	504	70.40444423956	1
2	505	70.615642597018	0
2	509	70.66898081589	1
2	512	71.39538592203	0
2	519	72.695234840398	1
2	521	72.969858817764	2
2	522	72.979716744837	1
2	527	73.636319090104	0
2	531	73.708915668403	1
2	532	74.485464574633	0
2	539	75.04947623761	1
2	540	75.773139532053	0
2	549	76.581991501219	1
2	552	77.369131596203	0
2	559	78.368329793279	1
2	560	78.502040374934	0
2	571	79.105266677282	1
2	572	79.453001257734	0
2	581	80.498374752408	1
2	582	80.637701523214	0
2	591	81.965261335528	1
2	592	82.543859139275	0
2	604	83.848273768452	1
2	609	84.518962002317	0
2	618	85.241683708011	1
2	619	85.959112195256	0
2	628	87.024291546154	1
2	629	87.146786185917	0
2	638	88.05658634069	1
2	640	88.194953846303	2
2	641	88.55233944138	1
2	646	89.237967630433	0
2	653	90.053720538742	1
2	655	90.318081654176	2
2	656	90.857708897725	1
2	661	91.353517459896	0
2	670	92.250349285132	1
2	672	92.663075059681	2
2	673	92.936391900205	1
2	678	93.714708695146	0
2	682	94.359130896672	1
2	683	94.499587558727	0
2	693	96.274358599185	1
2	694	96.345674959482	0
2	703	97.0358511485	1
2	706	97.829662171849	0
2	773	107.103691120345	1
2	774	107.128053580183	0
2	778	107.541826825295	1
2	781	107.675578482128	0
2	785	107.751404177191	1
2	787	108.080736299325	2
2	788	108.580504125222	1
2	791	109.111713159648	0
2	798	109.860379387951	1
2	799	110.096854863553	0
2	803	110.262118422991	1
2	804	110.788789119762	0
2	811	111.393953747126	1
2	812	111.753681703522	0
2	823	112.729173948967	1
2	824	113.366776544186	0
2	831	114.283453373913	1
2	832	114.397085237228	0
2	844	115.948925726008	1
2	845	116.13994884985	0
2	854	117.511648311501	1
2	855	118.049171712812	0
2	864	119.185791468803	1
2	865	119.609261867966	0
2	874	120.250927714384	1
2	875	120.73424959998	0
2	881	121.10131678479	1
2	882	121.383124761473	0
2	886	121.455035592544	1
2	887	122.005967731917	0
2	893	122.098489780129	1
2	894	122.613148815095	0
2	898	122.820822397857	1
2	899	123.275070148896	0
2	903	123.665771331949	1
2	904	123.730806054644	0
2	908	123.941930821257	1
2	910	123.953096608889	2
2	911	124.478989327656	1
2	915	124.609823399282	2
2	916	125.064118009157	1
2	919	125.492761033264	0
2	923	125.555710381596	1
2	925	125.803058798352	2
2	927	126.026635493539	3
2	928	126.410912382745	2
2	932	126.608659654883	3
2	933	126.89065586394	2
2	937	127.072488461238	3
2	938	127.692234334353	2
2	941	128.51185810841	1
2	945	128.541346122969	2
2	946	129.467249197283	1
2	949	130.437305813938	0
2	953	130.768719680589	1
2	954	130.981749427275	0
2	958	130.995629101697	1
2	960	131.038133707811	2
2	962	131.090675085295	3
2	963	131.731617007547	2
2	967	131.773067179841	3
2	968	132.345109953827	2
2	972	132.450192778062	3
2	976	132.859585786298	4
2	977	133.104527542929	3
2	980	133.897044168508	2
2	984	134.456736330562	3
2	985	134.812503095905	2
2	989	135.126875661466	3
2	990	135.31693384764	2
2	994	135.613785810856	3
2	995	135.75822369694	2
2	999	136.056378576907	3
2	1000	136.475623541374	2
2	1004	136.646630539745	3
2	1005	137.053222000974	2
2	1009	137.181764098518	3
2	1010	137.62284106226	2
2	1015	138.53450427051	1
2	1019	138.823951059055	2
2	1020	139.497449526985	1
2	1023	139.95039395653	0
2	1032	140.858649171801	1
2	1034	141.091477793938	2
2	1036	141.115176025025	3
2	1039	141.814406453309	2
2	1042	142.60630489942	1
2	1045	143.185568302687	0
2	1049	143.188945515377	1
2	1051	143.436652639057	2
2	1054	143.829608088689	1
2	1058	144.094748871252	2
2	1059	144.797147626666	1
2	1063	145.079786356088	2
2	1064	145.419665286507	1
2	1067	146.351345862684	0
2	1071	146.450869928513	1
2	1072	147.283976522417	0
2	1076	147.409795540322	1
2	1078	147.856686883537	2
2	1079	148.167954318461	1
2	1083	148.746546455841	2
2	1084	148.887049238526	1
2	1088	149.789840302986	2
2	1089	149.872324769062	1
2	1093	150.068925615696	2
2	1094	150.478995103206	1
2	1098	150.547255188599	2
2	1099	151.385367276709	1
2	1103	151.575983746024	2
2	1104	152.304117513172	1
2	1108	152.605386853395	2
2	1109	152.925062955966	1
2	1113	153.348239101646	2
2	1114	153.517963497763	1
2	1118	153.784689952127	2
2	1119	154.433062858417	1
2	1123	154.572994503764	2
2	1124	155.332300382763	1
2	1127	155.92492662147	0
2	1131	156.446414605978	1
2	1132	156.627520067807	0
2	1136	156.81646238407	1
2	1138	157.082205951615	2
2	1139	157.510370670961	1
2	1143	157.901837714573	2
2	1144	158.501456595728	1
2	1148	159.051727860537	2
2	1149	159.182600697366	1
2	1152	159.619449109867	0
2	1156	159.91284223902	1
2	1157	160.121792270945	0
2	1164	160.794584311552	1
2	1166	161.084723116677	2
2	1167	161.204908251626	1
2	1170	161.781818567453	0
2	1174	161.961922620902	1
2	1177	162.690220965728	0
2	1181	163.030442651851	1
2	1182	163.627580704171	0
2	1189	164.613779140456	1
2	1190	165.18041546997	0
2	1194	165.528650937582	1
2	1197	165.973313981344	0
2	1204	166.694932089656	1
2	1205	167.545659071955	0
2	1209	168.097182590952	1
2	1212	168.489360032932	0
2	1216	168.722229016161	1
2	1217	169.389329065385	0
2	1224	170.100679621766	1
2	1226	170.292330990864	2
2	1227	170.309021525926	1
2	1230	170.906569024877	0
2	1234	170.937653278405	1
2	1239	171.795392192531	0
2	1243	172.02983082915	1
2	1244	172.240192937202	0
2	1248	172.251864970947	1
2	1253	173.213403883905	0
2	1257	173.306450366485	1
2	1258	173.907187219945	0
2	1265	174.987772692111	1
2	1268	175.591028982077	0
2	1280	177.123467989137	1
2	1283	177.414363980342	0
2	1290	178.009606964189	1
2	1293	178.756273975878	0
2	1302	179.744701903628	1
2	1305	180.625974448494	0
2	1314	182.27322065829	1
2	1315	182.476791794974	0
2	1324	183.20966874471	1
2	1325	183.675860867047	0
2	1329	183.701319527179	1
2	1330	184.580119057934	0
2	1336	185.270414930178	1
2	1337	185.393794585069	0
2	1341	185.629936019178	1
2	1342	185.916245196902	0
2	1346	186.372602058554	1
2	1347	186.493611856366	0
2	1351	186.619607866616	1
2	1352	187.276821283021	0
2	1356	187.321367167067	1
2	1357	188.199631811588	0
2	1361	188.272269233915	1
2	1362	188.816705099962	0
2	1366	189.139621602913	1
2	1367	189.364503816332	0
2	1374	190.38519006542	1
2	1376	190.549376167045	2
2	1377	190.698949715917	1
2	1382	191.684000557943	0
2	1386	191.715066265918	1
2	1387	192.430595663146	0
2	1391	192.651711277031	1
2	1392	193.089795428051	0
2	1399	193.964780989504	1
2	1401	194.177160848661	2
2	1402	194.461907290436	1
2	1406	194.49031863147	2
2	1407	195.0508631886	1
2	1411	195.105109029543	2
2	1413	195.127788778462	3
2	1414	195.720088771965	2
2	1418	195.725768053153	3
2	1419	196.705484452892	2
2	1423	196.723271343745	3
2	1424	197.265278582975	2
2	1428	197.552000473021	3
2	1429	198.190185107153	2
2	1433	198.438905120411	3
2	1434	199.04192870157	2
2	1438	199.110788257555	3
2	1439	199.548579406088	2
2	1443	199.605407811194	3
2	1444	200.413019696904	2
2	1448	200.434151352869	3
2	1449	201.207849459398	2
2	1452	201.629463553477	1
2	1456	201.635669088786	2
2	1457	202.154136861211	1
2	1460	202.675180399187	0
2	1464	203.090848410553	1
2	1465	203.096856441677	0
2	1469	203.634229404707	1
2	1470	203.643662173396	0
2	1474	203.854740495707	1
2	1476	204.127701585171	2
2	1477	204.602086174024	1
2	1481	204.923821937859	2
2	1482	205.014020056326	1
2	1486	205.100975082154	2
2	1488	205.773387332836	3
2	1489	205.864440646676	2
2	1493	205.873986149903	3
2	1494	206.408381054133	2
2	1498	206.584667387457	3
2	1499	207.277181417357	2
2	1503	207.552265437348	3
2	1504	208.141253524694	2
2	1508	208.342324971152	3
2	1509	208.990224933858	2
2	1513	209.451676651501	3
2	1514	209.705845500856	2
2	1520	210.31034896946	3
2	1521	210.456897296944	2
2	1525	210.506552669508	3
2	1526	210.931094273879	2
2	1530	211.15175760441	3
2	1531	211.515422755341	2
2	1535	211.701378352505	3
2	1536	211.962322297973	2
2	1539	212.666946571601	1
2	1543	212.67065447441	2
2	1544	213.292471515808	1
2	1548	213.292908885162	2
2	1550	213.57988398276	3
2	1553	214.135938060751	2
2	1557	214.318804825344	3
2	1558	215.102231807077	2
2	1561	216.071287462303	1
2	1565	216.188730743491	2
2	1566	216.917220585934	1
2	1571	217.610115190457	0
2	1578	218.871073218282	1
2	1579	219.006562482101	0
2	1583	219.45534927315	1
2	1588	219.948587024166	0
2	1592	220.60694787763	1
2	1595	220.920665399871	0
2	1599	221.2213753787	1
2	1600	221.58210859038	0
2	1604	222.062587742683	1
2	1605	222.441579911579	0
2	1609	222.770012173501	1
2	1610	223.248292023037	0
2	1617	223.735476933727	1
2	1619	224.108261210594	2
2	1620	224.249558559852	1
2	1625	225.077488751198	0
2	1632	226.177913153207	1
2	1633	226.581378019136	0
2	1640	227.456884191096	1
2	1641	228.073985630973	0
2	1653	229.50400017145	1
2	1654	229.956788152689	0
2	1661	230.668847744328	1
2	1662	230.891104653105	0
2	1671	231.865347967773	1
2	1672	232.33108087643	0
2	1681	233.074968815944	1
2	1682	233.581551093095	0
2	1691	234.774632480925	1
2	1692	234.99463849808	0
2	1767	245.691984893721	1
2	1768	245.995194911817	0
2	1777	246.604627886191	1
2	1780	247.426203766372	0
2	1789	247.976358044718	1
2	1792	248.598090153094	0
2	1808	250.114543463915	1
2	1809	250.68040830763	0
2	1840	254.774917175785	1
2	1841	254.837033631046	0
2	1848	255.378369035374	1
2	1853	255.987551111401	0
2	1862	256.715689628531	1
2	1865	257.636093226913	0
2	1879	258.925361043747	1
2	1880	259.462767892797	0
2	1887	260.193395035631	1
2	1889	260.906102410813	2
2	1890	260.977538063936	1
2	1894	261.077683276294	2
2	1895	261.670998733305	1
2	1901	261.836201413815	2
2	1903	262.159727015126	3
2	1906	262.321082333616	2
2	1909	263.045548581193	1
2	1913	263.380500267589	2
2	1915	263.581269055527	3
2	1916	263.616545317369	2
2	1919	264.058831955167	1
2	1922	264.864575071121	0
2	1926	265.205387954195	1
2	1927	265.477194287116	0
2	1931	265.937354107963	1
2	1932	266.082565555908	0
2	1936	266.866159178764	1
2	1937	266.946361068543	0
2	1941	267.340029110667	1
2	1942	267.367727699224	0
2	1954	268.683519373294	1
2	1956	268.750766609685	2
2	1957	268.935210797704	1
2	1960	269.889718891774	0
2	1964	270.085969549531	1
2	1965	270.832635500096	0
2	1971	271.214123448276	1
2	1974	271.79194434206	0
2	1978	272.003422209742	1
2	1981	272.512151550036	0
2	1985	273.143516728263	1
2	1986	273.246317419224	0
2	1990	273.330266347318	1
2	1991	273.864671040932	0
2	1995	273.921939684848	1
2	1996	274.693421995361	0
2	2000	274.951294701244	1
2	2001	275.499993667892	0
2	2005	275.65759446842	1
2	2006	276.019808660961	0
2	2010	276.021030822389	1
2	2011	276.593358730759	0
2	2015	276.804196580097	1
2	2016	277.159287703737	0
2	2020	277.249524292968	1
2	2022	277.725611106916	2
2	2023	277.909338825197	1
2	2026	278.462667608355	0
2	2036	279.930605503595	1
2	2038	280.112338783269	2
2	2040	280.138154043905	3
2	2041	280.197695525922	2
2	2046	280.748217332922	1
2	2050	281.40903298297	2
2	2051	281.713584864698	1
2	2055	281.754498616155	2
2	2058	282.500671180291	1
2	2062	282.756760545483	2
2	2063	283.058366529597	1
2	2066	283.887542468449	0
2	2076	285.762568501679	1
2	2078	285.872260121802	2
2	2081	286.275111950422	1
2	2086	286.862016479904	0
2	2090	286.977348968393	1
2	2091	287.579413660988	0
2	2095	287.749132831808	1
2	2096	288.051011942699	0
2	2100	288.255413570727	1
2	2101	288.539819163037	0
2	2108	289.080768892045	1
2	2110	289.371640372637	2
2	2111	289.61051666364	1
2	2114	290.218517438135	0
2	2121	290.997284245444	1
2	2122	291.274892471077	0
2	2126	291.810686689753	1
2	2127	291.992976873227	0
2	2131	292.134639708874	1
2	2134	292.48693812345	0
2	2138	292.607235103807	1
2	2139	293.115857828547	0
2	2143	293.584858612204	1
2	2146	294.082370844762	0
2	2150	294.218268706708	1
2	2151	294.941226105298	0
2	2158	295.485847188939	1
2	2160	295.69110824357	2
2	2161	296.232339634559	1
2	2166	297.017672951239	0
2	2170	297.048645024384	1
2	2171	297.639402879541	0
2	2180	298.947800800861	1
2	2182	298.98387915451	2
2	2183	299.171516635641	1
2	2188	299.76965744202	0
2	2192	299.881688735321	1
2	2193	300.675187704479	0
2	2197	300.887837170471	1
2	2198	301.445509545691	0
2	2207	302.208690239721	1
2	2209	302.40616859851	2
2	2210	302.907464223308	1
2	2213	303.755329636158	0
2	2217	303.940539421785	1
2	2218	304.173289320617	0
2	2222	304.18387020882	1
2	2223	304.584305731113	0
2	2230	305.380701410411	1
2	2231	305.785205840551	0
2	2240	307.147877030603	1
2	2241	307.195919061125	0
2	2251	308.74124644211	1
2	2252	308.869277478149	0
2	2259	309.653913751835	1
2	2260	309.691582917609	0
2	2272	311.187275942471	1
2	2277	311.488949670922	0
2	2286	312.421316951241	1
2	2287	313.03705723877	0
2	2298	313.824910415102	1
2	2303	314.652266505593	0
2	2315	316.419819861995	1
2	2316	316.706632191827	0
2	2327	317.827942234745	1
2	2328	318.208458181935	0
2	2335	318.808789067333	1
2	2336	319.613509258161	0
2	2343	320.473839214057	1
2	2346	320.962806086799	0
2	2353	321.664423436229	1
2	2356	322.308850993633	0
2	2363	323.179956067467	1
2	2365	323.767737857889	2
2	2366	323.894961118044	1
2	2369	324.576908040743	0
2	2373	324.798997044411	1
2	2374	325.103687008282	0
2	2378	325.190167298767	1
2	2379	325.519835553596	0
2	2383	325.565793026404	1
2	2388	326.176816627894	0
2	2392	326.621831631986	1
2	2393	326.763217518989	0
2	2397	327.239022767337	1
2	2398	327.610136403048	0
2	2402	327.826595528293	1
2	2403	328.252470189983	0
2	2407	328.267949186669	1
2	2408	328.980414609004	0
2	2412	329.036482472973	1
2	2413	329.72285140273	0
2	2417	329.955851343052	1
2	2418	330.191146602154	0
2	2425	330.847381318688	1
2	2426	331.32725157379	0
2	2430	331.44681012412	1
2	2433	331.897157239447	0
2	2437	331.90051826717	1
2	2438	332.466800052811	0
2	2442	332.710131201822	1
2	2443	332.905951008479	0
2	2450	333.797587006138	1
2	2452	333.96089349332	2
2	2454	334.343153286719	3
2	2455	334.46703272378	2
2	2462	335.386840797913	1
2	2466	335.391938397699	2
2	2467	336.024499364755	1
2	2470	336.712092502135	0
2	2474	336.964701711829	1
2	2475	337.563020008476	0
2	2482	338.138165495986	1
2	2484	338.377201470755	2
2	2485	338.757039229338	1
2	2489	338.820593054618	2
2	2491	339.024070169218	3
2	2492	339.362848543095	2
2	2498	340.105984123605	3
2	2499	340.259974377275	2
2	2503	340.292901945385	3
2	2504	340.863440598313	2
2	2508	341.335032012132	3
2	2509	341.604962122299	2
2	2513	342.006701466014	3
2	2514	342.44406283507	2
2	2518	342.495254268075	3
2	2519	343.266538644441	2
2	2523	343.448696691765	3
2	2524	344.214114867429	2
2	2528	344.593385351706	3
2	2529	344.756413285619	2
2	2533	345.055878106195	3
2	2534	345.670590389518	2
2	2538	346.117730618437	3
2	2539	346.373865510056	2
2	2542	346.936368809127	1
2	2546	346.975696068576	2
2	2548	347.034805998833	3
2	2549	347.864684805552	2
2	2552	348.529746654908	1
2	2556	348.730110741445	2
2	2557	349.248988579445	1
2	2560	349.695445944135	0
2	2566	350.215475293118	1
2	2567	350.558839423674	0
2	2571	350.704186646339	1
2	2573	350.896206203327	2
2	2574	351.089030593865	1
2	2578	351.620944095392	2
2	2579	351.81008697315	1
2	2583	351.977345086945	2
2	2584	352.258142009889	1
2	2588	352.28354746648	2
2	2589	352.820743075478	1
2	2593	353.134370178421	2
2	2594	353.276242562802	1
2	2598	353.400431922344	2
2	2599	353.894897762453	1
2	2603	354.012743713496	2
2	2604	354.409633465251	1
2	2607	355.11124517601	0
2	2611	355.459284527709	1
2	2612	355.724709789362	0
2	2616	356.006379155852	1
2	2618	356.3056036889	2
2	2619	356.62627643575	1
2	2622	357.113775781496	0
2	2626	357.146022377485	1
2	2627	357.912512638374	0
2	2631	357.929088371578	1
2	2632	358.78016103739	0
2	2636	358.991309779959	1
2	2637	359.746008759039	0
2	2641	359.88213511854	1
2	2642	360.629836796178	0
2	2646	361.051676383012	1
2	2647	361.054194844282	0
2	2651	361.12741612164	1
2	2653	361.449266896974	2
2	2654	361.990369510419	1
2	2658	362.066234301528	2
2	2659	362.518068570645	1
2	2662	363.376976810397	0
2	2666	363.453368326471	1
2	2667	364.363033285086	0
2	2671	364.661511436656	1
2	2672	365.312135590847	0
2	2679	366.608180682026	1
2	2680	367.056803896	0
2	2684	367.095997404943	1
2	2687	367.717418935757	0
2	2691	367.978061256228	1
2	2692	368.245412211122	0
2	2696	368.697929058818	1
2	2697	368.739443125578	0
2	2704	369.988351562841	1
2	2705	370.376396333475	0
2	2712	371.184688744572	1
2	2713	371.966862108701	0
2	2724	372.827216325163	1
2	2727	373.489771457625	0
2	2741	374.963623261538	1
2	2744	375.552729856645	0
2	2794	383.454034184085	1
2	2799	384.187432032546	0
2	2806	384.993295530021	1
2	2807	385.408105741397	0
2	2933	402.514305453283	1
2	2934	402.626882554268	0
2	2945	403.588567383079	1
2	2948	404.110670269098	0
2	2961	404.995628079881	1
2	2964	405.72167187543	0
2	2973	406.7326543686	1
2	2974	406.938977304896	0
2	2978	407.266126876065	1
2	2981	407.691038820803	0
2	2985	407.717182287444	1
2	2986	408.428745581958	0
2	2996	410.241736212414	1
2	2998	410.484527349573	2
2	2999	410.609570127776	1
2	3004	411.341116747078	0
2	3008	411.36914700377	1
2	3011	412.308860957161	0
2	3015	413.031865460819	1
2	3016	413.208382455217	0
2	3020	413.236816991558	1
2	3022	413.480007002382	2
2	3023	414.168385927709	1
2	3027	414.439652790904	2
2	3028	414.636229219198	1
2	3032	415.029995384986	2
2	3033	415.516614445209	1
2	3037	415.726053239381	2
2	3038	416.030264724934	1
2	3042	416.199005633376	2
2	3043	416.989963176896	1
2	3047	416.993170741731	2
2	3050	417.804606086019	1
2	3055	418.786751481009	0
2	3059	419.113815693837	1
2	3060	419.780375946596	0
2	3064	420.467293199951	1
2	3065	420.52980151838	0
2	3069	420.841720276272	1
2	3070	421.372156815467	0
2	3074	421.419327468179	1
2	3075	421.875693023394	0
2	3079	422.245821874432	1
2	3080	422.279802675129	0
2	3087	423.0314433276	1
2	3089	423.055517412527	2
2	3092	423.636144993085	1
2	3097	424.099359786607	0
2	3101	424.123696152583	1
2	3102	424.649037860756	0
2	3108	425.200642941717	1
2	3109	425.381221705306	0
2	3113	425.470566339239	1
2	3114	426.377092694727	0
2	3118	426.787489305804	1
2	3119	427.061095127746	0
2	3123	427.44920128299	1
2	3124	427.931158198699	0
2	3131	428.674841994259	1
2	3133	429.029144475847	2
2	3134	429.587943789273	1
2	3139	430.436478677442	0
2	3143	430.638346535775	1
2	3145	431.109141717921	2
2	3146	431.131213410062	1
2	3150	431.441442477336	2
2	3151	431.793589117334	1
2	3155	431.812916544432	2
2	3156	432.66325816829	1
2	3160	432.805196996014	2
2	3161	433.585018581573	1
2	3165	433.733672368925	2
2	3166	434.070288734326	1
2	3171	434.900036421932	0
2	3175	435.167071553026	1
2	3176	435.31951154303	0
2	3180	435.702829530367	1
2	3181	435.828999859003	0
2	3185	435.987053265543	1
2	3187	436.330433699573	2
2	3188	436.549655642548	1
2	3192	436.768210751166	2
2	3193	437.532827663097	1
2	3197	437.641319255984	2
2	3198	438.324459312671	1
2	3202	438.643055617673	2
2	3203	438.973926676159	1
2	3206	439.644977808559	0
2	3213	440.330392886697	1
2	3216	441.151947500651	0
2	3227	442.136296770246	1
2	3228	442.40323910541	0
2	3245	444.048050838425	1
2	3246	444.805826865976	0
2	3252	445.356272326181	1
2	3253	445.783440543107	0
2	3263	447.318076331489	1
2	3265	447.781299625788	2
2	3266	447.921939679376	1
2	3271	448.737121702173	0
2	3275	448.909825819256	1
2	3278	449.50509695639	0
2	3282	450.184534916112	1
2	3283	450.285921308166	0
2	3287	450.410142878088	1
2	3288	450.907051786362	0
2	3292	451.242758502621	1
2	3293	451.524606119144	0
2	3300	452.061345406392	1
2	3301	452.58878249894	0
2	3310	453.287250560466	1
2	3311	453.691288241652	0
2	3320	454.747425062761	1
2	3321	454.908439370478	0
2	3328	455.869958894324	1
2	3331	456.141777848918	0
2	3351	457.591653042404	1
2	3352	457.604898004699	0
2	3361	458.904871692801	1
2	3362	459.136932765832	0
2	3369	459.692086692781	1
2	3371	459.815000695888	2
2	3372	460.170487420867	1
2	3376	460.574613844333	2
2	3379	460.946295021429	1
2	3385	461.653963796334	2
2	3386	461.682954149462	1
2	3391	462.186555727433	0
2	3395	462.369847192099	1
2	3397	462.488710992133	2
2	3398	463.116335455888	1
2	3402	463.181177472637	2
2	3403	464.016488263664	1
2	3407	464.048985534159	2
2	3408	464.863244770003	1
2	3412	465.197478707127	2
2	3413	465.620712229425	1
2	3417	465.930910780687	2
2	3418	466.125502531418	1
2	3422	466.510097354172	2
2	3423	466.987286097139	1
2	3427	467.52966675925	2
2	3428	467.709983816372	1
2	3432	467.889252930253	2
2	3433	468.199444999361	1
2	3437	468.27471821233	2
2	3438	469.025067514602	1
2	3442	469.050596630979	2
2	3443	469.755181981113	1
2	3449	470.240285958959	2
2	3450	470.470473449027	1
2	3454	470.664958943382	2
2	3455	471.122619795754	1
2	3459	471.610100369689	2
2	3460	471.976452918026	1
2	3463	472.729313329189	0
2	3467	472.729427214454	1
2	3468	473.186114860513	0
2	3472	473.322606267203	1
2	3473	474.093860772067	0
2	3477	474.366323993231	1
2	3480	474.889196289518	0
2	3484	475.095586532011	1
2	3485	475.639159940231	0
2	3489	475.657054080269	1
2	3490	476.615404770292	0
2	3496	477.147141768035	1
2	3497	477.554021378049	0
2	3501	477.671242591836	1
2	3502	478.318502621261	0
2	3506	478.416089901902	1
2	3507	479.080527253264	0
2	3511	479.159440427602	1
2	3512	479.989795695898	0
2	3516	480.184432852373	1
2	3517	480.453312029225	0
2	3521	480.802634545924	1
2	3522	481.395254818677	0
2	3526	481.520326163457	1
2	3527	482.294263596554	0
2	3531	482.388654944092	1
2	3534	483.285308560916	0
2	3541	484.027232630391	1
2	3542	484.340638679825	0
2	3546	484.638995648822	1
2	3549	484.827208322054	0
2	3553	485.151951351621	1
2	3554	485.395897294115	0
2	3561	486.058930618057	1
2	3562	486.407144398289	0
2	3571	487.04437673528	1
2	3574	487.735387910949	0
2	3581	488.812172432796	1
2	3582	489.198288633442	0
2	3591	490.374250620789	1
2	3594	491.142938651611	0
2	3765	516.075672929689	1
2	3774	516.816740815903	0
2	3781	517.743770012598	1
2	3782	518.367418844675	0
2	3797	519.35388482672	1
2	3800	520.194244109237	0
2	3811	520.740336492237	1
2	3812	521.170086237838	0
2	3823	522.262198366656	1
2	3824	522.851105106578	0
2	3835	524.167095187955	1
2	3838	524.419119843378	0
2	3849	525.478170275816	1
2	3850	525.527757739791	0
2	3859	526.494679423806	1
2	3860	526.572601848331	0
2	3867	527.170088872783	1
2	3870	527.917950244018	0
2	3879	528.985370693982	1
2	3880	529.110921686472	0
2	3891	530.722925963276	1
2	3892	530.766683149853	0
2	4027	551.363173442528	1
2	4030	551.859904910392	0
2	4039	553.2336995689	1
2	4040	553.258345493768	0
2	4047	554.020851931265	1
2	4048	554.309298344655	0
2	4055	555.065735547954	1
2	4056	555.301013915706	0
2	4069	556.717768287207	1
2	4070	556.866959048435	0
2	4083	557.824852261878	1
2	4086	558.295977680013	0
2	4093	558.862104200884	1
2	4094	559.225117392839	0
2	4115	561.125295380263	1
2	4116	561.526398173674	0
2	4220	575.918299008233	1
2	4221	576.106376512395	0
2	4230	577.377943721836	1
2	4231	577.561352636898	0
2	4243	579.412281759192	1
2	4244	579.866973743402	0
2	4280	584.996740880143	1
2	4281	585.586628939491	0
2	4290	586.930800416589	1
2	4291	586.992799743405	0
2	4307	588.954556497237	1
2	4308	589.232771481761	0
2	4336	592.642645969874	1
2	4339	592.896503500362	0
2	4350	593.785030686508	1
2	4352	594.256127085796	2
2	4353	594.559019162088	1
2	4358	595.378789094604	0
2	4367	596.292948977229	1
2	4369	596.592354636882	2
2	4370	596.986063976168	1
2	4374	597.167752259159	2
2	4377	597.971132739961	1
2	4381	598.115730005555	2
2	4384	598.471682199465	1
2	4392	599.256300167172	2
2	4393	599.390168779112	1
2	4399	600.088190200465	2
2	4400	600.260690537562	1
2	4404	600.387541525972	2
2	4406	600.645443491175	3
2	4407	601.095954593412	2
2	4410	601.570228707047	1
2	4414	601.852235238881	2
2	4416	602.140040128967	3
2	4417	602.154908977683	2
2	4420	602.810395069841	1
2	4423	603.494350082243	0
2	4427	604.132289257823	1
2	4428	604.286487044489	0
2	4432	604.528294149582	1
2	4433	605.252271480255	0
2	4440	605.721500386894	1
2	4442	605.754710006934	2
2	4444	605.907616625373	3
2	4445	606.614355798627	2
2	4450	607.588408628016	1
2	4453	608.309152580661	0
2	4457	609.163349568335	1
2	4458	609.307841193074	0
2	4462	609.668268096375	1
2	4464	609.683522229067	2
2	4465	610.045876264576	1
2	4469	610.163842620842	2
2	4470	610.822796983974	1
2	4474	611.084805613788	2
2	4475	611.570047489464	1
2	4479	611.615601071854	2
2	4481	611.888108637489	3
2	4482	612.353306742621	2
2	4486	612.545217666934	3
2	4487	613.317474769012	2
2	4491	613.76884777759	3
2	4492	613.868366595966	2
2	4496	614.367217785912	3
2	4497	614.705342759055	2
2	4501	614.770369921465	3
2	4502	615.411424530254	2
2	4506	615.846055603085	3
2	4507	616.380293734514	2
2	4511	616.381318035773	3
2	4512	617.171750257912	2
2	4516	617.81655176244	3
2	4517	618.024018912346	2
2	4520	618.562329847275	1
2	4524	618.948411949674	2
2	4526	619.065978866145	3
2	4527	619.24477684214	2
2	4530	619.712969387139	1
2	4534	620.170326074019	2
2	4535	620.222693292846	1
2	4539	620.28751823428	2
2	4540	621.176802080733	1
2	4544	621.267729016931	2
2	4545	621.757917713191	1
2	4549	621.992101853736	2
2	4551	622.380067674289	3
2	4552	622.525303808603	2
2	4556	622.555492703137	3
2	4557	623.460796417905	2
2	4561	623.733927306487	3
2	4562	624.315998824224	2
2	4566	624.678651132021	3
2	4567	624.935930661209	2
2	4571	625.443105444063	3
2	4572	625.478600632962	2
2	4575	626.135565226482	1
2	4578	626.787737166513	0
2	4582	626.844048387909	1
2	4584	627.154052606146	2
2	4585	627.571493830722	1
2	4588	627.97393584792	0
2	4592	628.09329981083	1
2	4594	628.439681577324	2
2	4595	628.707556672399	1
2	4598	629.187736245156	0
2	4602	629.259149793512	1
2	4603	629.608666568161	0
2	4613	630.880054312578	1
2	4616	631.312771192244	0
2	4622	631.926187468849	1
2	4623	632.057959641148	0
2	4627	632.155468970791	1
2	4628	632.848531417227	0
2	4632	632.959222704305	1
2	4633	633.615479574962	0
2	4643	635.682721022969	1
2	4644	635.857869099271	0
2	4650	636.138286119389	1
2	4651	636.396944978977	0
2	4655	636.9569072689	1
2	4657	637.042933483874	2
2	4658	637.117776627005	1
2	4662	637.222919686944	2
2	4665	638.048006010759	1
2	4669	638.716186810902	2
2	4670	638.902277692086	1
2	4673	639.874056544253	0
2	4677	640.707417337557	1
2	4678	640.792429312603	0
2	4682	641.163299132437	1
2	4683	641.585065004374	0
2	4687	642.037098358342	1
2	4688	642.577493424066	0
2	4692	642.837194134118	1
2	4693	642.978148525399	0
2	4697	643.593430445014	1
2	4699	643.651407703012	2
2	4700	643.966289609303	1
2	4704	644.478218189644	2
2	4705	644.959134768001	1
2	4709	645.122174688707	2
2	4710	645.394737269967	1
2	4714	645.477801478115	2
2	4715	646.277866483252	1
2	4719	646.525625015984	2
2	4720	646.864969434734	1
2	4723	647.487848197162	0
2	4727	647.630272051086	1
2	4729	648.279134670663	2
2	4730	648.30143214488	1
2	4734	648.405547734186	2
2	4735	648.777236937364	1
2	4738	649.597089727787	0
2	4742	650.177500519482	1
2	4743	650.53271143111	0
2	4750	651.093918214437	1
2	4753	651.53691443876	0
2	4760	652.440866508115	1
2	4761	652.840165415737	0
2	4772	653.779746766911	1
2	4773	653.814071673252	0
2	4783	655.50858594088	1
2	4784	655.798193484782	0
2	4791	656.307536508449	1
2	4794	657.117591656889	0
2	4803	658.382420411966	1
2	4804	658.841805356187	0
2	4811	659.688857881621	1
2	4812	660.016672775434	0
2	4818	660.631393902942	1
2	4819	660.858193037012	0
2	4823	660.954238080696	1
2	4825	661.026633871568	2
2	4828	661.396244349196	1
2	4832	661.424736673556	2
2	4835	661.955141799902	1
2	4838	662.732805996347	0
2	4845	663.234457352396	1
2	4846	663.644863012206	0
2	4850	663.666464802736	1
2	4853	664.487352891924	0
2	4857	664.948161726899	1
2	4858	665.232901716564	0
2	4862	665.512828969222	1
2	4864	665.9485020753	2
2	4865	666.089477021765	1
2	4869	666.101082941434	2
2	4870	666.53539730148	1
2	4873	667.382032082049	0
2	4884	668.725720669539	1
2	4886	668.822164647558	2
2	4887	669.0356557719	1
2	4892	669.488069241267	0
2	4896	669.910955440584	1
2	4897	670.421051093942	0
2	4901	670.587069378487	1
2	4904	671.224567648542	0
2	4908	671.522636174071	1
2	4909	671.715907163645	0
2	4916	672.758654021486	1
2	4917	672.835750497	0
2	4921	673.004950591577	1
2	4922	673.280584353821	0
2	4926	673.417017909962	1
2	4929	673.960475842615	0
2	4936	674.642509134331	1
2	4937	675.444547183167	0
2	4946	676.251570113135	1
2	4948	676.36186283289	2
2	4949	676.368152973668	1
2	4954	677.287549816405	0
2	4958	677.54517839959	1
2	4959	678.001617415396	0
2	4969	679.413259855661	1
2	4973	679.786860573303	2
2	4974	679.938224234393	1
2	4979	680.768897458173	0
2	4986	681.641891307415	1
2	4987	681.79580625124	0
2	4994	682.82166009016	1
2	4997	683.440699332028	0
2	5011	685.28580261621	1
2	5014	685.893573548046	0
2	5026	687.163165160241	1
2	5027	687.872654932139	0
2	5035	688.774872287655	1
2	5036	688.789933655092	0
2	5040	689.190934185207	1
2	5041	689.215032092209	0
2	5045	689.389673671224	1
2	5046	690.118374658522	0
2	5050	690.6514018128	1
2	5051	691.089622021193	0
2	5055	691.159452346946	1
2	5056	691.68899378535	0
2	5063	692.522178051742	1
2	5065	692.901276064827	2
2	5066	693.224253649131	1
2	5071	694.065596019483	0
2	5080	695.091922930298	1
2	5082	695.467848439306	2
2	5083	695.596381995088	1
2	5088	696.475739412714	0
2	5092	696.52865088354	1
2	5094	696.58094412047	2
2	5095	697.326691818197	1
2	5099	697.586430869407	2
2	5100	698.225711442397	1
2	5104	698.641453096311	2
2	5105	698.780772355764	1
2	5109	698.802956898794	2
2	5110	699.631226928026	1
2	5114	699.68565717968	2
2	5115	700.356445562194	1
2	5119	700.501288760324	2
2	5120	701.246767994582	1
2	5123	701.757852536028	0
2	5127	701.952849869085	1
2	5129	702.088391485343	2
2	5130	702.664881487803	1
2	5133	703.175483548881	0
2	5137	703.544583035131	1
2	5139	703.569314163536	2
2	5140	704.124499746652	1
2	5143	704.597695005692	0
2	5147	704.696708633701	1
2	5149	705.119493145164	2
2	5150	705.528117646377	1
2	5155	706.351249616274	0
2	5159	706.351954296313	1
2	5160	707.012968454331	0
2	5164	707.084051892832	1
2	5166	707.741395714534	2
2	5167	707.840198490636	1
2	5170	708.564988150175	0
2	5174	708.569529691753	1
2	5176	708.641482975596	2
2	5177	709.114239412087	1
2	5180	710.049255856366	0
2	5184	710.389894589395	1
2	5185	710.683031657438	0
2	5192	711.514319971359	1
2	5193	712.048016112211	0
2	5199	712.107602167548	1
2	5200	713.016804737464	0
2	5224	716.537812972668	1
2	5226	716.77079474504	2
2	5227	716.920978244819	1
2	5231	717.246690273528	2
2	5234	717.415265705023	1
2	5240	717.597399474715	2
2	5241	717.991828218807	1
2	5245	718.51994461007	2
2	5247	718.716243841603	3
2	5248	718.906647706597	2
2	5252	719.145828622522	3
2	5253	719.437495693059	2
2	5257	719.65756945266	3
2	5259	720.21062994925	4
2	5260	720.415488072538	3
2	5264	720.478424954219	4
2	5265	721.006220720715	3
2	5269	721.196513136362	4
2	5270	721.568914266356	3
2	5274	721.624911009535	4
2	5275	722.216036946659	3
2	5279	722.355281955065	4
2	5280	722.966390274425	3
2	5283	723.59941987531	2
2	5287	723.67629043321	3
2	5288	724.461352190196	2
2	5292	724.566894467716	3
2	5293	725.407985903237	2
2	5297	725.410287433266	3
2	5298	726.306440492168	2
2	5301	726.954052875664	1
2	5305	727.020767556522	2
2	5307	727.021289716854	3
2	5308	727.72709651334	2
2	5312	727.742310292706	3
2	5313	728.528948267044	2
2	5317	728.565567977529	3
2	5318	729.275375450735	2
2	5322	729.41151328398	3
2	5323	729.903964969476	2
2	5327	730.155288349694	3
2	5328	730.514760485624	2
2	5332	730.599449009125	3
2	5333	731.220079489525	2
2	5336	731.829559840642	1
2	5340	732.250200066373	2
2	5342	732.360800982227	3
2	5345	732.656187998185	2
2	5349	733.180341961761	3
2	5351	733.443172196801	4
2	5352	733.492325846346	3
2	5356	733.918793276248	4
2	5357	734.322171069968	3
2	5361	734.641382821959	4
2	5362	734.971029534291	3
2	5366	735.114911939136	4
2	5367	735.711977544853	3
2	5371	735.89639363574	4
2	5373	736.050161415838	5
2	5374	736.324983993459	4
2	5378	736.773697678626	5
2	5379	736.773833667587	4
2	5382	737.385127728719	3
2	5386	737.636870838411	4
2	5387	738.033666644718	3
2	5391	738.595550373386	4
2	5393	738.731156727737	5
2	5394	738.953943394225	4
2	5398	739.152810977154	5
2	5399	739.659522589862	4
2	5403	739.966283529011	5
2	5405	740.07630360951	6
2	5406	740.594573089534	5
2	5410	740.679920790538	6
2	5411	741.127678624129	5
2	5415	741.29239970455	6
2	5416	741.546938320397	5
2	5419	742.448062154053	4
2	5423	742.464428659619	5
2	5425	742.497082550071	6
2	5426	742.996424412316	5
2	5430	743.511374316889	6
2	5433	743.913868689172	5
2	5436	744.519870243136	4
2	5440	744.653576299018	5
2	5442	744.717891210643	6
2	5443	745.202505254008	5
2	5447	745.318315264923	6
2	5449	745.619808238713	7
2	5450	746.098252004579	6
2	5454	746.296834536063	7
2	5455	746.789021403676	6
2	5459	747.40953592869	7
2	5460	747.529677508313	6
2	5464	747.578264623598	7
2	5465	748.054758773472	6
2	5469	748.320105619604	7
2	5470	748.974127662701	6
2	5477	749.489198151284	5
2	5481	749.667301929847	6
2	5483	749.87901129945	7
2	5484	750.1930744764	6
2	5489	750.868010804902	5
2	5492	751.314447731019	4
2	5496	751.387873724363	5
2	5498	751.41317207618	6
2	5499	752.029743305228	5
2	5503	752.271059623676	6
2	5504	752.988506387367	5
2	5508	753.200008699123	6
2	5509	753.880779469811	5
2	5513	754.147127765584	6
2	5514	754.502782836749	5
2	5518	754.639559852098	6
2	5519	754.992286079709	5
2	5522	755.605157975439	4
2	5526	755.623894933765	5
2	5527	756.580131167132	4
2	5531	756.65850720709	5
2	5533	757.359477871567	6
2	5534	757.565455370541	5
2	5539	758.342025291785	4
2	5543	758.356946809171	5
2	5544	759.3123740017	4
2	5548	759.465778390306	5
2	5549	759.817276056535	4
2	5552	760.582140581408	3
2	5556	760.854417391742	4
2	5558	760.975384543079	5
2	5559	761.489611061807	4
2	5562	762.473313152376	3
2	5566	762.548120465405	4
2	5568	762.894774510902	5
2	5569	762.95290563582	4
2	5573	763.434399845373	5
2	5575	763.510485834737	6
2	5576	763.872502070111	5
2	5580	763.873143539571	6
2	5581	764.556111998302	5
2	5585	764.751143776373	6
2	5586	765.48274516813	5
2	5590	765.633757690026	6
2	5591	766.427655136217	5
2	5595	766.800036214901	6
2	5596	767.116465550712	5
2	5600	767.489554725006	6
2	5601	768.046392350415	5
2	5605	768.305937775267	6
2	5606	768.614761616573	5
2	5610	768.685688601555	6
2	5611	769.299989743535	5
2	5615	769.446871540026	6
2	5616	769.726246654805	5
2	5620	769.991175599177	6
2	5623	770.575136590893	5
2	5626	771.283176624733	4
2	5630	771.446962804381	5
2	5633	771.803145895111	4
2	5638	772.309081387198	3
2	5642	772.339890010474	4
2	5644	772.539437721738	5
2	5645	772.971484002196	4
2	5649	773.158608233693	5
2	5652	773.759304471924	4
2	5656	774.443449569639	5
2	5657	774.501514162314	4
2	5660	775.298840471036	3
2	5664	775.586580932157	4
2	5665	776.228660188713	3
2	5669	776.433785243258	4
2	5670	776.795999908219	3
2	5674	777.052420751382	4
2	5675	777.717661571088	3
2	5679	777.736649483765	4
2	5680	778.253445265959	3
2	5684	778.472845536319	4
2	5686	778.82653776149	5
2	5687	779.13247343237	4
2	5691	779.287659645265	5
2	5692	779.998684716369	4
2	5695	780.897596086753	3
2	5699	781.253642196316	4
2	5701	781.395872958009	5
2	5702	781.481627209164	4
2	5706	781.989467614181	5
2	5707	782.325683092145	4
2	5711	782.472477837945	5
2	5712	782.798238884477	4
2	5716	783.184593073148	5
2	5717	783.47601682372	4
2	5721	783.837520501008	5
2	5722	783.902848344069	4
2	5726	784.200928702489	5
2	5727	784.469371541455	4
2	5730	785.45449763537	3
2	5734	785.549885260689	4
2	5735	786.336902221111	3
2	5738	786.859171444788	2
2	5742	787.276185616415	3
2	5743	787.772986675804	2
2	5747	787.795957713417	3
2	5749	787.945497792286	4
2	5750	788.522308122139	3
2	5754	788.90793847152	4
2	5755	789.286306616762	3
2	5759	789.950281323809	4
2	5760	790.191693808097	3
2	5764	790.294071430935	4
2	5767	790.727902368648	3
2	5771	791.500602048397	4
2	5772	791.515176678594	3
2	5776	791.821923563672	4
2	5777	792.139206150599	3
2	5780	792.996741639689	2
2	5784	793.277458624384	3
2	5785	793.733547957154	2
2	5789	793.974843370073	3
2	5790	794.335394041944	2
2	5794	794.437018576776	3
2	5795	794.972330355836	2
2	5799	795.352373722766	3
2	5800	795.458367130725	2
2	5804	795.984344842033	3
2	5805	796.325449278118	2
2	5809	796.513917044428	3
2	5810	797.13703940339	2
2	5814	797.188210153697	3
2	5815	797.554762596363	2
2	5818	798.23214267111	1
2	5822	798.557770398739	2
2	5823	799.222640343295	1
2	5827	799.279920981883	2
2	5830	799.676397763524	1
2	5833	800.416954137064	0
2	5842	801.036295252028	1
2	5844	801.152973798051	2
2	5845	801.715519108675	1
2	5849	801.767897537563	2
2	5852	802.238768341817	1
2	5856	802.250178969615	2
2	5858	802.447310802465	3
2	5859	803.218493103521	2
2	5863	803.482494475238	3
2	5864	803.732095164113	2
2	5868	803.807503230531	3
2	5869	804.643363806565	2
2	5873	804.737397843457	3
2	5875	805.017751338998	4
2	5876	805.462015489262	3
2	5880	805.783966803842	4
2	5881	805.947778862954	3
2	5885	806.053330436537	4
2	5889	806.350137913724	5
2	5890	806.52696774258	4
2	5894	806.895359867314	5
2	5895	807.102919245238	4
2	5899	807.279402188611	5
2	5901	807.338700285324	6
2	5902	807.78956880286	5
2	5906	807.879956281106	6
2	5907	808.69961863808	5
2	5911	808.891508108373	6
2	5912	809.395146344282	5
2	5916	809.572537697301	6
2	5917	809.864880345721	5
2	5920	810.630922733207	4
2	5924	810.645398660189	5
2	5925	811.171010489256	4
2	5929	811.490831570387	5
2	5930	811.685379440064	4
2	5934	811.709094110628	5
2	5935	812.111136423197	4
2	5939	812.142452068507	5
2	5940	813.087448478356	4
2	5944	813.976484797069	5
2	5945	814.050120077148	4
2	5948	814.68555816636	3
2	5952	814.731512915154	4
2	5956	814.998288162846	5
2	5957	815.193514380795	4
2	5960	815.623147129831	3
2	5964	815.772802673132	4
2	5966	815.810583342701	5
2	5968	815.952110172576	6
2	5969	816.510672849421	5
2	5973	816.855996480412	6
2	5976	817.047962716273	5
2	5980	817.332487415807	6
2	5983	817.936496519675	5
2	5986	818.652070685155	4
2	5989	819.646708130702	3
2	5993	819.901782812009	4
2	5996	820.371520874282	3
2	6000	820.446410656505	4
2	6002	820.509321179845	5
2	6003	820.807601290155	4
2	6007	820.954740601537	5
2	6009	820.994803113786	6
2	6010	821.381941508973	5
2	6014	821.399068645789	6
2	6015	822.055716886749	5
2	6019	822.253883890601	6
2	6020	822.719054929964	5
2	6025	823.136840684764	4
2	6028	823.607973388774	3
2	6032	823.922930703107	4
2	6033	824.156437594728	3
2	6037	824.360030583909	4
2	6039	824.580166159522	5
2	6040	824.85116794501	4
2	6045	825.338635418988	3
2	6049	825.583404284345	4
2	6051	825.707735787525	5
2	6053	825.715034527248	6
2	6054	825.964757890771	5
2	6057	826.960966050909	4
2	6061	827.179645120962	5
2	6063	827.264228256594	6
2	6065	827.902917585034	7
2	6066	827.921321544754	6
2	6070	828.293421615189	7
2	6072	828.340789312521	8
2	6073	828.516798541792	7
2	6077	828.565518180711	8
2	6078	829.026673112348	7
2	6082	829.054534753103	8
2	6083	829.529543073247	7
2	6087	829.832282078677	8
2	6088	830.507806677702	7
2	6092	830.533196526635	8
2	6095	831.200669870763	7
2	6099	831.611365733491	8
2	6100	831.664885402894	7
2	6104	831.907607743555	8
2	6107	832.602603988074	7
2	6111	832.736643751289	8
2	6112	833.27804396083	7
2	6116	833.489348226222	8
2	6118	833.694216307827	9
2	6120	834.019107715135	10
2	6121	834.244000848805	9
2	6125	834.309335603377	10
2	6126	834.942247331332	9
2	6129	835.858183143198	8
2	6133	835.881246001399	9
2	6134	836.281488280653	8
2	6138	836.286547405714	9
2	6140	836.304966184902	10
2	6142	836.447876891453	11
2	6143	836.706408410103	10
2	6146	837.489194911907	9
2	6149	837.911549663919	8
2	6152	838.905209275524	7
2	6156	839.131380969197	8
2	6157	839.674271384303	7
2	6160	840.287940152737	6
2	6163	840.722870549702	5
2	6166	841.240100297986	4
2	6170	841.325315767355	5
2	6172	841.801189345993	6
2	6174	841.828391701765	7
2	6176	841.944230811292	8
2	6177	841.973732799713	7
2	6181	842.576375803332	8
2	6182	842.64660412078	7
2	6186	843.149558410249	8
2	6187	843.500251200145	7
2	6191	843.623415092858	8
2	6194	844.453259969272	7
2	6198	844.664476923666	8
2	6199	844.857510945203	7
2	6203	845.366998177473	8
2	6204	845.497041639315	7
2	6208	845.526946798126	8
2	6209	846.211790603634	7
2	6212	846.856597132191	6
2	6216	847.028084635757	7
2	6218	847.144875515011	8
2	6219	847.285090757536	7
2	6223	847.692965641895	8
2	6224	848.034744132964	7
2	6227	848.462592262637	6
2	6231	848.937366223356	7
2	6232	849.100744909702	6
2	6237	849.901918408044	5
2	6241	849.94516596482	6
2	6243	850.244511044575	7
2	6245	850.257753871015	8
2	6246	850.586712674426	7
2	6249	851.285813871633	6
2	6252	851.758602164827	5
2	6256	852.032331684237	6
2	6258	852.073800129431	7
2	6259	852.548471786363	6
2	6263	852.908252524818	7
2	6265	853.190205371394	8
2	6266	853.330719458779	7
2	6270	853.701002213468	8
2	6271	854.121691435391	7
2	6274	854.684003799457	6
2	6278	854.82070457736	7
2	6279	855.124093177078	6
2	6283	855.713549314732	7
2	6284	856.122700149335	6
2	6289	857.077229319841	5
2	6293	857.235197386268	6
2	6295	857.33001770517	7
2	6297	857.347880855419	8
2	6298	857.898696321065	7
2	6301	858.771931320571	6
2	6305	858.881125680348	7
2	6307	859.052732188089	8
2	6308	859.362089085861	7
2	6312	859.895789225755	8
2	6313	860.056267111053	7
2	6317	860.213792034178	8
2	6319	860.4204210347	9
2	6320	860.846217723985	8
2	6326	861.459135108233	9
2	6327	861.698912913634	8
2	6331	862.024335956178	9
2	6332	862.480086681389	8
2	6336	862.819333233799	9
2	6337	863.129979244296	8
2	6341	863.264693355397	9
2	6343	863.718531981737	10
2	6344	863.804854047953	9
2	6347	864.287922756842	8
2	6352	864.801800099949	7
2	6356	865.090972949527	8
2	6357	865.220073070612	7
2	6360	865.993578547381	6
2	6366	866.173194376756	7
2	6367	866.548379687688	6
2	6371	866.757457665252	7
2	6373	866.769662465738	8
2	6375	866.98290841901	9
2	6376	867.419428121906	8
2	6380	867.905976406432	9
2	6381	867.963957036754	8
2	6385	868.282763912778	9
2	6386	868.815166107986	8
2	6390	868.83272155978	9
2	6391	869.355678070478	8
2	6395	869.405002399534	9
2	6396	869.913099145472	8
2	6399	870.86975388434	7
2	6403	871.117736534378	8
2	6404	871.304588242855	7
2	6407	871.756149654884	6
2	6411	871.872204577157	7
2	6412	872.640068627011	6
2	6416	872.800228234276	7
2	6418	872.877633365538	8
2	6420	873.050177254064	9
2	6422	873.05744195383	10
2	6423	873.500975282492	9
2	6426	873.943498750685	8
2	6430	874.288882053249	9
2	6431	874.893026974194	8
2	6435	875.421555849272	9
2	6437	875.720012186709	10
2	6438	875.854426155661	9
2	6442	876.024003211457	10
2	6443	876.386991726656	9
2	6446	876.921715028493	8
2	6450	877.541910501776	9
2	6451	877.781289928781	8
2	6455	878.353066523164	9
2	6457	878.431810175561	10
2	6458	878.606437568136	9
2	6464	878.700868945441	10
2	6465	879.499911027544	9
2	6470	879.99188574171	8
2	6474	880.117057034481	9
2	6476	880.504607994672	10
2	6477	880.838690714029	9
2	6481	880.954784146325	10
2	6482	881.634735362421	9
2	6486	881.764396625112	10
2	6487	882.247484206504	9
2	6491	882.532986708003	10
2	6492	883.221010254233	9
2	6496	883.323789068549	10
2	6497	884.21366472659	9
2	6501	884.218233461882	10
2	6502	884.791835637766	9
2	6505	885.64582511117	8
2	6509	886.126278830851	9
2	6510	886.453041574734	8
2	6514	886.827271175895	9
2	6516	887.043142318099	10
2	6518	887.217405261586	11
2	6519	887.447327462447	10
2	6523	887.481540462115	11
2	6524	888.443747290925	10
2	6528	888.71651399897	11
2	6530	888.79592532772	12
2	6531	888.948039764169	11
2	6535	889.000694866804	12
2	6536	889.909461801409	11
2	6540	890.230744393956	12
2	6541	890.594597934469	11
2	6545	890.643163656986	12
2	6546	891.397175917778	11
2	6550	891.829616492341	12
2	6551	892.044838300304	11
2	6554	892.59334566342	10
2	6558	892.791704523976	11
2	6559	893.438956748744	10
2	6563	893.695233658922	11
2	6565	893.892877343577	12
2	6566	894.268222599573	11
2	6570	894.556087640867	12
2	6572	894.624380192352	13
2	6573	895.019350448859	12
2	6577	895.090446493527	13
2	6578	895.423152070263	12
2	6582	895.596571210162	13
2	6583	895.855568412741	12
2	6587	896.432336953205	13
2	6588	896.636585609618	12
2	6591	897.226709225498	11
2	6595	897.68152651109	12
2	6596	897.704291653683	11
2	6600	898.063302271692	12
2	6602	898.124806901352	13
2	6603	898.247470028096	12
2	6607	898.295709656084	13
2	6608	899.156367579059	12
2	6612	899.432259581265	13
2	6613	899.664546341825	12
2	6619	900.488930999662	13
2	6620	900.527681614881	12
2	6624	900.706872624728	13
2	6625	901.258820045417	12
2	6629	901.359467131814	13
2	6630	902.225976304108	12
2	6634	902.31665110054	13
2	6635	903.175572349367	12
2	6639	903.196709901952	13
2	6640	903.624852821886	12
2	6644	903.947244681419	13
2	6647	904.584483671704	12
2	6651	904.889798159976	13
2	6652	905.170752205982	12
2	6656	905.292190515359	13
2	6657	905.634602809328	12
2	6660	906.536030749468	11
2	6663	907.277961838808	10
2	6667	907.949072504005	11
2	6668	908.177172613846	10
2	6672	908.320654289482	11
2	6673	908.73089286052	10
2	6676	909.185402808155	9
2	6680	909.200376418917	10
2	6682	909.43174266999	11
2	6683	909.728763340463	10
2	6687	909.948845874337	11
2	6688	910.290983916403	10
2	6691	910.745861847189	9
2	6694	911.595869621264	8
2	6697	912.287598387852	7
2	6701	912.383560531267	8
2	6703	912.557252394585	9
2	6705	912.81995700629	10
2	6706	913.277640804371	9
2	6710	913.745374415694	10
2	6711	914.055483710256	9
2	6715	914.259043854501	10
2	6716	914.859398779648	9
2	6720	914.972480485171	10
2	6721	915.366785984675	9
2	6724	915.775307545301	8
2	6728	915.860415375477	9
2	6732	916.222839411277	10
2	6733	916.670844173294	9
2	6737	916.940357045288	10
2	6739	916.940682834913	11
2	6740	917.609589490064	10
2	6743	918.390587902677	9
2	6747	918.455845024439	10
2	6749	918.680350205305	11
2	6750	919.27044497561	10
2	6754	919.473265794244	11
2	6755	919.69543510834	10
2	6759	919.958487170544	11
2	6760	920.538045682155	10
2	6766	921.064946331165	11
2	6767	921.221723205505	10
2	6771	921.334965852302	11
2	6772	921.69824057501	10
2	6776	921.935204258556	11
2	6778	922.011268808536	12
2	6779	922.305358923415	11
2	6783	922.362527443851	12
2	6784	923.087703142923	11
2	6789	923.494841278393	10
2	6793	923.64401920647	11
2	6794	924.217989977265	10
2	6798	924.507236006141	11
2	6799	924.755862737589	10
2	6803	924.901255620545	11
2	6804	925.22042019577	10
2	6808	925.495783828547	11
2	6809	925.789739630001	10
2	6812	926.599908913022	9
2	6815	927.358064832354	8
2	6819	927.422659579477	9
2	6821	927.623043542486	10
2	6823	927.877643423015	11
2	6825	928.003656713732	12
2	6826	928.1504295073	11
2	6830	928.228644709104	12
2	6831	928.770438739286	11
2	6835	929.387122596833	12
2	6836	929.450478735288	11
2	6839	929.862589221076	10
2	6845	930.600057802738	11
2	6847	930.68855366463	12
2	6848	930.812009992498	11
2	6852	931.006352261554	12
2	6853	931.783642774495	11
2	6856	932.396609410318	10
2	6860	932.549278367294	11
2	6861	933.156905682851	10
2	6864	933.79404329611	9
2	6868	933.81095275368	10
2	6870	933.934631732978	11
2	6872	934.00944812207	12
2	6873	934.376854704367	11
2	6876	934.80119379973	10
2	6880	934.872937111407	11
2	6881	935.291208613291	10
2	6885	935.719460388424	11
2	6888	936.245016569644	10
2	6891	936.77076331391	9
2	6895	936.772161471929	10
2	6897	936.855708542071	11
2	6898	937.528744160431	10
2	6902	937.648733902451	11
2	6903	938.486319426168	10
2	6908	939.122923224932	9
2	6912	939.143194768381	10
2	6913	939.809728419688	9
2	6917	939.940926958624	10
2	6918	940.792843256938	9
2	6922	941.263069823381	10
2	6923	941.672639458394	9
2	6927	942.08963277858	10
2	6928	942.147608079622	9
2	6932	943.086634484073	10
2	6933	943.134516409785	9
2	6936	943.553946880345	8
2	6940	943.579466253699	9
2	6942	943.653190621444	10
2	6943	944.125999399368	9
2	6947	944.144052654773	10
2	6949	944.348783686908	11
2	6950	944.770542600239	10
2	6954	945.186349497312	11
2	6955	945.617401050357	10
2	6959	945.653226543351	11
2	6960	946.203336936934	10
2	6964	946.516449963301	11
2	6965	947.191710641282	10
2	6968	947.682744449238	9
2	6972	947.772487352351	10
2	6976	948.383942699278	11
2	6977	948.496875906923	10
2	6980	949.07910899683	9
2	6984	949.180017380136	10
2	6986	949.440573175512	11
2	6987	949.604075717275	10
2	6991	949.863796905889	11
2	6992	950.144473680436	10
2	6996	950.214004866802	11
2	6997	951.107704089397	10
2	7001	951.853161705245	11
2	7002	952.076576190583	10
2	7006	952.565278103827	11
2	7007	952.805110795052	10
2	7011	953.185424653337	11
2	7012	953.741920853035	10
2	7015	954.161925197441	9
2	7019	954.723723577321	10
2	7020	955.067707936235	9
2	7024	955.491087864482	10
2	7025	956.046447469482	9
2	7029	956.232618723397	10
2	7031	956.34391271821	11
2	7032	956.923318207918	10
2	7036	957.253423515009	11
2	7037	957.49660563986	10
2	7041	958.124372472182	11
2	7043	958.151316390304	12
2	7044	958.169560722124	11
2	7048	959.030416718288	12
2	7049	959.035114310451	11
2	7053	959.357644622439	12
2	7054	959.572241908686	11
2	7058	959.620980001095	12
2	7059	960.127341904353	11
2	7063	960.725067711657	12
2	7064	960.939387340892	11
2	7068	961.280231864544	12
2	7069	961.608396874696	11
2	7073	961.813410122357	12
2	7074	962.164455607256	11
2	7078	962.267876382731	12
2	7079	962.64471050664	11
2	7082	963.107824746241	10
2	7086	963.504070088946	11
2	7087	963.821606547759	10
2	7091	964.065980223555	11
2	7092	964.738691007673	10
2	7096	964.792605056845	11
2	7097	965.314238694684	10
2	7102	965.813892448509	9
2	7106	966.033731781532	10
2	7108	966.061644615352	11
2	7109	966.553012111878	10
2	7113	967.046724474217	11
2	7115	967.121595032039	12
2	7116	967.33227738985	11
2	7119	967.886595759356	10
2	7123	967.950513695366	11
2	7125	968.247445362782	12
2	7126	968.696844269663	11
2	7130	968.929030743933	12
2	7131	969.172391874485	11
2	7134	969.784061061826	10
2	7138	969.791890117728	11
2	7139	970.342155221805	10
2	7143	970.694201373291	11
2	7145	970.777813861158	12
2	7146	971.30885313526	11
2	7150	971.329350341188	12
2	7151	971.908828199331	11
2	7155	972.339104601235	12
2	7158	972.628888179597	11
2	7162	972.991513622213	12
2	7163	973.063116926609	11
2	7167	973.434754944169	12
2	7168	973.85961727421	11
2	7171	974.628920599215	10
2	7175	975.089363604015	11
2	7176	975.549619503415	10
2	7179	976.099524645277	9
2	7183	976.224418271457	10
2	7185	976.235271653155	11
2	7186	976.662086952527	10
2	7190	976.689821454495	11
2	7191	977.50784289446	10
2	7194	978.204617726712	9
2	7197	978.812830357163	8
2	7201	978.928134338514	9
2	7203	979.041586972576	10
2	7205	979.2381209821	11
2	7210	979.643798889641	10
2	7214	979.7298832208	11
2	7215	980.230800995931	10
2	7219	980.334174042835	11
2	7220	980.814423074761	10
2	7224	980.929590116376	11
2	7225	981.351456644667	10
2	7228	982.172047537241	9
2	7232	982.306217601867	10
2	7234	982.550858047491	11
2	7235	982.629903518829	10
2	7239	982.735966053488	11
2	7240	983.182514135494	10
2	7243	983.645563096414	9
2	7247	983.718778141464	10
2	7249	983.751727065571	11
2	7252	984.452127496387	10
2	7256	984.477288195358	11
2	7257	985.26032045181	10
2	7261	985.499857463343	11
2	7262	985.848727224396	10
2	7266	986.054104023767	11
2	7267	986.297561285693	10
2	7271	986.636145944202	11
2	7272	986.899965192705	10
2	7276	987.021040672794	11
2	7279	987.497661233509	10
2	7283	987.638463280524	11
2	7284	988.089016739933	10
2	7287	988.764073365929	9
2	7291	988.883799945827	10
2	7292	989.614518084566	9
2	7296	989.757302054065	10
2	7297	990.466606662472	9
2	7300	991.283448571156	8
2	7304	991.635292087545	9
2	7306	992.178696934039	10
2	7307	992.225739007027	9
2	7311	992.326060091703	10
2	7312	992.649159281657	9
2	7316	992.95174997492	10
2	7317	993.106203995601	9
2	7321	993.176431158061	10
2	7322	993.837631614788	9
2	7326	993.955399007022	10
2	7327	994.489472415999	9
2	7331	995.063806354919	10
2	7332	995.329272224756	9
2	7336	996.110376338544	10
2	7337	996.20555390008	9
2	7341	996.961485378579	10
2	7342	997.031476944827	9
2	7345	997.550641120973	8
2	7349	997.626525280272	9
2	7350	998.007811421671	8
2	7354	998.591881848002	9
2	7355	998.70033916985	8
2	7359	999.017275076895	9
2	7360	999.557555908014	8
2	7364	1000.282541992636	9
2	7365	1000.374077402943	8
2	7368	1000.991139324478	7
2	7372	1001.420081305476	8
2	7373	1001.924083338867	7
2	7376	1002.532075912089	6
2	7379	1003.249957296302	5
2	7383	1003.704334125515	6
2	7385	1003.887920977832	7
2	7386	1004.160418303687	6
2	7390	1004.213695854935	7
2	7392	1004.248292480245	8
2	7393	1004.952136349868	7
2	7397	1005.205614583616	8
2	7398	1005.422002265699	7
2	7402	1005.883130222293	8
2	7403	1006.380560072096	7
2	7407	1006.61511848018	8
2	7408	1006.785287305949	7
2	7412	1007.104228435105	8
2	7413	1007.20261363746	7
2	7417	1007.292031966751	8
2	7418	1007.895229028634	7
2	7422	1007.908892299887	8
2	7423	1008.456981312254	7
2	7427	1009.108248430087	8
2	7429	1009.402629974775	9
2	7430	1009.442993918437	8
2	7434	1009.449965224913	9
2	7435	1010.424978153597	8
2	7438	1011.37188781747	7
2	7442	1011.433648320648	8
2	7444	1011.590700582274	9
2	7445	1012.295709044722	8
2	7449	1012.641714698252	9
2	7450	1012.911152796543	8
2	7454	1013.186416708179	9
2	7455	1013.317069023897	8
2	7459	1013.713924315519	9
2	7460	1013.869058604821	8
2	7464	1014.27667170456	9
2	7465	1014.758436422565	8
2	7468	1015.646527186644	7
2	7472	1016.137671173593	8
2	7473	1016.351930777498	7
2	7477	1016.590486751887	8
2	7478	1017.298929122325	7
2	7482	1017.585983515226	8
2	7483	1018.029637937436	7
2	7486	1018.973755469222	6
2	7490	1019.271769378774	7
2	7492	1019.761364669671	8
2	7493	1019.932889233765	7
2	7497	1020.085495416608	8
2	7498	1020.416382927776	7
2	7502	1020.65205597111	8
2	7504	1020.827875022966	9
2	7505	1021.021015631876	8
2	7509	1021.504014013281	9
2	7510	1021.557243733157	8
2	7514	1021.582986725445	9
2	7515	1021.981414333268	8
2	7519	1022.158163241457	9
2	7520	1022.669892522649	8
2	7524	1022.693374484269	9
2	7527	1023.568441877657	8
2	7530	1024.409698486471	7
2	7534	1024.58186915419	8
2	7535	1025.228924245158	7
2	7540	1026.132162664927	6
2	7544	1026.742199905701	7
2	7546	1026.883144586625	8
2	7548	1026.966316781427	9
2	7549	1027.017376901771	8
2	7553	1027.177025949686	9
2	7554	1027.782532809538	8
2	7558	1028.182609356338	9
2	7559	1028.255517927001	8
2	7563	1028.633912373276	9
2	7564	1028.665754157494	8
2	7568	1028.808667525934	9
2	7569	1029.12462245785	8
2	7573	1029.179454644629	9
2	7576	1030.058784008634	8
2	7579	1031.007930802882	7
2	7586	1031.501428109177	6
2	7590	1031.672313078733	7
2	7592	1031.759200498921	8
2	7593	1032.407065424745	7
2	7597	1032.729732416597	8
2	7598	1033.064726410669	7
2	7602	1033.154525602489	8
2	7604	1033.283975253358	9
2	7605	1033.930354852325	8
2	7609	1033.936074006488	9
2	7610	1034.415240955914	8
2	7614	1034.838714809745	9
2	7615	1034.861506934653	8
2	7619	1034.954480023835	9
2	7620	1035.371389828718	8
2	7624	1036.306790182681	9
2	7625	1036.354977857091	8
2	7629	1036.401837599063	9
2	7630	1036.906780683624	8
2	7634	1037.411833393021	9
2	7635	1037.618923153218	8
2	7638	1038.368380828809	7
2	7642	1038.558032441886	8
2	7644	1038.725535985867	9
2	7645	1038.903892754998	8
2	7648	1039.36995737646	7
2	7652	1039.576249958842	8
2	7655	1040.214824689834	7
2	7659	1040.271653638667	8
2	7660	1040.723165638794	7
2	7663	1041.218534740994	6
2	7667	1041.505051164329	7
2	7671	1041.665947711024	8
2	7672	1042.028552729545	7
2	7676	1042.087475433825	8
2	7677	1042.880675406849	7
2	7680	1043.598279121241	6
2	7684	1043.65626564334	7
2	7685	1044.083624520574	6
2	7689	1044.399598315762	7
2	7691	1044.673549941388	8
2	7692	1044.940599028442	7
2	7696	1045.274104312121	8
2	7697	1045.465329115467	7
2	7701	1045.724004459468	8
2	7702	1046.42096869941	7
2	7708	1046.710888307894	8
2	7709	1047.378410201149	7
2	7713	1047.703309761378	8
2	7718	1048.316793130387	7
2	7722	1048.413053148555	8
2	7723	1048.97183039915	7
2	7727	1049.056172955394	8
2	7728	1049.967212291669	7
2	7732	1050.080741999737	8
2	7733	1050.760763623521	7
2	7737	1051.59399839191	8
2	7738	1051.634794940848	7
2	7742	1051.805533653465	8
2	7744	1052.423213977169	9
2	7745	1052.58990604412	8
2	7748	1053.16649613646	7
2	7751	1053.937418178377	6
2	7755	1054.095201775556	7
2	7757	1054.115539007971	8
2	7758	1054.803045464448	7
2	7761	1055.430514804135	6
2	7765	1055.591857203544	7
2	7766	1056.047091783817	6
2	7770	1056.189753692882	7
2	7771	1056.52855611751	6
2	7774	1057.001754170797	5
2	7778	1057.464591349054	6
2	7779	1057.524759479101	5
2	7784	1058.142450293574	4
2	7788	1058.186593711435	5
2	7790	1058.907116748087	6
2	7791	1059.113381017699	5
2	7795	1059.186480045283	6
2	7796	1059.747391055805	5
2	7799	1060.153690628522	4
2	7802	1060.885259460286	3
2	7805	1061.40204403312	2
2	7808	1062.168977652444	1
2	7812	1062.277312757	2
2	7813	1062.569849699224	1
2	7817	1062.895040610194	2
2	7818	1063.118068209943	1
2	7822	1063.386764087216	2
2	7824	1063.503103235878	3
2	7826	1063.513303143786	4
2	7828	1063.535109693204	5
2	7829	1063.791548244376	4
2	7833	1063.928507984438	5
2	7834	1064.4333585619	4
2	7838	1064.51088257155	5
2	7840	1064.563443504734	6
2	7841	1064.910939767166	5
2	7845	1065.134336485057	6
2	7846	1065.642198011699	5
2	7850	1065.861242848554	6
2	7852	1066.298710103243	7
2	7853	1066.381335861423	6
2	7857	1066.611862958869	7
2	7859	1066.850925697687	8
2	7860	1067.068987594173	7
2	7863	1067.562474586396	6
2	7867	1067.918142216058	7
2	7868	1068.003620476649	6
2	7872	1068.415290761554	7
2	7873	1068.429385363358	6
2	7877	1069.17780713348	7
2	7878	1069.317655431992	6
2	7882	1069.382966394705	7
2	7883	1069.754622243345	6
2	7886	1070.425066275895	5
2	7890	1070.705415055011	6
2	7891	1071.176740086871	5
2	7895	1071.219772612	6
2	7897	1071.24194200202	7
2	7899	1071.796765316097	8
2	7900	1071.827058368875	7
2	7903	1072.351415055525	6
2	7907	1073.016570498031	7
2	7908	1073.167346272525	6
2	7912	1073.283955549552	7
2	7914	1073.373247592771	8
2	7915	1073.615608433495	7
2	7919	1073.806658784699	8
2	7921	1073.953550232309	9
2	7922	1074.472438400053	8
2	7926	1074.916987215344	9
2	7927	1075.301057444979	8
2	7931	1075.448562837125	9
2	7932	1076.286445220374	8
2	7936	1076.398519413339	9
2	7937	1076.842070910149	8
2	7941	1076.985084074429	9
2	7942	1077.262118174229	8
2	7946	1077.693438171536	9
2	7947	1078.132165327668	8
2	7950	1078.881940262206	7
2	7953	1079.413372247014	6
2	7957	1079.81988695637	7
2	7958	1080.231155579351	6
2	7962	1080.524578117423	7
2	7964	1080.719915808912	8
2	7965	1080.752574267704	7
2	7969	1080.763325893943	8
2	7970	1081.5230673871	7
2	7974	1081.575158475753	8
2	7975	1082.403642957331	7
2	7979	1082.983291877756	8
2	7980	1083.131521309492	7
2	7984	1083.765187725198	8
2	7985	1083.82840061183	7
2	7989	1084.222816451852	8
2	7990	1084.630413915961	7
2	7994	1084.959656403116	8
2	7995	1085.344590872525	7
2	7998	1085.944114888645	6
2	8001	1086.536718035209	5
2	8005	1086.602092254272	6
2	8007	1086.767153064749	7
2	8008	1087.093478426662	6
2	8012	1087.377857373181	7
2	8013	1087.679860319755	6
2	8016	1088.578738354332	5
2	8020	1088.896519083697	6
2	8021	1089.412202426651	5
2	8025	1089.698746927945	6
2	8027	1089.73075921602	7
2	8028	1089.876721370266	6
2	8032	1089.888465026564	7
2	8033	1090.37028464172	6
2	8036	1091.007034327089	5
2	8040	1091.081885775468	6
2	8042	1091.397477676467	7
2	8043	1091.684049433795	6
2	8047	1092.205003367693	7
2	8048	1092.500911912647	6
2	8052	1092.835369661551	7
2	8053	1093.166437497361	6
2	8057	1093.391432245683	7
2	8058	1093.671803204434	6
2	8062	1093.687879983608	7
2	8063	1094.090827415463	6
2	8067	1094.918388294878	7
2	8068	1095.090265771233	6
2	8072	1095.232806216853	7
2	8075	1095.956605698865	6
2	8079	1095.988515341523	7
2	8080	1096.71639579092	6
2	8084	1096.787510211932	7
2	8085	1097.185990787855	6
2	8088	1097.6417239713	5
2	8092	1097.850876935571	6
2	8093	1098.260886156092	5
2	8097	1098.515458311119	6
2	8098	1098.723489058668	5
2	8102	1098.925022594687	6
2	8103	1099.341724258753	5
2	8107	1099.545559416302	6
2	8108	1100.239240280863	5
2	8112	1100.344324422451	6
2	8115	1100.732403382937	5
2	8119	1100.900120720995	6
2	8120	1101.611457289055	5
2	8124	1102.395108596649	6
2	8125	1102.449397660324	5
2	8129	1102.684260338916	6
2	8130	1103.083993334042	5
2	8135	1103.643506662965	4
2	8139	1104.12148227147	5
2	8140	1104.512969370604	4
2	8144	1104.546056356194	5
2	8146	1104.730206458926	6
2	8147	1105.450890702427	5
2	8151	1105.62703708015	6
2	8152	1106.22018002658	5
2	8155	1106.66710904152	4
2	8159	1106.818008907041	5
2	8161	1107.139802768406	6
2	8162	1107.237750318226	5
2	8165	1107.670472340052	4
2	8169	1107.780116725561	5
2	8170	1108.557319339224	4
2	8174	1108.707322740089	5
2	8175	1109.261856028949	4
2	8179	1109.327003155246	5
2	8181	1109.565653935268	6
2	8182	1110.010617720195	5
2	8186	1110.290404317804	6
2	8187	1110.488246087915	5
2	8190	1111.179960726107	4
2	8194	1111.830757221419	5
2	8195	1112.073998830187	4
2	8199	1112.268510506787	5
2	8201	1112.337451954818	6
2	8202	1112.859666372043	5
2	8206	1113.152322878494	6
2	8207	1113.520752198015	5
2	8210	1114.363775681005	4
2	8214	1114.717665863101	5
2	8215	1115.341647588368	4
2	8219	1115.892867044019	5
2	8220	1116.170667641563	4
2	8223	1116.735269813053	3
2	8227	1117.088542800096	4
2	8229	1117.303059694334	5
2	8230	1117.633956673182	4
2	8234	1117.736308291395	5
2	8235	1118.184420347772	4
2	8240	1118.896188757754	3
2	8244	1119.459526382407	4
2	8246	1119.498720448192	5
2	8248	1119.753897196489	6
2	8249	1119.768251027445	5
2	8252	1120.168521961569	4
2	8256	1120.535163114393	5
2	8258	1120.971239163578	6
2	8259	1121.013711982825	5
2	8263	1121.267152735306	6
2	8264	1121.753486397023	5
2	8268	1122.327044841503	6
2	8271	1122.567773514612	5
2	8275	1122.748003803895	6
2	8276	1123.500662859574	5
2	8280	1123.629309227404	6
2	8281	1124.039456000783	5
2	8285	1124.24688724894	6
2	8286	1124.829102917806	5
2	8290	1125.283206634255	6
2	8291	1125.755062481294	5
2	8294	1126.162969785741	4
2	8300	1126.493584224364	5
2	8302	1126.699467086433	6
2	8303	1126.949270822898	5
2	8307	1127.010401050356	6
2	8308	1127.685672785201	5
2	8312	1128.047347393933	6
2	8313	1128.638855398632	5
2	8316	1129.242319385195	4
2	8320	1129.628679130092	5
2	8321	1129.691434849612	4
2	8325	1129.978980717298	5
2	8326	1130.36490974985	4
2	8329	1131.23314874866	3
2	8333	1131.249606160564	4
2	8335	1131.317062380384	5
2	8336	1131.839522367063	4
2	8340	1131.896210166109	5
2	8341	1132.695125733734	4
2	8345	1132.711727136496	5
2	8346	1133.556268413969	4
2	8350	1133.561779590706	5
2	8352	1133.594688739764	6
2	8353	1134.078694244287	5
2	8357	1134.54479173975	6
2	8358	1134.859559870371	5
2	8362	1134.985048414152	6
2	8364	1135.079786811801	7
2	8365	1135.683748205797	6
2	8369	1135.830943871914	7
2	8370	1136.530853426269	6
2	8373	1137.017293508862	5
2	8376	1137.518796549969	4
2	8380	1137.802347952155	5
2	8382	1138.267304706231	6
2	8384	1138.39211037069	7
2	8385	1138.509833607542	6
2	8389	1138.715980983133	7
2	8390	1139.444945759884	6
2	8394	1139.693966887716	7
2	8395	1140.427548540662	6
2	8399	1140.933467375264	7
2	8401	1141.095774302385	8
2	8402	1141.314797962968	7
2	8407	1141.819078072625	6
2	8410	1142.46041886499	5
2	8414	1142.580232190664	6
2	8416	1142.870850568206	7
2	8417	1143.454768105781	6
2	8421	1143.606717615003	7
2	8422	1144.15086391419	6
2	8426	1144.460975246787	7
2	8428	1144.493004349695	8
2	8429	1144.747856523607	7
2	8433	1145.0029139481	8
2	8434	1145.688280579399	7
2	8438	1145.798728969576	8
2	8439	1146.102414210045	7
2	8443	1146.229013315705	8
2	8444	1146.66439263825	7
2	8448	1146.795793288848	8
2	8449	1147.550378047765	7
2	8453	1147.956491139564	8
2	8454	1148.322680889207	7
2	8458	1148.464575875979	8
2	8459	1149.131543677437	7
2	8463	1149.821279926815	8
2	8464	1150.08516078009	7
2	8468	1150.20509922377	8
2	8469	1150.664374612362	7
2	8473	1150.845022549561	8
2	8474	1151.181676600917	7
2	8478	1151.937863358239	8
2	8479	1152.131976376657	7
2	8483	1152.327518509062	8
2	8484	1152.747024181622	7
2	8488	1152.811734338953	8
2	8489	1153.384247948692	7
2	8493	1153.540997925235	8
2	8494	1154.149110124397	7
2	8497	1155.041708569831	6
2	8501	1155.384843490811	7
2	8502	1155.888767639125	6
2	8506	1155.902771170321	7
2	8507	1156.4220377563	6
2	8511	1156.509996965072	7
2	8513	1156.690113441874	8
2	8514	1156.85626067747	7
2	8518	1157.476930095797	8
2	8519	1157.538195522405	7
2	8523	1158.021342495043	8
2	8525	1158.121434679886	9
2	8526	1158.360954899942	8
2	8530	1159.17242332273	9
2	8531	1159.245448798123	8
2	8534	1159.654132363755	7
2	8538	1159.687208734034	8
2	8539	1160.303721200578	7
2	8543	1160.338179954241	8
2	8545	1160.467028579456	9
2	8546	1160.938785301425	8
2	8550	1160.969979618666	9
2	8551	1161.552068353115	8
2	8554	1162.015175315408	7
2	8558	1162.02942374622	8
2	8559	1162.446733416939	7
2	8563	1162.472609488802	8
2	8565	1162.814786221636	9
2	8566	1163.257111810982	8
2	8570	1163.394765765695	9
2	8571	1163.900035381593	8
2	8575	1164.057461405681	9
2	8576	1164.853631227879	8
2	8580	1165.382036065373	9
2	8581	1165.550067157155	8
2	8585	1165.734967630312	9
2	8586	1166.062364628302	8
2	8589	1166.76798109002	7
2	8593	1166.894904323229	8
2	8594	1167.41494245864	7
2	8598	1167.427611135354	8
2	8600	1167.469320684926	9
2	8601	1167.941876112525	8
2	8605	1168.289383280968	9
2	8608	1168.562843033247	8
2	8612	1168.672251053114	9
2	8615	1169.460427347053	8
2	8619	1169.716188115197	9
2	8620	1170.182480099373	8
2	8624	1170.386244284073	9
2	8628	1170.678000568733	10
2	8629	1170.752081900644	9
2	8633	1171.136542698361	10
2	8634	1171.282667657728	9
2	8638	1171.539598386736	10
2	8639	1172.221882605408	9
2	8642	1172.635333088454	8
2	8646	1172.902675185279	9
2	8648	1173.085012284431	10
2	8651	1173.470221278671	9
2	8655	1173.542307983469	10
2	8656	1174.452209554327	9
2	8660	1174.902254246734	10
2	8661	1174.906126206409	9
2	8665	1175.507493427865	10
2	8666	1175.827485916665	9
2	8670	1176.019219639174	10
2	8671	1176.24604167039	9
2	8675	1176.448219297495	10
2	8676	1177.232098291763	9
2	8680	1177.290576239069	10
2	8681	1178.115273444583	9
2	8685	1178.217650147751	10
2	8687	1178.517288149315	11
2	8688	1178.677717657243	10
2	8692	1178.776119963404	11
2	8693	1179.249906758401	10
2	8697	1179.264011852085	11
2	8698	1180.233927290882	10
2	8703	1180.753947017244	9
2	8707	1180.913938921309	10
2	8708	1181.442823049049	9
2	8712	1181.752857799127	10
2	8713	1182.007946351399	9
2	8717	1182.649411142297	10
2	8718	1182.827601337568	9
2	8722	1182.973139417497	10
2	8723	1183.321509523359	9
2	8727	1183.324566794513	10
2	8728	1183.857889908873	9
2	8732	1184.044448986879	10
2	8733	1184.365969018214	9
2	8737	1184.459446929033	10
2	8738	1185.263369370759	9
2	8742	1185.564876229709	10
2	8743	1186.211753777689	9
2	8746	1187.171834119218	8
2	8750	1187.338757130924	9
2	8751	1187.817481689057	8
2	8755	1188.179377840407	9
2	8756	1188.619069974678	8
2	8760	1188.669076331006	9
2	8763	1189.520417708805	8
2	8767	1189.735153049723	9
2	8768	1190.212972900452	8
2	8774	1190.523824268313	9
2	8775	1190.990228119254	8
2	8779	1191.158257335833	9
2	8780	1191.512455662101	8
2	8784	1191.886067647403	9
2	8785	1192.185732349468	8
2	8789	1192.204364290124	9
2	8790	1192.747133718565	8
2	8793	1193.72773709427	7
2	8797	1193.999543649012	8
2	8798	1194.29030404719	7
2	8802	1194.608224602186	8
2	8804	1194.646652669292	9
2	8805	1195.189904001117	8
2	8808	1195.625278479973	7
2	8812	1196.202180983146	8
2	8813	1196.416527044162	7
2	8817	1196.437920991602	8
2	8819	1196.577423361236	9
2	8820	1197.289894005138	8
2	8824	1197.318656339735	9
2	8826	1197.35371231354	10
2	8827	1198.179242026474	9
2	8831	1198.531227545423	10
2	8832	1198.667809311201	9
2	8836	1198.805106728783	10
2	8837	1199.577161065902	9
2	8841	1199.753204069744	10
2	8842	1200.358363728452	9
2	8845	1201.152175947878	8
2	8849	1201.30649572659	9
2	8851	1201.466542424177	10
2	8852	1201.590074850473	9
2	8856	1201.796205443431	10
2	8857	1202.180657282931	9
2	8861	1202.208675395956	10
2	8864	1202.936819112015	9
2	8868	1203.096386362858	10
2	8869	1203.363443940639	9
2	8873	1203.408183512459	10
2	8874	1203.917355686699	9
2	8878	1203.950329985989	10
2	8879	1204.389444348442	9
2	8883	1204.975230586517	10
2	8884	1205.309325552026	9
2	8888	1205.576896147355	10
2	8889	1205.860987985732	9
2	8893	1206.056558581423	10
2	8894	1206.591474085992	9
2	8897	1207.090885097945	8
2	8901	1207.198724068868	9
2	8903	1207.318837400646	10
2	8904	1208.072904023008	9
2	8908	1208.962895139523	10
2	8909	1209.035215956989	9
2	8913	1209.097895272069	10
2	8914	1209.966643732731	9
2	8918	1210.127832286198	10
2	8919	1210.591216228987	9
2	8923	1210.613348221056	10
2	8924	1211.451919965717	9
2	8928	1211.589641922965	10
2	8931	1212.245998380837	9
2	8935	1212.542974405562	10
2	8936	1212.720654919782	9
2	8939	1213.563753107182	8
2	8942	1214.023820828685	7
2	8946	1214.425963420281	8
2	8947	1214.437934203624	7
2	8951	1214.514445401892	8
2	8953	1214.871168449784	9
2	8955	1215.055604374698	10
2	8956	1215.205365948138	9
2	8960	1215.236447905557	10
2	8961	1216.063484086926	9
2	8965	1216.125941629476	10
2	8966	1216.659715115783	9
2	8969	1217.083627171341	8
2	8973	1217.282299569249	9
2	8975	1217.387724662832	10
2	8976	1218.050427525343	9
2	8980	1218.243758117133	10
2	8981	1218.648437124064	9
2	8985	1218.997926694207	10
2	8986	1219.542568594442	9
2	8990	1220.073572629186	10
2	8991	1220.508218176422	9
2	8995	1221.220024220477	10
2	8996	1221.443855341004	9
2	9000	1221.647498210156	10
2	9001	1221.892113889374	9
2	9005	1222.264479844258	10
2	9006	1222.876859586679	9
2	9010	1223.262314559733	10
2	9011	1223.350496596464	9
2	9015	1223.674384277695	10
2	9016	1223.948437953082	9
2	9019	1224.632810701097	8
2	9023	1224.73551902726	9
2	9025	1225.382567770724	10
2	9026	1225.449325100605	9
2	9030	1225.800839133148	10
2	9031	1225.991879993717	9
2	9035	1226.079951195145	10
2	9036	1226.67074225493	9
2	9040	1227.187786807542	10
2	9041	1227.586917198722	9
2	9044	1228.004088585864	8
2	9048	1228.392320612747	9
2	9049	1228.719274849718	8
2	9053	1228.73184131792	9
2	9054	1229.696889476938	8
2	9058	1229.826770676416	9
2	9059	1230.148249670764	8
2	9063	1230.766368953092	9
2	9064	1230.961989927565	8
2	9069	1231.552179930213	7
2	9073	1231.612222336201	8
2	9075	1232.263744756875	9
2	9076	1232.378928715496	8
2	9080	1232.5026757772	9
2	9081	1232.872260845632	8
2	9085	1233.377183638969	9
2	9086	1233.446284125273	8
2	9090	1233.67037541142	9
2	9091	1234.002498088584	8
2	9094	1234.820778958399	7
2	9098	1234.917675595382	8
2	9099	1235.483590670901	7
2	9102	1236.048587589378	6
2	9106	1236.137023342105	7
2	9109	1236.643610620585	6
2	9113	1236.970477042888	7
2	9115	1237.113227049061	8
2	9116	1237.451882592349	7
2	9120	1237.88659090247	8
2	9121	1237.910984932205	7
2	9125	1238.088297668907	8
2	9126	1238.423805738652	7
2	9129	1238.991665617835	6
2	9133	1239.290396883107	7
2	9134	1239.704820727643	6
2	9138	1240.29224038003	7
2	9139	1240.390347147819	6
2	9142	1240.843500245961	5
2	9145	1241.429798877977	4
2	9148	1241.839309027085	3
2	9152	1241.999175148099	4
2	9154	1242.058289201189	5
2	9156	1242.216457546881	6
2	9158	1242.420590238183	7
2	9159	1242.640662404282	6
2	9163	1242.651338420867	7
2	9164	1243.213996661028	6
2	9168	1243.526178004698	7
2	9169	1243.75021282145	6
2	9173	1244.396728583345	7
2	9174	1244.506339222884	6
2	9177	1245.358786960731	5
2	9183	1245.876614764595	6
2	9184	1246.343738321162	5
2	9188	1246.476078095396	6
2	9189	1247.31754707875	5
2	9193	1247.455980719947	6
2	9194	1248.050157064565	5
2	9198	1248.4798841191	6
2	9199	1249.04206418995	5
2	9203	1249.103154962471	6
2	9204	1249.884025734143	5
2	9208	1250.300315003792	6
2	9209	1250.676693153094	5
2	9213	1251.048919137425	6
2	9214	1251.556262929311	5
2	9218	1252.286379877608	6
2	9219	1252.547683547523	5
2	9223	1252.730005649147	6
2	9224	1253.113913837627	5
2	9228	1253.569890884017	6
2	9229	1253.876635333935	5
2	9233	1253.980174140466	6
2	9234	1254.571354128925	5
2	9238	1254.928839506441	6
2	9239	1255.322127128105	5
2	9243	1255.338932506719	6
2	9244	1256.232097280483	5
2	9248	1256.965922968214	6
2	9249	1257.069168272793	5
2	9253	1257.265399683701	6
2	9254	1257.853388222392	5
2	9258	1258.185413589512	6
2	9259	1258.346444359227	5
2	9263	1258.876455005853	6
2	9264	1259.343193658107	5
2	9267	1260.013844683711	4
2	9271	1260.314468413394	5
2	9273	1260.433909448941	6
2	9274	1260.469126530868	5
2	9278	1260.580394687657	6
2	9279	1261.084717831845	5
2	9283	1261.268203770653	6
2	9284	1261.594084659536	5
2	9287	1262.076093363334	4
2	9291	1262.507677487201	5
2	9292	1262.717069621143	4
2	9295	1263.443860214056	3
2	9298	1263.891599907532	2
2	9302	1264.04658524025	3
2	9304	1264.113807929643	4
2	9306	1264.268412978302	5
2	9308	1264.376674207314	6
2	9309	1264.521629130739	5
2	9313	1264.757820438328	6
2	9315	1264.879691777613	7
2	9316	1265.348953330462	6
2	9319	1265.893415257	5
2	9323	1266.160725394984	6
2	9324	1266.487286911291	5
2	9328	1266.77477975921	6
2	9331	1267.456640695027	5
2	9335	1268.04320771932	6
2	9336	1268.322103641593	5
2	9340	1268.898292329361	6
2	9341	1268.965906805211	5
2	9345	1269.096119561407	6
2	9346	1269.599438129078	5
2	9350	1269.599944682833	6
2	9351	1270.150878897627	5
2	9355	1271.009058747908	6
2	9356	1271.142448326052	5
2	9360	1271.496489123677	6
2	9361	1271.868126395662	5
2	9365	1272.514272329314	6
2	9366	1272.682693770286	5
2	9369	1273.50868662064	4
2	9373	1274.041182308541	5
2	9374	1274.121015483737	4
2	9378	1274.506909575594	5
2	9379	1274.749267650992	4
2	9383	1274.770057702214	5
2	9384	1275.674613159746	4
2	9388	1275.750364728778	5
2	9390	1275.770234003255	6
2	9392	1275.772648074862	7
2	9393	1276.24016708293	6
2	9397	1276.410159199484	7
2	9398	1277.178637919193	6
2	9402	1277.624605911829	7
2	9403	1277.799334266772	6
2	9407	1278.122352663379	7
2	9408	1278.428874821113	6
2	9412	1278.88578306509	7
2	9414	1279.189999298117	8
2	9415	1279.237884888462	7
2	9419	1279.49581327036	8
2	9420	1279.722760753836	7
2	9424	1280.009267453013	8
2	9425	1280.371644113948	7
2	9429	1280.491240177177	8
2	9430	1280.881813933271	7
2	9434	1281.193335008468	8
2	9435	1281.858579201846	7
2	9439	1282.626303277641	8
2	9440	1282.651879479772	7
2	9443	1283.275838513755	6
2	9447	1283.68837485659	7
2	9448	1283.767281864992	6
2	9452	1284.08683905348	7
2	9454	1284.206092143673	8
2	9455	1284.237674417616	7
2	9459	1284.593240711344	8
2	9460	1285.125663382503	7
2	9464	1285.370313418358	8
2	9465	1285.609415222647	7
2	9471	1286.297972792939	8
2	9472	1286.3470977425	7
2	9476	1286.473757360227	8
2	9477	1286.833393350419	7
2	9481	1287.06451804856	8
2	9482	1287.671230059898	7
2	9485	1288.185200464761	6
2	9489	1288.457836765947	7
2	9491	1288.68025016283	8
2	9492	1289.008830370836	7
2	9496	1289.250645438812	8
2	9498	1289.583127456052	9
2	9499	1289.866287252063	8
2	9502	1290.520075863961	7
2	9506	1291.061655838818	8
2	9508	1291.111266397547	9
2	9509	1291.359426724154	8
2	9513	1291.440526057658	9
2	9515	1291.481640912247	10
2	9516	1291.845115195063	9
2	9520	1291.893382629908	10
2	9521	1292.278316190966	9
2	9526	1292.701061750191	8
2	9530	1292.784771015175	9
2	9531	1293.586068764875	8
2	9535	1294.007777104152	9
2	9540	1294.53563881464	8
2	9544	1294.600226873183	9
2	9545	1295.395657145266	8
2	9549	1295.731056180755	9
2	9550	1296.095039507827	8
2	9554	1296.274106240391	9
2	9555	1296.9684236633	8
2	9559	1297.640071510357	9
2	9560	1297.718925531941	8
2	9564	1297.838207384514	9
2	9566	1298.194326939811	10
2	9567	1298.340706946223	9
2	9571	1298.415500851745	10
2	9572	1298.796210702729	9
2	9576	1298.974176969118	10
2	9578	1299.0062415796	11
2	9579	1299.363176511681	10
2	9583	1299.783356107549	11
2	9584	1300.080165117035	10
2	9589	1301.006029297958	9
2	9593	1301.301035151047	10
2	9594	1301.701784115319	9
2	9598	1301.885258292715	10
2	9599	1302.579116822488	9
2	9602	1303.258440433291	8
2	9605	1303.761109794152	7
2	9609	1304.084223786088	8
2	9613	1304.455285376204	9
2	9614	1304.548551447119	8
2	9618	1304.928135959798	9
2	9619	1305.354211702093	8
2	9623	1305.555751288763	9
2	9625	1305.602851027096	10
2	9626	1305.992536092678	9
2	9629	1306.759928276565	8
2	9633	1306.787003592131	9
2	9635	1306.834880934342	10
2	9636	1307.274574932259	9
2	9639	1308.06830191248	8
2	9643	1308.302185315423	9
2	9644	1309.049780678227	8
[...]
6	187098	25461.535352545437	1.292839891244
6	187111	25463.477204778157	29.21064143587
6	187140	25467.1621042642	14.654018840887
6	187170	25471.304865777977	7.675234661082
6	187271	25485.69828009663	41.787105714116
6	187286	25487.663825231668	31.228631602034
6	187346	25496.029607458381	17.442268089835
6	187426	25505.953394922909	33.359023270297
6	187502	25518.157567544298	8.812747893006
6	187572	25527.518909586845	38.895490474925
6	187749	25552.519104220689	6.520391922718
6	187803	25559.989185065189	35.569422191259
6	187826	25562.819299887046	32.15426327306
6	187834	25564.17984817137	28.244844646781
6	187955	25580.459820344737	10.827330657431
6	188012	25588.939597033401	20.544343522319
6	188030	25592.031864438829	55.155117441641
6	188096	25601.063984496676	2.678449622825
6	188181	25611.616318709188	40.017169511257
6	188209	25615.947165434732	12.120610870775
6	188310	25630.313497672108	2.543469497402
6	188330	25633.31701659995	48.398609025932
6	188350	25635.957328689814	2.885382251194
6	188385	25640.873876919754	60.783890190522
6	188403	25643.441098905464	2.601257453225
6	188504	25658.080719030526	58.891880539721
6	188532	25661.902678456034	0.896730081998
6	188726	25685.33865146606	22.849588301791
6	188776	25692.343078035038	17.244344225348
6	188843	25700.399557058109	53.7239207035
6	188914	25709.330599537273	8.810384011565
6	188924	25711.149774960675	16.772541599552
6	188934	25712.83733548421	9.726902390855
6	189016	25724.497270936393	48.103898110552
6	189049	25728.95997724865	10.297436462686
6	189337	25766.323958041716	101.35549285461
6	189385	25771.863311416668	93.255860529842
6	189530	25791.043810380684	91.803685871227
6	189533	25791.58744721321	23.780816929087
6	189551	25794.705340879705	35.843438908445
6	189648	25807.762602745291	37.78445472673
6	189675	25811.346442684129	23.997228950135
6	189784	25825.393345113998	63.515859471986
6	189794	25826.777109304132	51.958004464511
6	189865	25836.246635007595	5.737398104855
6	189873	25837.215369885105	132.20194696879
6	189880	25837.848520032286	85.974959474991
6	189943	25846.351512542569	12.63930657767
6	190052	25857.957158095265	43.497665685503
6	190087	25862.752433990888	54.97447634667
6	190118	25867.136342980121	11.475673046203
6	190152	25870.566839668028	89.471673595288
6	190157	25871.138403160976	17.565879816205
6	190223	25878.732976036855	3.39382159947
6	190226	25879.472219617582	50.905174740979
6	190249	25882.153560642443	133.4242095033
6	190497	25916.448004391614	13.797822969717
6	190701	25943.335076519392	11.470791945872
6	190729	25947.946042328804	34.369964517209
6	190757	25951.947315284993	28.649206214023
6	190765	25953.65356363143	21.446003153924
6	190788	25956.973018744691	28.34104325637
6	190806	25959.830903821122	37.716635641368
6	190938	25977.265139873801	14.289660657636
6	191109	25999.320837668339	39.157169705662
6	191228	26015.132332695009	33.238920480082
6	191236	26016.699956778264	79.7905732135
6	191392	26037.524756035969	10.676522368534
6	191410	26040.297093449222	71.95910306235
6	191491	26050.487407095325	6.102931420016
6	191504	26052.316785318651	8.045496258821
6	191583	26064.027101827799	18.27017817373
6	191645	26073.604724515198	1.13429059224
6	191648	26074.5599684233	11.934248139291
6	191767	26092.927492473525	0.825854043478
6	191966	26118.613024455559	16.301415245238
6	191997	26122.593830224609	1.229693458484
6	192007	26124.153053930419	12.738435110359
6	192117	26138.234297382945	11.629035423534
6	192236	26152.801641643628	27.564233329838
6	192244	26154.003937686815	6.869049949856
6	192434	26179.531283632918	39.404945460553
6	192442	26180.541528853375	15.415374637921
6	192511	26189.528692164897	48.699287093907
6	192521	26190.920545335274	38.40762481433
6	192637	26206.320469625034	47.5175008049
6	192652	26209.031227542525	8.544585013681
6	192709	26216.536507290108	64.352992365625
6	192748	26223.002507734317	29.713800413832
6	192820	26231.589816529135	1.907838656112
6	192848	26234.585610837692	6.478326500977
6	193162	26278.144862545718	8.640520886743
6	193214	26284.536544047033	1.259835955405
6	193573	26334.63893513383	77.21874150698
6	193599	26338.629042003179	73.672125300671
6	193616	26340.860590789249	10.726688042663
6	193654	26346.593485923544	79.005895885664
6	193843	26372.805607370069	6.734213979438
6	193881	26377.831617638112	9.15979234745
6	193947	26386.570046192376	16.536076597507
6	194050	26402.431989842016	0.741297085181
6	194595	26475.87562311098	40.6187426979
6	194640	26481.811502631446	32.61370722283
6	194675	26486.75093669581	54.339713367684
6	194737	26495.37667118089	35.836236800078
6	194740	26496.077895610982	60.066401595182
6	194778	26502.516337405068	55.839235847443
6	194816	26507.603259899717	53.983203193326
6	194848	26511.536328347416	37.067067056034
6	194853	26512.383888929586	72.089027391717
6	194886	26516.951809359125	8.612664613924
6	194909	26520.245855921477	16.05575067558
6	194993	26533.26376554311	2.853350472728
6	195159	26555.411734970535	6.233851010156
6	195197	26560.296517883722	19.117551277994
6	195279	26570.282648133271	21.913824746948
6	195297	26573.208198170194	36.351373998736
6	195366	26582.717891014942	17.873289828641
6	195616	26614.984050643228	36.364184737171
6	195677	26623.043012424575	26.910850767994
6	195846	26645.77199306625	30.968632936958
6	195849	26646.661928918278	109.410382472
6	196034	26669.742959305617	5.124597980352
6	196152	26685.293412543618	22.991839863044
6	196181	26689.948562193913	29.175747253738
6	196208	26693.781536746695	1.509715562294
6	196240	26698.014120042994	3.011855182135
6	196293	26704.891881932615	31.656302481131
6	196310	26706.538104478054	1.355066699035
6	196452	26725.545283149249	23.547380441806
6	196556	26738.962760282095	6.673195761556
6	196644	26751.932194178288	12.260970899077
6	196896	26783.01599911169	20.087881749758
6	196933	26787.860149369779	35.37800929307
6	196941	26788.812112340535	6.998848526596
6	196959	26791.74421020273	6.635304804003
6	196972	26794.328022678447	1.408100796403
6	197104	26811.714967356501	14.206831351006
6	197234	26829.948091275358	71.663394006025
6	197270	26835.01816822488	15.492737059571
6	197329	26843.229141563383	4.465527249745
6	197608	26878.367259121893	3.7653992189
6	197656	26885.973508347173	28.819349822713
6	197741	26896.012137128338	21.297394292289
6	197768	26899.050981405302	6.136112256986
6	197843	26909.947222428835	23.618053373791
6	197851	26911.233733246495	34.903144008805
6	197878	26914.931110673836	50.477989396234
6	197918	26920.810433623447	28.860371348867
6	198025	26933.412660676354	8.591513480035
6	198106	26944.46951388877	30.514822392389
6	198145	26949.282315283336	30.700702908793
6	198148	26950.152166943971	25.176673251768
6	198218	26960.677561953264	18.133947930425
6	198233	26962.891351397028	25.672503835762
6	198253	26965.243210107245	66.305297079379
6	198301	26972.117307878396	62.553186011757
6	198469	26993.523651836596	51.572070083664
6	198492	26996.847240676934	48.535686442546
6	198585	27008.738538987392	16.144842303407
6	198659	27017.365579744445	10.473873064514
6	198677	27020.737180284893	15.975400983003
6	198729	27027.776602425863	12.865116869866
6	198752	27031.65002101764	33.438201524268
6	198882	27048.837974982307	72.364693419058
6	199027	27068.07843847961	22.319777618242
6	199040	27070.266277745756	61.536793976773
6	199045	27071.229030189261	51.640094005744
6	199106	27078.439606901646	4.805205608713
6	199136	27082.763949730495	16.398242683441
6	199146	27084.366353244536	174.78532637313
6	199174	27088.413297072582	10.00982826022
6	199225	27095.484214817562	95.525562194496
6	199344	27112.682394992344	61.777630239748
6	199357	27115.154114817798	99.18368685508
6	199376	27117.31235411681	24.848110091997
6	199523	27135.552516391376	11.938363983583
6	199563	27141.400233471407	13.352064594108
6	199600	27145.851242551547	29.417362688999
6	199660	27153.733046229522	147.09622023412
6	199663	27154.298754901917	31.472983097305
6	199676	27156.490667097563	83.254886608444
6	199727	27163.962359645928	47.216814557001
6	199773	27169.596678914281	22.096369418528
6	199808	27175.101731073868	32.833628457378
6	199882	27183.89149807078	17.307807330232
6	200004	27200.149579702421	42.14868031067
6	200027	27203.498641336766	27.218177860056
6	200227	27231.015537400648	7.050930665844
6	200330	27244.944530347746	33.582744628408
6	200442	27258.477796207754	20.038738265086
6	200445	27259.386067617977	1.661099582364
6	200543	27273.452199831526	3.156277673607
6	200651	27286.706208786986	44.767524193114
6	200688	27292.766498884665	18.853807744715
6	200933	27326.141313133916	30.310647376928
6	200970	27331.238974109866	7.893641949597
6	200973	27332.043192009457	4.350192977654
6	201138	27354.032025873444	19.647849954056
6	201161	27357.93297418595	23.435190851428
6	201169	27358.95573916502	13.468261378295
6	201247	27369.794451331178	24.27338718621
6	201298	27374.994438068819	1.654221560731
6	201382	27385.548602492008	4.457603866531
6	201464	27397.135229308038	31.995946808695
6	201529	27406.645556837901	35.721954672958
6	201532	27407.351110205123	42.131003889215
6	201720	27434.162123832317	2.262469631431
6	201723	27434.952581739822	11.318397135375
6	202006	27474.818561319241	15.809319315878
6	202060	27482.939845160699	3.090790694385
6	202068	27484.26449738883	35.613847373873
6	202120	27491.144013761846	3.844031861327
6	202217	27504.411695180019	41.731251763076
6	202325	27518.876672297789	18.538814971993
6	202338	27521.149078112495	25.629911427031
6	202411	27531.905454368496	52.849571060495
6	202550	27549.935376517783	5.331890044926
6	202601	27555.928618648583	12.946613847422
6	202630	27559.98270047105	8.783430590827
6	202673	27566.570208651415	10.595042423613
6	202746	27577.512027201738	23.880208439934
6	202790	27583.887388902139	4.619032815973
6	202805	27586.190437989105	37.268182345486
6	202922	27602.213015785751	16.122718501692
6	202957	27607.133516803181	10.596997045331
6	202981	27610.855688001618	1.939407649803
6	203250	27645.349214709113	17.179977878495
6	203594	27692.102159266572	9.544730661362
6	203659	27701.647967177561	4.221843987521
6	203827	27724.608207379724	76.001902825988
6	203880	27731.821050371346	39.537428875291
6	203898	27734.546324356621	23.484341819126
6	203903	27735.455245136632	4.489245296632
6	204010	27749.465589532744	17.23384756692
6	204118	27766.055831074506	11.174591202556
6	204205	27780.038620904485	1.763418631369
6	204264	27787.073650995155	1.591955272486
6	204374	27802.729531905918	21.593693619496
6	204387	27804.545615419677	12.084390434975
6	204412	27807.370546566533	13.447110244786
6	204458	27812.318848022516	3.403233364712
6	204471	27814.880745305098	8.509059162359
6	204585	27830.370974039214	5.807135222329
6	204652	27840.573477861026	29.069640720538
6	204673	27843.652018577579	66.091970534733
6	204742	27852.192475618861	4.296982875672
6	204826	27862.727802497122	5.340517682672
6	204935	27877.436552060462	17.02922760003
6	205030	27889.717684224967	1.373457810844
6	205075	27896.711962716535	49.406176333868
6	205306	27926.302788377528	4.173358582617
6	205319	27928.625843799043	19.030054764816
6	205477	27950.583326550828	41.483137446247
6	205502	27953.361664080409	61.963819995613
6	205574	27963.104384629868	13.63565721017
6	205615	27969.629126669813	29.148057049637
6	205618	27970.447395606732	51.357737804351
6	205628	27971.633235371692	66.640348614461
6	205631	27972.338422489978	14.447049276897
6	205645	27975.495948101228	71.863775450429
6	205648	27976.012835555358	15.735499262735
6	205861	28002.321146197632	13.229728567964
6	205871	28003.773779414516	65.431827801016
6	206146	28039.57985513626	21.27172283849
6	206223	28049.772022768683	20.525606587844
6	206246	28053.679022777699	63.206663665098
6	206276	28057.969076921664	118.33301455332
6	206279	28058.933766116774	24.940734917947
6	206307	28063.453901957315	25.542782802057
6	206374	28072.060118685163	77.743422837446
6	206409	28076.440101812653	12.592691384834
6	206637	28105.704326027507	26.26527887309
6	206645	28107.439385108758	65.336890698698
6	206658	28109.442273064252	27.868824910464
6	206768	28124.648025642489	86.426208045681
6	206986	28153.301486806771	237.33669793076
6	206993	28154.176525228624	34.73291773666
6	207089	28167.487671614266	222.85155278904
6	207311	28194.496614877475	93.428418247841
6	207382	28205.438704377847	29.534873963274
6	207416	28209.948268986694	215.79195646894
6	207419	28210.783277018569	76.618060716567
6	207427	28212.074225301822	138.29995428411
6	207435	28213.775509122308	114.9379557217
6	207438	28214.300540650371	307.35687472322
6	207458	28216.652993270815	68.226731555247
6	207461	28217.409043700355	146.65833258924
6	207609	28237.667692394287	184.4041152654
6	207670	28245.86559343004	84.873212339585
6	207690	28248.55550494619	32.189159270356
6	207752	28255.599797878053	178.21063205209
6	207770	28258.892011410148	94.824783628466
6	207813	28263.900820114753	25.426660993771
6	207854	28268.684355814858	24.095354961129
6	207961	28282.444700885805	31.523766445452
6	208024	28291.788802573836	52.975315239119
6	208171	28311.671286377363	155.28173534194
6	208246	28322.28561251774	45.991354121692
6	208262	28324.806339352025	285.62583706492
6	208369	28339.138118191627	73.7526874363
6	208429	28347.598224755568	108.13519715055
6	208515	28360.943563581868	5.100680173533
6	208682	28383.139382675947	14.817227417247
6	208708	28387.298241135763	22.332170353496
6	208752	28392.150001372728	1.21533076456
6	208792	28398.050802389583	24.707078256548
6	208831	28402.927121497276	40.456626992797
6	208854	28406.760306452591	14.223634988068
6	208915	28415.129689758274	4.501068743
6	209315	28467.706182717021	5.792082344183
6	209320	28468.156971598232	24.558031728618
6	209470	28489.350090183599	27.948403940437
6	209492	28492.234746061034	24.528948412739
6	209533	28499.023120301498	8.125320782797
6	209575	28504.470772337216	37.527895811439
6	209593	28508.052625587212	28.900385568364
6	209690	28520.776141804136	30.83979944292
6	209710	28523.84856076213	21.344383320798
6	209750	28528.92779302155	14.920326517958
6	209827	28540.097163625299	13.06812271213
6	209840	28541.645170543767	65.651655978709
6	209862	28544.487311766161	4.214062082268
6	209892	28548.214969475664	12.926206094866
6	209920	28552.599881908255	6.962691156735
6	209974	28560.484010028657	28.233201562035
6	210085	28575.171708497642	4.074560471492
6	210361	28614.917366085723	11.822832972312
6	210392	28618.980437441785	3.08010154737
6	210459	28627.082984394636	8.726337767359
6	210680	28653.78783292082	11.607956414281
6	210715	28657.997841283221	15.780839907827
6	210735	28661.036726260938	8.346023893411
6	210849	28674.590691358791	25.70967710166
6	210872	28678.104325629872	53.177433253357
6	210875	28678.616396629399	12.944325061064
6	210993	28693.464452215989	28.970873362657
6	211021	28697.04124126151	43.621826422435
6	211073	28704.643332524698	20.108904507763
6	211129	28711.463400140365	1.028566741928
6	211210	28721.953465900762	9.084322179315
6	211429	28749.618475497008	41.221913328282
6	211462	28754.363099122752	18.668698566761
6	211475	28756.92401488084	39.786864646614
6	211526	28763.310094259965	20.544967156657
6	211529	28763.931985970593	39.915606844608
6	211571	28770.132268935401	12.572503741734
6	211653	28780.740433955573	48.390516745545
6	211798	28798.673668717368	2.836713295739
6	211811	28800.831482282055	9.913953360339
6	211816	28801.508448780009	2.880699889308
6	211824	28803.14602545426	21.036544941842
6	212004	28825.767493128923	2.398667831135
6	212020	28828.394428082981	32.938699436366
6	212076	28835.162318201368	27.051869623359
6	212111	28840.375052339309	23.114471944389
6	212122	28842.622496736706	3.080551516749
6	212222	28856.414040351431	1.214552418337
6	212388	28875.968697405238	21.289421446466
6	212423	28881.653231740236	0.995744410789
6	212491	28891.131657543039	22.495759423577
6	212625	28910.586193223302	42.264460162514
6	212677	28918.224270825418	6.356842985794
6	212722	28924.98851004653	5.107023372035
6	212788	28933.184132463813	6.618942716882
6	212920	28952.738609674574	46.249910260842
6	213021	28967.872097262183	12.509080436284
6	213263	29001.78651729264	13.317346973055
6	213266	29002.498582707538	8.535458736723
6	213400	29020.698989177548	12.93728723872
6	213460	29028.676900505235	12.485816940482
6	213470	29030.056150692103	16.904508618343
6	213478	29031.871246359225	15.121813814249
6	213486	29033.364225932824	6.849496220671
6	213509	29037.546451777227	18.01892050149
6	213841	29082.381246450643	34.884017467972
6	213880	29087.776705897513	83.710146689359
6	213973	29100.7075790627	40.603556621605
6	214131	29120.164016572114	1.128098316449
6	214264	29137.281092270564	2.605517555766
6	214276	29138.892689693587	16.255131111391
6	214287	29141.088662344085	27.551411504833
6	214337	29148.443727417902	27.086645307916
6	214350	29151.155050995114	24.968987001089
6	214413	29161.032969977712	1.063448759967
6	214789	29215.767119705074	0.598198127459
6	214905	29231.055826128089	3.424138679762
6	214989	29240.866966205603	5.543232275647
6	214999	29241.995024212543	3.23797047893
6	215099	29255.575183248658	7.351837265813
6	215173	29266.510493443068	16.077988932607
6	215325	29286.347675706443	2.829755538402
6	215328	29287.125865217714	11.379160409747
6	215348	29289.511342859079	0.862246532258
6	215549	29317.299715332405	15.909876217535
6	215593	29324.061146450646	0.697976232428
6	215677	29336.350923178574	0.818053177769
6	216046	29386.820609534438	5.32984311286
6	216049	29387.60526947109	3.912003046839
6	216144	29399.496298190624	11.27034593929
6	216371	29426.604224876733	25.350894355669
6	216481	29440.055912412002	14.513425577212
6	216505	29442.061633755823	48.676924304616
6	216576	29450.43450049711	21.44253823506
6	216599	29453.706957430762	28.015913742351
6	216662	29462.587821880865	22.519261758377
6	216736	29471.604632256129	1.32453346913
6	216832	29484.176623429447	41.78885068464
6	216942	29499.338463275688	16.857801214294
6	216987	29506.097619737261	12.048021050574
6	217220	29536.737076036814	11.124658512419
6	217410	29561.589064486927	41.212563093851
6	217551	29578.973082157498	3.118573385098
6	217557	29580.386687622073	61.312537934522
6	217599	29585.796708738191	54.743759520715
6	217604	29586.571437931053	28.365361100287
6	217775	29608.005998265082	14.033614520272
6	217778	29608.684726476474	32.858250287058
6	218104	29652.910316109881	19.730902299414
6	218176	29663.423928701637	16.25103098809
6	218227	29671.22113805976	11.107543998267
6	218333	29684.416409514465	74.59206068925
6	218548	29711.380530125033	18.834819052553
6	218616	29720.773504464414	17.834503715411
6	218846	29751.824698703078	39.721606823388
6	218952	29765.001167162222	29.940357706243
6	219008	29772.705205060301	7.104530104148
6	219094	29785.44614308564	21.66577455071
6	219099	29786.221242678855	7.094810046784
6	219137	29792.104808980636	78.333775660985
6	219151	29793.695239921091	91.932543714684
6	219239	29806.170645526043	49.980340538414
6	219282	29811.279952254976	18.826709945564
6	219342	29818.575647708251	93.564141527256
6	219367	29822.058061913671	116.91145588282
6	219392	29826.102265884253	70.092577079428
6	219492	29840.174402325776	7.069975935813
6	219614	29855.888436032169	5.261366030238
6	219631	29858.001910286712	32.08026610852
6	219671	29863.43265945319	19.20746798562
6	219704	29869.100468032471	255.28322430502
6	219769	29878.232085799742	34.838854156116
6	219844	29887.65950467078	141.00972156751
6	219854	29889.220642948281	7.953051178852
6	219884	29893.97872855178	24.737066333267
6	219892	29895.549044419256	34.818069585657
6	220005	29911.422719519622	3.322150905289
6	220087	29922.276768486984	8.655058036936
6	220139	29928.532814986018	3.97962819015
6	220164	29931.758374893844	1.678605254682
6	220295	29950.024602833523	27.126569037681
6	220345	29956.651881722541	6.120592557963
6	220351	29958.112102881906	49.862150452523
6	220415	29966.702031500771	1.173537797996
6	220465	29972.275964726129	1.900079781638
6	220598	29988.221619780728	7.419569976963
6	220613	29989.682685831695	13.550580055429
6	220621	29990.873863524658	87.368202440355
6	220659	29997.243397955962	1.293415775004

