version 2
run First_exit_2-19-20191017-13:43:31-1852
attr configname First_exit_2
attr datetime 20191017-13:43:31
attr experiment First_exit_2
attr inifile omnetpp.ini
attr iterationvars ""
attr iterationvarsf ""
attr measurement ""
attr network ResponseTimeNetwork
attr processid 1852
attr repetition 19
attr replication #19
attr resultdir results
attr runnumber 19
attr seedset 19
param **.Source.interArrivalTime exponential(4s)
param **.jobPriority bernoulli(0.4)
param **.PS.serviceTimeU1 "uniform(0.4s, 1.0s)"
param **.PS.serviceTimeU2 "uniform(1s, 1.2s)"
param **.SS1.serviceTime exponential(0.4s)
param **.SS2.serviceTime exponential(0.8s)
param **.PS.exitProbability bernoulli(0.2)

vector 0 ResponseTimeNetwork.SS1 queueLength:vector ETV
attr interpolationmode sample-hold
attr title "queue length, vector"
vector 1 ResponseTimeNetwork.SS2 queueLength:vector ETV
attr interpolationmode sample-hold
attr title "queue length, vector"
vector 2 ResponseTimeNetwork.QueueU1 queueLength:vector ETV
attr interpolationmode sample-hold
attr title "queue length, vector"
vector 3 ResponseTimeNetwork.QueueU2 queueLength:vector ETV
attr interpolationmode sample-hold
attr title "queue length, vector"
vector 4 ResponseTimeNetwork.sink lifeTimeU2:vector ETV
attr interpolationmode none
attr title "lifetime of arrived jobs U2, vector"
attr unit s
vector 5 ResponseTimeNetwork.sink lifeTime:vector ETV
attr interpolationmode none
attr title "lifetime of arrived jobs, vector"
attr unit s
vector 6 ResponseTimeNetwork.sink lifeTimeU1:vector ETV
attr interpolationmode none
attr title "lifetime of arrived jobs U1, vector"
attr unit s
0	0	0	0
0	937	513.004191554965	1
0	939	513.444300970663	0
0	4892	3184.264140107033	1
0	4896	3184.863851947537	0
0	4905	3186.210641774223	1
0	4906	3186.211007552122	0
0	4912	3186.792634504142	1
0	4916	3187.537678603435	0
0	4920	3188.254127660792	1
0	4921	3188.257758774473	0
0	7495	4750.680939863583	1
0	7496	4750.791382697788	0
0	15402	9685.611820714144	1
0	15409	9686.649168980862	0
1	0	0	0
1	4745	3111.100886559989	1
1	4746	3111.563266851154	0
1	5365	3420.179396448163	1
1	5366	3421.277866779844	0
1	6395	4113.511725158959	1
1	6401	4115.227880129296	0
1	8585	5411.091474996944	1
1	8586	5411.287099205982	0
1	11935	7474.918361953814	1
1	11936	7475.562094221839	0
1	12060	7528.53135830523	1
1	12061	7529.764736128533	0
1	12175	7608.60905148719	1
1	12176	7609.506963613531	0
1	13710	8504.532263351759	1
1	13711	8505.148553935012	0
1	14735	9182.320484754191	1
1	14736	9182.507219295705	0
1	18582	11874.17517229974	1
1	18586	11874.982024074306	0
1	18765	11993.710526210553	1
1	18766	11994.780864165448	0
1	19245	12311.688729106047	1
1	19249	12311.893325141526	0
1	19292	12327.464506381547	1
1	19296	12328.658898535719	0
1	19320	12333.891863951448	1
1	19321	12333.893179216422	0
1	20635	13084.563683152618	1
1	20636	13087.604659349543	0
1	27522	17513.627081860876	1
1	27526	17514.699051495454	0
1	27530	17515.218313351505	1
1	27531	17516.655389837204	0
1	32520	20968.433708822051	1
1	32524	20968.665480975086	0
1	34510	22256.511723138077	1
1	34516	22257.319580804057	0
1	35387	22828.452314899831	1
1	35391	22829.899071842337	0
1	40820	26470.626041450032	1
1	40821	26470.680014801076	0
1	43995	28445.94937527449	1
1	43996	28445.985223006648	0
1	44000	28446.502515361463	1
1	44004	28447.483348857764	0
1	45200	29222.419279446789	1
1	45201	29223.857173676584	0
1	45205	29224.492184530273	1
1	45206	29224.796801813082	0
2	0	0	0
2	35	36.214521317772	1
2	38	36.832044249179	0
2	45	37.63935768729	1
2	46	38.183859960979	0
2	105	101.657506809824	1
2	106	101.853005829669	0
2	120	104.326466312215	1
2	121	104.465422827667	0
2	125	104.560367329903	1
2	126	105.385435632859	0
2	270	175.35913204544	1
2	271	176.191847412519	0
2	355	234.321312752417	1
2	356	234.505506039372	0
2	405	252.830227132439	1
2	406	253.120638235864	0
2	440	267.865446451578	1
2	441	268.14836253849	0
2	450	269.428059858413	1
2	451	269.499568289977	0
2	460	271.214637110317	1
2	461	271.390641350013	0
2	490	283.0098230821	1
2	491	283.289492358952	0
2	500	284.251334665953	1
2	501	285.186031916717	0
2	510	286.161542617926	1
2	511	286.25751744991	0
2	530	294.322411307688	1
2	533	295.102776481285	0
2	630	366.481887118526	1
2	631	367.141038804822	0
2	650	372.183522972273	1
2	651	372.79596677326	0
2	740	414.299577539601	1
2	741	414.880528633584	0
2	775	428.307708174183	1
2	776	428.352362132859	0
2	785	429.214013177576	1
2	786	429.575299562995	0
2	925	511.681897664936	1
2	926	512.026932720164	0
2	930	512.046034032787	1
2	931	512.546066603273	0
2	940	513.444300970663	1
2	941	513.857359236966	0
2	945	513.878644113546	1
2	946	514.370396011251	0
2	1145	642.399067710299	1
2	1146	642.466182818344	0
2	1175	664.359675692441	1
2	1176	664.907656956336	0
2	1245	710.727523528605	1
2	1246	711.389448146895	0
2	1260	718.305452105829	1
2	1261	718.785660712976	0
2	1275	726.061336807503	1
2	1276	726.463111951998	0
2	1380	792.253433258231	1
2	1381	792.900931784884	0
2	1400	802.821057275877	1
2	1401	803.027059290073	0
2	1505	890.954592808658	1
2	1506	891.345264324538	0
2	1575	915.365204264438	1
2	1576	915.590634845446	0
2	1625	938.502125167569	1
2	1626	938.78021969104	0
2	1635	939.767340541299	1
2	1636	940.423213407244	0
2	1670	985.6289285276	1
2	1671	985.776071431905	0
2	1720	1043.532600187218	1
2	1721	1043.798834709303	0
2	1822	1130.61916440993	1
2	1823	1130.677245194004	0
2	1830	1131.110678377206	1
2	1833	1131.752729725935	0
2	1970	1256.159099140699	1
2	1971	1256.172703597864	0
2	2045	1302.128871875199	1
2	2046	1302.174418093096	0
2	2055	1303.153767121649	1
2	2056	1303.646246756026	0
2	2115	1330.835190724786	1
2	2118	1331.581022766999	0
2	2175	1373.603717467642	1
2	2176	1373.853734549268	0
2	2190	1380.451903260997	1
2	2192	1380.484905777425	2
2	2193	1380.990596617556	1
2	2196	1381.41181243894	0
2	2215	1391.296296570612	1
2	2216	1391.665504053921	0
2	2355	1502.993205257002	1
2	2356	1503.502761921421	0
2	2537	1618.06388399822	1
2	2538	1618.576142608079	0
2	2542	1619.172399779602	1
2	2543	1619.565234261689	0
2	2550	1620.248672368405	1
2	2551	1621.001516748065	0
2	2680	1715.190106643609	1
2	2681	1715.732443461149	0
2	2725	1741.658084529429	1
2	2726	1742.139642581374	0
2	2770	1759.822417018311	1
2	2771	1760.12932475984	0
2	2775	1760.292166835719	1
2	2777	1760.437598828096	2
2	2778	1761.002044486458	1
2	2781	1761.916515852435	0
2	2806	1765.278576379326	1
2	2807	1765.440520031736	0
2	2820	1767.549864761452	1
2	2821	1768.167463535243	0
2	2935	1843.141726610187	1
2	2936	1843.696987885236	0
2	2940	1844.039796112039	1
2	2941	1844.160059359948	0
2	2945	1844.390209090252	1
2	2946	1844.915364346606	0
2	2952	1845.394792043329	1
2	2953	1845.718968134326	0
2	2965	1852.457600343682	1
2	2966	1852.527099953096	0
2	3030	1893.444871819005	1
2	3031	1893.787421829072	0
2	3065	1906.919136857796	1
2	3066	1907.43317176441	0
2	3115	1928.194546114158	1
2	3116	1929.045435492095	0
2	3120	1929.420180765725	1
2	3121	1929.478006583086	0
2	3125	1929.581568968083	1
2	3126	1929.9090181246	0
2	3230	2017.22066236328	1
2	3231	2017.342841324529	0
2	3300	2070.299527584769	1
2	3301	2070.55534218176	0
2	3455	2182.787709297256	1
2	3456	2182.95661172523	0
2	3475	2197.071510841919	1
2	3476	2197.828005564782	0
2	3485	2199.014902605668	1
2	3486	2199.212009738164	0
2	3710	2339.095323643729	1
2	3711	2339.590794454921	0
2	3970	2531.976175293458	1
2	3971	2532.92450708304	0
2	4000	2565.095937680611	1
2	4001	2565.168375907649	0
2	4005	2565.413606512435	1
2	4006	2565.837320028941	0
2	4010	2566.042350616587	1
2	4011	2566.303486809877	0
2	4035	2587.246340244934	1
2	4036	2587.758743928159	0
2	4160	2668.106333405831	1
2	4161	2668.437974037898	0
2	4180	2674.180755122081	1
2	4181	2674.576710299311	0
2	4200	2679.72576364855	1
2	4201	2680.099184275584	0
2	4325	2773.216754715269	1
2	4326	2773.541173905637	0
2	4345	2782.065989506409	1
2	4346	2782.132913798933	0
2	4365	2785.886949077122	1
2	4366	2786.463251700559	0
2	4425	2839.740917514452	1
2	4426	2839.94808254827	0
2	4455	2869.534930754783	1
2	4458	2870.024233631034	0
2	4605	2995.911549084903	1
2	4606	2996.611333947444	0
2	4630	3027.893765361706	1
2	4631	3028.184315557361	0
2	4710	3084.647867227088	1
2	4711	3085.010877380483	0
2	4775	3125.025225237919	1
2	4777	3125.157595304133	2
2	4778	3125.533024849036	1
2	4781	3126.094845261603	0
2	4815	3153.757197325261	1
2	4816	3154.082140773563	0
2	4885	3183.032798114902	1
2	4887	3183.037431613699	2
2	4888	3183.511194751567	1
2	4891	3184.264140107033	0
2	4900	3184.867419839508	1
2	4901	3185.579343618047	0
2	4932	3189.807680111626	1
2	4933	3189.987016991018	0
2	5075	3260.681867092157	1
2	5076	3261.01552520277	0
2	5085	3262.381905476245	1
2	5086	3262.957909032831	0
2	5120	3271.802540686373	1
2	5121	3272.243583443562	0
2	5175	3305.80602097757	1
2	5176	3305.865388440993	0
2	5285	3383.635055392593	1
2	5286	3383.925750862383	0
2	5290	3384.328696586432	1
2	5291	3384.334067944665	0
2	5410	3449.427889881121	1
2	5411	3449.901996361237	0
2	5580	3563.644585613117	1
2	5581	3564.13016302633	0
2	5715	3663.756317847485	1
2	5716	3663.922197123059	0
2	5740	3681.284863737345	1
2	5741	3681.466162777729	0
2	5770	3708.479577584341	1
2	5771	3708.896278108171	0
2	6140	3947.373108214841	1
2	6141	3947.518135008262	0
2	6190	3991.798814917747	1
2	6191	3992.307490495573	0
2	6220	4009.213457885319	1
2	6223	4009.725682759026	0
2	6275	4041.596895362996	1
2	6277	4041.76438570507	2
2	6278	4042.304706837172	1
2	6281	4042.909051570511	0
2	6375	4108.431664648705	1
2	6376	4108.900155755919	0
2	6490	4161.666511258112	1
2	6491	4162.054630039431	0
2	6530	4190.508334393654	1
2	6531	4190.575527413842	0
2	6545	4192.196966082913	1
2	6546	4192.666581400411	0
2	6550	4192.70603193591	1
2	6551	4193.409235228851	0
2	6555	4193.82082122117	1
2	6556	4194.098361621817	0
2	6740	4350.960548932601	1
2	6741	4351.59796836871	0
2	6760	4360.158800982427	1
2	6761	4360.66654608272	0
2	6815	4400.010713684258	1
2	6816	4400.190266984671	0
2	6825	4401.487866984805	1
2	6828	4402.030051898532	0
2	6835	4402.585024471167	1
2	6836	4403.45045242798	0
2	6870	4430.007144729654	1
2	6871	4430.364857038101	0
2	6877	4430.518681934969	1
2	6880	4431.262791732503	0
2	7130	4568.083098731975	1
2	7131	4568.671161110294	0
2	7155	4574.12155590343	1
2	7156	4574.324128445783	0
2	7167	4575.585438173333	1
2	7168	4575.663951123213	0
2	7185	4578.760623174223	1
2	7188	4579.043056061615	0
2	7195	4580.805269309186	1
2	7196	4580.914080593858	0
2	7250	4615.355039280301	1
2	7251	4616.229909457779	0
2	7345	4662.581465888414	1
2	7346	4663.066716069742	0
2	7405	4715.064006535552	1
2	7406	4715.263258550211	0
2	7410	4716.024843831212	1
2	7413	4716.120158683497	0
2	7427	4718.334151383815	1
2	7428	4718.800729111617	0
2	7485	4749.121830882811	1
2	7487	4749.193540124096	2
2	7488	4749.233400877992	1
2	7491	4750.195144231299	0
2	7500	4750.928771864786	1
2	7501	4751.260627764095	0
2	7515	4753.607837276323	1
2	7518	4754.122663108863	0
2	7525	4754.94354672874	1
2	7526	4755.637712024383	0
2	7580	4789.866992933568	1
2	7581	4790.072371369363	0
2	7720	4920.812445368564	1
2	7721	4921.148682576855	0
2	7850	5035.026001988161	1
2	7851	5035.650505391115	0
2	7925	5083.624488895192	1
2	7926	5083.702504726594	0
2	7955	5094.275613578483	1
2	7956	5094.782805453455	0
2	8065	5167.562060699281	1
2	8066	5167.847338586517	0
2	8105	5178.106902312293	1
2	8106	5178.948339724787	0
2	8110	5178.951708117537	1
2	8111	5179.912805996616	0
2	8115	5180.044002518069	1
2	8116	5180.68504998187	0
2	8120	5181.269990213814	1
2	8121	5181.374415666996	0
2	8135	5194.155418332082	1
2	8136	5194.327033099876	0
2	8215	5233.193705100631	1
2	8216	5234.097511227179	0
2	8230	5236.7205467295	1
2	8231	5237.536040080447	0
2	8235	5237.671016473785	1
2	8236	5238.202407457182	0
2	8320	5277.34157112994	1
2	8321	5277.668377134738	0
2	8330	5279.877517828709	1
2	8331	5279.904938695069	0
2	8390	5322.803405191583	1
2	8391	5323.164899766717	0
2	8395	5323.217387390155	1
2	8399	5323.423204711433	2
2	8400	5323.828697970269	1
2	8403	5324.552921442866	0
2	8407	5324.800794915536	1
2	8408	5324.962712430155	0
2	8437	5333.248620717045	1
2	8438	5333.719395542111	0
2	8505	5374.602942317974	1
2	8506	5374.690956843954	0
2	8515	5375.433920335181	1
2	8516	5376.167579355773	0
2	8670	5447.120555202176	1
2	8671	5447.584389319938	0
2	8685	5449.234450140882	1
2	8686	5449.800521248916	0
2	8690	5450.103882945393	1
2	8692	5450.141905470956	2
2	8693	5450.66659957302	1
2	8696	5451.502012558386	0
2	8710	5456.082864430786	1
2	8711	5456.8713468401	0
2	8720	5457.774469606039	1
2	8721	5458.209241645426	0
2	8815	5504.895264076572	1
2	8816	5505.660236273347	0
2	8880	5544.291319417198	1
2	8881	5544.965620688185	0
2	8930	5575.150757101959	1
2	8931	5575.567355327718	0
2	8960	5591.910019511503	1
2	8961	5592.370148182361	0
2	9110	5706.862297205619	1
2	9111	5707.388113672216	0
2	9115	5707.690077304228	1
2	9116	5707.921883512311	0
2	9150	5730.196162140166	1
2	9151	5730.378533242477	0
2	9490	5983.005694362071	1
2	9491	5983.648772928263	0
2	9575	6027.614470437872	1
2	9576	6027.734469750377	0
2	9640	6065.033110596375	1
2	9641	6065.429579392267	0
2	9745	6131.547958576098	1
2	9746	6131.83114799374	0
2	9935	6233.082925143215	1
2	9936	6233.095959527619	0
2	9970	6250.381296009702	1
2	9973	6251.069983744423	0
2	9982	6251.979521226247	1
2	9983	6252.68886870573	0
2	10085	6313.515038903617	1
2	10086	6313.73783050557	0
2	10125	6341.677212002021	1
2	10126	6341.944298069567	0
2	10175	6358.363682594807	1
2	10178	6359.060275038075	0
2	10202	6362.75711562512	1
2	10203	6363.358632427595	0
2	10220	6369.156545677568	1
2	10223	6369.518152835309	0
2	10255	6388.367878443256	1
2	10256	6389.142968382529	0
2	10340	6452.305670736977	1
2	10341	6452.630378597962	0
2	10375	6463.605813164398	1
2	10376	6464.187416120077	0
2	10400	6471.81121609614	1
2	10403	6472.751171495618	0
2	10420	6483.874013601073	1
2	10421	6484.293311326477	0
2	10445	6490.576759072169	1
2	10446	6491.155879382517	0
2	10457	6492.374919253055	1
2	10458	6492.465790434096	0
2	10485	6508.486398912327	1
2	10486	6508.828781880298	0
2	10495	6522.608659007907	1
2	10496	6523.139642722589	0
2	10530	6554.301031406269	1
2	10531	6554.704717648147	0
2	10555	6564.501683344016	1
2	10556	6565.016838302014	0
2	10565	6565.820541229247	1
2	10566	6566.472386643819	0
2	10575	6567.317176345318	1
2	10576	6567.758992011746	0
2	10610	6593.558066798536	1
2	10612	6594.072925123441	2
2	10613	6594.172440089823	1
2	10617	6594.334255855121	2
2	10618	6594.57533104399	1
2	10621	6595.181715701639	0
2	10630	6598.602834743808	1
2	10631	6598.677415488151	0
2	10720	6645.670159190827	1
2	10721	6645.97065754618	0
2	10820	6718.919908909609	1
2	10821	6719.140217081428	0
2	10830	6720.419988297817	1
2	10833	6720.664891837414	0
2	10860	6744.553167351733	1
2	10861	6745.429944792692	0
2	10885	6755.485530139912	1
2	10886	6755.515722974161	0
2	10970	6818.588128013907	1
2	10971	6818.903654884774	0
2	10975	6819.361422593676	1
2	10976	6819.801569039741	0
2	11045	6857.015753562386	1
2	11046	6857.499443608027	0
2	11145	6910.412352610562	1
2	11146	6910.724804813089	0
2	11250	6984.641509286087	1
2	11251	6985.114255063191	0
2	11320	7038.520854568576	1
2	11321	7038.688034815972	0
2	11325	7038.710663726591	1
2	11326	7039.530266120264	0
2	11565	7243.658217916828	1
2	11566	7244.052485680958	0
2	11590	7258.37462785112	1
2	11591	7259.148387977485	0
2	11615	7278.083858998339	1
2	11616	7278.125017531992	0
2	11715	7348.419627271518	1
2	11716	7348.475072989851	0
2	11725	7349.43127683507	1
2	11726	7349.642289771657	0
2	11865	7428.715472984109	1
2	11866	7429.329943982272	0
2	11905	7450.507178392855	1
2	11906	7451.197254440981	0
2	12040	7525.297794819964	1
2	12041	7525.510724539175	0
2	12090	7549.91173104142	1
2	12091	7549.983171402936	0
2	12105	7552.84811147727	1
2	12106	7552.968841004366	0
2	12220	7617.808902931606	1
2	12221	7618.007965285154	0
2	12265	7652.882700778905	1
2	12266	7653.633376202688	0
2	12275	7663.077614629687	1
2	12276	7663.505521431897	0
2	12320	7686.777406165584	1
2	12321	7686.925586975466	0
2	12390	7729.042740018969	1
2	12391	7729.256126344748	0
2	12445	7762.170789143587	1
2	12446	7762.735649702357	0
2	12505	7799.637613297711	1
2	12506	7799.905069830254	0
2	12530	7808.050696039769	1
2	12531	7808.23076009106	0
2	12540	7812.408426592667	1
2	12541	7813.027794018298	0
2	12565	7818.864746219524	1
2	12566	7819.340345820449	0
2	12575	7820.064646585163	1
2	12576	7820.972230728296	0
2	12620	7842.343063205102	1
2	12623	7842.512396583651	0
2	12695	7884.340307992386	1
2	12698	7884.703916362467	0
2	12705	7885.405153260776	1
2	12706	7885.914593106302	0
2	12745	7905.624036527579	1
2	12746	7905.977414174343	0
2	12765	7911.491212970659	1
2	12766	7912.154109093543	0
2	12770	7912.310685390026	1
2	12771	7912.909421663029	0
2	12825	7952.045504765978	1
2	12826	7952.426366384401	0
2	12835	7953.178772124311	1
2	12836	7953.647754128863	0
2	12855	7963.632240877795	1
2	12856	7964.14196472972	0
2	12870	7966.026916543797	1
2	12871	7966.104918402289	0
2	12882	7967.064891389156	1
2	12883	7967.653700699373	0
2	12910	7984.884333664234	1
2	12911	7985.278939261171	0
2	12990	8038.707015774135	1
2	12991	8038.7179488852	0
2	13005	8042.042553648621	1
2	13006	8042.513742516414	0
2	13065	8079.467325857154	1
2	13066	8079.621282234217	0
2	13130	8146.973246291564	1
2	13131	8147.18932272397	0
2	13255	8243.526986902465	1
2	13256	8243.55201940002	0
2	13290	8256.277191262576	1
2	13291	8256.422275407462	0
2	13305	8266.413880852246	1
2	13306	8266.935220877287	0
2	13315	8270.648940618481	1
2	13316	8270.744953811023	0
2	13490	8386.353940207688	1
2	13491	8386.911855502742	0
2	13640	8469.976810713195	1
2	13641	8470.403676442258	0
2	13650	8472.45303354341	1
2	13651	8473.064150304094	0
2	13665	8484.338615932925	1
2	13666	8485.182361800999	0
2	13855	8589.39947020232	1
2	13856	8589.748629857748	0
2	14000	8676.59843376724	1
2	14001	8676.92375497732	0
2	14040	8697.497524887827	1
2	14041	8698.446614754518	0
2	14075	8731.143505975806	1
2	14076	8731.806480586418	0
2	14155	8775.666076289165	1
2	14156	8776.29902572524	0
2	14270	8854.963174771948	1
2	14271	8855.01125799911	0
2	14280	8856.351293655467	1
2	14281	8856.466094447796	0
2	14330	8918.64953574821	1
2	14331	8919.015628249023	0
2	14335	8919.323733947217	1
2	14336	8919.908698036253	0
2	14350	8941.420890082042	1
2	14351	8941.720603611281	0
2	14390	8960.185957361696	1
2	14391	8960.325684658253	0
2	14425	8980.584092042638	1
2	14426	8980.61735469628	0
2	14455	9002.06178853288	1
2	14456	9002.469486014581	0
2	14490	9023.679973340154	1
2	14491	9024.167498132372	0
2	14715	9179.202276400758	1
2	14718	9179.570588943016	0
2	14785	9219.637447594599	1
2	14786	9220.246402762864	0
2	14840	9251.993690733203	1
2	14841	9252.274398701111	0
2	14915	9296.1302924836	1
2	14916	9296.472288963933	0
2	15115	9443.273119260501	1
2	15116	9443.74556794269	0
2	15220	9515.126134685871	1
2	15221	9515.455114668226	0
2	15245	9523.446970933822	1
2	15246	9523.648333099471	0
2	15395	9684.357646089155	1
2	15398	9684.931620002413	0
2	15410	9686.649168980862	1
2	15412	9687.040299034536	2
2	15413	9687.190430634178	1
2	15416	9687.690637337684	0
2	15430	9693.813504910053	1
2	15431	9694.472404923118	0
2	15500	9740.4927203731	1
2	15501	9740.599756555844	0
2	15605	9873.565447704589	1
2	15606	9873.995939892429	0
2	15695	9918.034275878787	1
2	15696	9918.361387357218	0
2	15750	9939.876521384653	1
2	15751	9940.619160672784	0
2	15785	9946.818425708309	1
2	15786	9946.900668397872	0
2	15797	9948.259239006703	1
2	15798	9948.360241611814	0
2	15890	10012.312419020654	1
2	15891	10012.459270936176	0
2	15895	10013.043219617233	1
2	15896	10013.044903995767	0
2	16120	10212.521851062525	1
2	16121	10213.309759551905	0
2	16125	10213.704414976443	1
2	16126	10214.21674368774	0
2	16135	10214.861618598789	1
2	16136	10215.704930797838	0
2	16160	10229.035123396302	1
2	16161	10229.063937938759	0
2	16225	10287.029707609218	1
2	16228	10287.790694884896	0
2	16295	10336.956397997988	1
2	16296	10336.962615701834	0
2	16320	10357.253918984368	1
2	16321	10357.62338393899	0
2	16325	10357.907969582617	1
2	16327	10358.112148392499	2
2	16328	10358.366745530165	1
2	16331	10358.770023211933	0
2	16340	10360.999202096784	1
2	16341	10361.429378203571	0
2	16345	10362.09569374774	1
2	16346	10362.278596741975	0
2	16480	10451.519175125634	1
2	16481	10452.392031210268	0
2	16545	10473.882543160321	1
2	16546	10474.42435984472	0
2	16590	10511.80566966239	1
2	16592	10512.086617822167	2
2	16593	10512.250799980491	1
2	16598	10512.756726986879	0
2	16602	10512.901743387321	1
2	16603	10513.718815342813	0
2	16705	10602.142038823177	1
2	16708	10602.814888110705	0
2	16755	10640.785374676853	1
2	16756	10640.823871290042	0
2	16785	10648.474902150001	1
2	16786	10649.277423644967	0
2	16805	10655.49985723422	1
2	16806	10655.561722696388	0
2	16900	10734.989506598226	1
2	16901	10734.998417003362	0
2	17000	10793.953529498089	1
2	17001	10794.474429354251	0
2	17080	10848.746983844238	1
2	17081	10849.348599747702	0
2	17115	10873.080418610092	1
2	17116	10873.296883664061	0
2	17155	10905.91593344993	1
2	17156	10906.0838772238	0
2	17185	10927.082565224399	1
2	17186	10927.655919315465	0
2	17245	10952.152327899715	1
2	17246	10953.010038070675	0
2	17305	10986.752283073228	1
2	17306	10987.215676547959	0
2	17310	10988.002161387792	1
2	17311	10988.018980801384	0
2	17445	11071.033311538298	1
2	17446	11071.363068875405	0
2	17450	11071.387666918158	1
2	17451	11072.31673852351	0
2	17625	11187.427232674928	1
2	17626	11187.809380445162	0
2	17665	11204.434437325145	1
2	17666	11205.010305873189	0
2	17707	11222.110031619747	1
2	17708	11222.129519375439	0
2	17735	11253.99999499374	1
2	17738	11254.321376154694	0
2	17747	11255.159750415819	1
2	17748	11255.822348004563	0
2	17810	11299.194240413872	1
2	17811	11299.407282551343	0
2	17950	11416.704607498543	1
2	17951	11417.113381062435	0
2	17985	11440.338194149658	1
2	17986	11440.569873213712	0
2	18015	11468.377633203272	1
2	18016	11468.552868288843	0
2	18092	11500.238860413629	1
2	18093	11500.552617455491	0
2	18220	11611.874556538867	1
2	18221	11612.179835608639	0
2	18365	11700.249299440627	1
2	18366	11701.117591130329	0
2	18447	11762.066840199227	1
2	18450	11762.725345470814	0
2	18580	11873.751878365149	1
2	18581	11874.17517229974	0
2	18600	11876.854543920655	1
2	18601	11876.995221008087	0
2	18885	12078.064330745158	1
2	18886	12078.248826404556	0
2	19045	12216.760660423695	1
2	19046	12216.84412631769	0
2	19060	12220.657059883487	1
2	19061	12220.77348630542	0
2	19075	12223.851167808508	1
2	19076	12224.574826458511	0
2	19160	12258.932892859854	1
2	19161	12259.59950299407	0
2	19165	12260.136052347286	1
2	19166	12260.586033365499	0
2	19170	12261.284044478169	1
2	19171	12261.456693781582	0
2	19395	12382.909244748129	1
2	19396	12383.778463877329	0
2	19425	12392.181988362235	1
2	19426	12392.471512589483	0
2	19475	12416.962151772982	1
2	19476	12417.003601184023	0
2	19480	12417.142791770003	1
2	19481	12417.973473422976	0
2	19500	12427.035286803435	1
2	19501	12427.520381230279	0
2	19680	12536.533675798972	1
2	19681	12536.721057138449	0
2	19710	12554.580439344072	1
2	19711	12555.201243006739	0
2	19730	12564.743488502142	1
2	19731	12565.082969081023	0
2	19825	12652.289200031796	1
2	19826	12652.647879888502	0
2	19830	12653.117367200446	1
2	19831	12653.35558490787	0
2	19915	12693.366282004193	1
2	19918	12694.164869230197	0
2	20000	12741.616917824352	1
2	20001	12741.797670136843	0
2	20055	12771.400489437456	1
2	20056	12771.55099643606	0
2	20090	12788.990520004585	1
2	20091	12789.028026914316	0
2	20145	12821.909850758921	1
2	20146	12821.950108969889	0
2	20235	12884.69023589607	1
2	20236	12885.184741512513	0
2	20240	12885.572149283307	1
2	20241	12885.776171141923	0
2	20250	12889.560160545264	1
2	20251	12889.630335038715	0
2	20320	12918.94253034281	1
2	20321	12919.34912208467	0
2	20329	12919.668431744704	1
2	20330	12919.80076745515	0
2	20360	12926.225109946624	1
2	20361	12926.707324495602	0
2	20510	13015.274544629558	1
2	20511	13015.60920799548	0
2	20530	13019.471220329011	1
2	20531	13019.536228108451	0
2	20554	13034.134890571597	1
2	20555	13034.804890709264	0
2	20559	13035.35212028697	1
2	20560	13035.533922045711	0
2	20567	13036.194337494454	1
2	20569	13036.258531930013	2
2	20570	13036.922388207899	1
2	20575	13037.740252628443	0
2	20640	13087.631658890911	1
2	20643	13088.376359612753	0
2	20670	13107.390093192728	1
2	20671	13108.052926808487	0
2	20745	13171.923189198513	1
2	20746	13172.029226474898	0
2	20775	13209.274444931258	1
2	20776	13209.731333854825	0
2	20784	13210.446322616905	1
2	20785	13210.634234305222	0
2	20820	13215.669960833003	1
2	20821	13216.095798887924	0
2	20830	13217.18977486012	1
2	20831	13217.584790082059	0
2	20930	13282.992090448346	1
2	20931	13283.426805921614	0
2	21075	13393.320076204627	1
2	21076	13393.769280720935	0
2	21120	13410.528900198012	1
2	21121	13411.026526498679	0
2	21175	13447.999543849218	1
2	21176	13448.123280148547	0
2	21300	13528.839947136503	1
2	21301	13528.985634860596	0
2	21380	13556.307687311263	1
2	21381	13556.785565224027	0
2	21410	13593.862851037099	1
2	21412	13593.863897821374	2
2	21413	13594.374208349274	1
2	21417	13594.416807266911	2
2	21420	13595.241405091393	1
2	21424	13595.567260854537	2
2	21425	13595.656895013019	1
2	21429	13595.728710437471	2
2	21430	13596.187483101669	1
2	21433	13597.080350411455	0
2	21540	13646.50232006505	1
2	21541	13646.781008832207	0
2	21580	13670.051409877477	1
2	21581	13670.77396976925	0
2	21680	13759.593034264748	1
2	21681	13760.155713508889	0
2	21757	13822.8023140106	1
2	21760	13822.876206209558	0
2	21767	13823.666568268603	1
2	21768	13824.341190623446	0
2	21805	13838.170581169127	1
2	21806	13838.916018042824	0
2	21820	13841.027426812691	1
2	21821	13841.660580210045	0
2	21835	13847.815496841679	1
2	21836	13848.314964695393	0
2	21840	13848.494424606587	1
2	21841	13849.304705541233	0
2	21845	13849.871389381958	1
2	21846	13850.217171461299	0
2	21895	13865.47441168723	1
2	21896	13865.925926742298	0
2	21912	13879.92299647107	1
2	21913	13880.481708054296	0
2	21995	13937.062534629958	1
2	21996	13937.616799744288	0
2	22175	14052.202832361977	1
2	22176	14052.648300137436	0
2	22252	14088.012889931918	1
2	22253	14088.132948232838	0
2	22262	14089.072123579103	1
2	22265	14089.567804566049	0
2	22285	14093.14666585136	1
2	22286	14093.536750764308	0
2	22375	14172.163362616293	1
2	22376	14172.328141290323	0
2	22405	14187.374979636146	1
2	22406	14187.897747363527	0
2	22650	14370.165103363078	1
2	22651	14370.521976073169	0
2	22655	14370.619917293618	1
2	22656	14370.930353750325	0
2	22665	14377.786106062338	1
2	22666	14378.312510155719	0
2	22845	14547.623128159755	1
2	22846	14548.046498709117	0
2	22860	14550.313026511765	1
2	22863	14550.54264365943	0
2	22980	14609.216396121644	1
2	22982	14609.527715314279	2
2	22983	14609.635079431443	1
2	22986	14610.46882936382	0
2	23015	14624.808215353245	1
2	23016	14625.052983360446	0
2	23080	14664.439280082331	1
2	23081	14664.774881191648	0
2	23105	14668.553138552044	1
2	23106	14668.553895361448	0
2	23140	14688.607755258597	1
2	23141	14689.568535145257	0
2	23150	14707.320761100176	1
2	23151	14707.967335194927	0
2	23175	14733.411245678514	1
2	23176	14734.074399335864	0
2	23250	14778.501193531822	1
2	23251	14778.807095226312	0
2	23295	14817.085274918082	1
2	23297	14817.089913855584	2
2	23298	14817.134867969885	1
2	23301	14817.543734237676	0
2	23345	14845.084618683431	1
2	23346	14845.203139691234	0
2	23390	14882.162572774206	1
2	23391	14882.502583096148	0
2	23402	14883.621185198142	1
2	23403	14883.663695905329	0
2	23410	14885.032613854758	1
2	23411	14885.271683675022	0
2	23435	14903.337855989683	1
2	23436	14903.977459110954	0
2	23440	14904.0158966947	1
2	23441	14904.498253557907	0
2	23470	14923.385315156404	1
2	23471	14923.779621951751	0
2	23500	14935.739192249183	1
2	23501	14936.239547573547	0
2	23552	14963.123188138763	1
2	23555	14963.271827447476	0
2	23650	15007.485061896953	1
2	23651	15007.686331891684	0
2	23685	15041.493635365358	1
2	23686	15041.680863446815	0
2	23725	15061.461715084593	1
2	23726	15062.056000855704	0
2	23735	15063.170137052588	1
2	23736	15063.772190996583	0
2	23865	15175.299975496207	1
2	23866	15175.603286849342	0
2	23885	15196.076238007034	1
2	23886	15196.090427166053	0
2	23890	15196.564464576065	1
2	23891	15196.612189555882	0
2	23925	15219.640828456335	1
2	23926	15220.191871187802	0
2	23950	15238.621298066072	1
2	23951	15239.538905468205	0
2	23970	15255.473447261921	1
2	23971	15255.929242786	0
2	24010	15269.025795054387	1
2	24011	15269.620689911302	0
2	24185	15394.303342453983	1
2	24186	15395.032704566249	0
2	24195	15401.005830055365	1
2	24196	15401.311961781278	0
2	24200	15401.469280831262	1
2	24201	15401.8913398026	0
2	24205	15402.793118184897	1
2	24206	15402.811164433367	0
2	24215	15405.207596442084	1
2	24216	15405.519568816858	0
2	24230	15420.273376083485	1
2	24231	15420.717028908397	0
2	24255	15424.805616604349	1
2	24256	15425.540157526967	0
2	24265	15427.181708757066	1
2	24266	15427.396870971608	0
2	24280	15430.170152096259	1
2	24281	15430.36303143847	0
2	24485	15558.009340696355	1
2	24488	15558.821368954631	0
2	24500	15560.117181722139	1
2	24501	15560.429614103886	0
2	24530	15586.203469218222	1
2	24531	15586.649424512539	0
2	24580	15620.583940663321	1
2	24581	15620.913898628429	0
2	24595	15628.708612750964	1
2	24596	15629.018355032033	0
2	24640	15673.225045539004	1
2	24641	15673.514226303947	0
2	24780	15784.469548949253	1
2	24781	15784.680339591663	0
2	24980	15878.819500061291	1
2	24981	15879.038439245072	0
2	25005	15887.000356347951	1
2	25006	15887.175870797432	0
2	25045	15911.207564284305	1
2	25046	15911.587140275692	0
2	25050	15911.884883945326	1
2	25051	15912.561645000303	0
2	25110	15964.483112352859	1
2	25111	15964.73924299242	0
2	25130	15973.770172214697	1
2	25131	15974.02105044648	0
2	25170	15987.646456622855	1
2	25171	15987.798832992233	0
2	25180	15994.072597787471	1
2	25181	15994.172438282588	0
2	25212	16025.314650223431	1
2	25213	16025.347898079414	0
2	25340	16130.258689287562	1
2	25341	16130.603585977715	0
2	25460	16196.381954608821	1
2	25461	16197.051960788794	0
2	25465	16197.684651313244	1
2	25466	16197.684690726023	0
2	25525	16252.972137272462	1
2	25526	16253.23628347913	0
2	25565	16273.170504191662	1
2	25566	16273.22839771129	0
2	25705	16370.704845029987	1
2	25706	16371.041250720963	0
2	26060	16595.002655186516	1
2	26061	16595.348512522644	0
2	26110	16661.999045707632	1
2	26111	16662.152911129064	0
2	26130	16667.412744610478	1
2	26133	16668.173026883477	0
2	26145	16670.219093890708	1
2	26146	16670.273210388378	0
2	26165	16681.029606599767	1
2	26166	16681.544366455311	0
2	26235	16711.041546550757	1
2	26236	16711.078675241757	0
2	26265	16724.357070705791	1
2	26266	16724.719138916462	0
2	26285	16740.155380426744	1
2	26286	16740.679774354758	0
2	26400	16803.606589265821	1
2	26401	16803.838268550258	0
2	26530	16939.370329877176	1
2	26531	16940.105320440818	0
2	26620	17003.495388841517	1
2	26621	17003.622428527932	0
2	26655	17018.272953010117	1
2	26656	17018.477327807603	0
2	26685	17039.514155878185	1
2	26686	17039.585347537047	0
2	26700	17042.101571364604	1
2	26701	17042.709923951099	0
2	26705	17043.189907175789	1
2	26706	17043.236117270593	0
2	26740	17064.467980797422	1
2	26741	17065.023443393404	0
2	26745	17065.438746869677	1
2	26748	17065.945068393968	0
2	26762	17069.44028130715	1
2	26764	17069.984231097774	2
2	26765	17070.009508707675	1
2	26770	17070.449706738789	0
2	26779	17071.214626041202	1
2	26780	17072.067411344008	0
2	26810	17084.591473345506	1
2	26811	17084.642244337256	0
2	27175	17338.442030210622	1
2	27176	17338.710308604549	0
2	27185	17344.525499373769	1
2	27186	17344.564839817325	0
2	27275	17401.416794603116	1
2	27276	17401.676486623045	0
2	27300	17411.444107583356	1
2	27301	17411.472108030228	0
2	27335	17419.827190483216	1
2	27336	17420.138122987341	0
2	27380	17452.435442010592	1
2	27381	17453.072967521094	0
2	27465	17505.044340903379	1
2	27466	17505.706447575355	0
2	27494	17509.151662167677	1
2	27495	17509.303778888141	0
2	27520	17513.285692711964	1
2	27521	17513.627081860876	0
2	27660	17598.350502735228	1
2	27661	17598.639265229141	0
2	27835	17722.135924647429	1
2	27838	17722.657528918989	0
2	27865	17732.492655765897	1
2	27866	17732.99921324067	0
2	27900	17750.928163714702	1
2	27903	17751.328364838536	0
2	28042	17834.894275514127	1
2	28043	17835.283994038895	0
2	28085	17879.142547279695	1
2	28086	17880.06236373394	0
2	28180	17970.068779563431	1
2	28181	17970.515230571536	0
2	28290	18029.639664136922	1
2	28291	18029.774048038301	0
2	28305	18036.164264810329	1
2	28306	18036.98570572752	0
2	28335	18047.053018479947	1
2	28338	18047.609220243222	0
2	28365	18052.324542716506	1
2	28366	18052.500047755918	0
2	28475	18116.367086412972	1
2	28476	18117.114555343022	0
2	28630	18268.835216259747	1
2	28631	18269.296478252026	0
2	28695	18311.305359716635	1
2	28696	18311.626125838928	0
2	28737	18327.187504413405	1
2	28738	18327.294368249074	0
2	28747	18328.095740054282	1
2	28748	18328.440810776258	0
2	28815	18384.893082407061	1
2	28816	18385.127784619716	0
2	28850	18416.630850099524	1
2	28851	18417.218657713669	0
2	28945	18519.882084830711	1
2	28946	18520.086994731783	0
2	28995	18562.925267369969	1
2	28996	18563.646513564019	0
2	29125	18674.080406706117	1
2	29126	18674.675685436505	0
2	29180	18696.604774635694	1
2	29183	18696.708123412987	0
2	29250	18744.478821302281	1
2	29251	18744.576526195187	0
2	29312	18787.151898769864	1
2	29313	18787.327979653024	0
2	29530	18933.48394246951	1
2	29533	18933.957882980833	0
2	29542	18934.513033742394	1
2	29543	18935.110703810974	0
2	29547	18935.284890848897	1
2	29548	18935.755821355217	0
2	29715	19063.791145489635	1
2	29716	19063.801958393222	0
2	29750	19081.942553970172	1
2	29751	19082.32894492904	0
2	29850	19147.917301876848	1
2	29851	19148.834043357867	0
2	29970	19237.99422014542	1
2	29971	19238.088833892956	0
2	30045	19295.403393998876	1
2	30046	19296.032978468208	0
2	30055	19300.788714970474	1
2	30056	19301.43326608754	0
2	30185	19400.96637367602	1
2	30186	19401.006386387277	0
2	30310	19480.384500323027	1
2	30311	19480.594848327304	0
2	30315	19480.796904437453	1
2	30316	19481.195691268437	0
2	30365	19495.315767812381	1
2	30366	19495.412036669129	0
2	30370	19495.575952329814	1
2	30371	19496.284803875457	0
2	30435	19541.011192531389	1
2	30436	19541.601002797997	0
2	30675	19696.654267606922	1
2	30676	19697.277247770845	0
2	30870	19857.095410661386	1
2	30871	19857.269010049106	0
2	30910	19878.651970368061	1
2	30911	19879.150007133947	0
2	31105	20018.087901473979	1
2	31106	20018.711452929738	0
2	31155	20060.062574811774	1
2	31156	20060.12570279809	0
2	31170	20068.900809156394	1
2	31171	20068.930140884137	0
2	31235	20107.348188408409	1
2	31236	20107.351743897835	0
2	31265	20117.842380717064	1
2	31266	20118.364782378277	0
2	31275	20119.635750538241	1
2	31276	20119.994395775548	0
2	31325	20152.921699905172	1
2	31326	20153.183573677008	0
2	31360	20182.344346622731	1
2	31361	20182.724353481193	0
2	31380	20188.745545226175	1
2	31381	20188.781357352042	0
2	31460	20246.753757609197	1
2	31461	20246.861693278439	0
2	31482	20253.480245015857	1
2	31483	20253.848328234782	0
2	31605	20341.238913480573	1
2	31606	20341.553537691153	0
2	31735	20415.51694182222	1
2	31736	20415.533092646453	0
2	31760	20426.959533857755	1
2	31761	20427.095873658379	0
2	31790	20457.89501318912	1
2	31791	20458.121972463223	0
2	31840	20486.497166646338	1
2	31841	20487.050658991114	0
2	31875	20492.065985381069	1
2	31879	20492.427860593403	2
2	31881	20492.612837871918	3
2	31882	20492.738245111773	2
2	31885	20493.140615067514	1
2	31888	20494.025753824622	0
2	31920	20502.88185082676	1
2	31923	20503.358639752825	0
2	32050	20622.878326411245	1
2	32051	20623.560688325039	0
2	32245	20780.848923016526	1
2	32246	20781.590338702226	0
2	32255	20796.458125279273	1
2	32256	20796.636982371446	0
2	32332	20833.372825793351	1
2	32333	20833.773182635226	0
2	32385	20855.942295112594	1
2	32386	20856.490862874767	0
2	32510	20966.960989493306	1
2	32511	20967.338938785413	0
2	32660	21089.785641085744	1
2	32661	21089.953628826562	0
2	32670	21090.701104643175	1
2	32673	21091.337740376314	0
2	32710	21114.062482324641	1
2	32712	21114.513162478857	2
2	32713	21114.641685314721	1
2	32716	21115.173387892509	0
2	32790	21192.892750768327	1
2	32791	21193.657158518405	0
2	32985	21330.811071662815	1
2	32986	21331.013981797543	0
2	33020	21340.370805015451	1
2	33021	21340.705407400689	0
2	33030	21341.614625821847	1
2	33031	21342.460079418429	0
2	33095	21392.004003796539	1
2	33096	21392.397395067702	0
2	33180	21428.889684553462	1
2	33181	21429.267113847379	0
2	33230	21475.66463523272	1
2	33231	21476.031921480551	0
2	33250	21483.446045701194	1
2	33251	21483.678376477626	0
2	33380	21581.868980425886	1
2	33381	21582.406050492728	0
2	33435	21613.73955353755	1
2	33436	21614.542677183135	0
2	33450	21626.185930451438	1
2	33451	21626.30894225261	0
2	33505	21659.919578828926	1
2	33506	21660.353667770199	0
2	33595	21710.056224979976	1
2	33596	21710.561787888656	0
2	33695	21754.884242547256	1
2	33696	21755.212769442051	0
2	33720	21780.577468458007	1
2	33721	21781.40169657896	0
2	33760	21813.047247199459	1
2	33762	21813.187017004328	2
2	33763	21813.462578209715	1
2	33767	21813.774753814046	2
2	33770	21814.191582947031	1
2	33773	21815.031978512688	0
2	33795	21819.32998475898	1
2	33796	21819.993747718757	0
2	33830	21834.322642755415	1
2	33831	21834.401152259286	0
2	33845	21852.393492760001	1
2	33846	21852.77984449803	0
2	33915	21915.341430626601	1
2	33916	21915.361242668956	0
2	34080	22017.490567497899	1
2	34081	22017.973852076036	0
2	34235	22074.385458219833	1
2	34236	22074.811993361701	0
2	34245	22076.719502996932	1
2	34246	22077.608092100596	0
2	34282	22099.202583262402	1
2	34283	22099.846911885335	0
2	34290	22101.48914166423	1
2	34291	22101.518916313515	0
2	34395	22200.475293802658	1
2	34396	22200.613803359971	0
2	34410	22204.541935315113	1
2	34411	22204.696410352609	0
2	34640	22379.843904336377	1
2	34641	22380.084099496751	0
2	34650	22380.911142281493	1
2	34651	22381.468658191035	0
2	34730	22414.06224065409	1
2	34731	22414.425811976733	0
2	34745	22420.070474685738	1
2	34746	22420.752049696937	0
2	34760	22425.128678675939	1
2	34761	22425.836694330945	0
2	34965	22571.374561236922	1
2	34966	22571.466951762932	0
2	35045	22654.701730243743	1
2	35046	22655.05925565696	0
2	35055	22655.961746897988	1
2	35056	22655.996101050066	0
2	35210	22739.347546285492	1
2	35211	22739.721356757473	0
2	35280	22788.319560391024	1
2	35281	22788.776339671959	0
2	35325	22806.862532440757	1
2	35326	22807.449983279138	0
2	35330	22807.937659076458	1
2	35331	22808.046499778434	0
2	35360	22820.132452044777	1
2	35361	22820.61601537767	0
2	35385	22828.137459023933	1
2	35386	22828.452314899831	0
2	35525	22910.669643214377	1
2	35527	22911.17605222321	2
2	35528	22911.507926572537	1
2	35531	22912.3284802218	0
2	35600	22989.083480769225	1
2	35601	22989.104393760311	0
2	35780	23109.872132468466	1
2	35781	23109.945412389263	0
2	35840	23167.348033586483	1
2	35841	23168.114152062575	0
2	36040	23306.080694049083	1
2	36041	23306.171442588536	0
2	36235	23474.405808879713	1
2	36238	23475.048426151699	0
2	36245	23476.496027122926	1
2	36246	23476.817165105421	0
2	36270	23497.917825354146	1
2	36271	23498.240070365196	0
2	36275	23498.38485482389	1
2	36276	23498.926283953911	0
2	36400	23566.746906534677	1
2	36401	23566.803869141614	0
2	36475	23632.146987259539	1
2	36476	23632.27782153373	0
2	36480	23632.655348497016	1
2	36481	23633.083489572	0
2	36565	23687.361613376987	1
2	36566	23687.7017282754	0
2	36570	23687.704624192337	1
2	36571	23688.366742834058	0
2	36715	23795.528332004979	1
2	36716	23796.054908320155	0
2	36865	23922.959389661315	1
2	36866	23923.041828695397	0
2	36880	23926.40995766147	1
2	36881	23926.677581038753	0
2	36970	24010.399537261551	1
2	36971	24010.62626312766	0
2	36980	24011.306002358965	1
2	36983	24012.063335028102	0
2	37050	24054.485923509711	1
2	37051	24054.615790250481	0
2	37120	24088.434703370035	1
2	37121	24088.828046318321	0
2	37155	24109.814013510357	1
2	37156	24109.871653547785	0
2	37265	24169.113659021264	1
2	37266	24169.600122935537	0
2	37285	24184.631413979173	1
2	37286	24185.103271085375	0
2	37290	24185.204951028575	1
2	37291	24185.704108822324	0
2	37305	24190.085917006578	1
2	37307	24190.505086224614	2
2	37308	24190.676407357806	1
2	37311	24191.349287041079	0
2	37340	24202.361982835495	1
2	37341	24202.925899415491	0
2	37450	24291.206927087168	1
2	37451	24291.348839300949	0
2	37475	24318.84309166378	1
2	37476	24319.332046682902	0
2	37560	24383.520938692608	1
2	37561	24383.64948098821	0
2	37595	24399.635742644585	1
2	37596	24399.671340548558	0
2	37650	24426.64122322265	1
2	37652	24426.836404999358	2
2	37653	24427.428652149254	1
2	37656	24428.234648887069	0
2	37665	24429.092643083261	1
2	37668	24429.499647237315	0
2	37777	24519.351350394679	1
2	37778	24519.703692056925	0
2	37845	24559.574768943841	1
2	37846	24559.893723617719	0
2	37850	24560.404958217938	1
2	37851	24560.698635453816	0
2	38025	24655.551498238562	1
2	38026	24655.720042489122	0
2	38095	24693.893895275157	1
2	38096	24694.395725643425	0
2	38120	24712.72858330704	1
2	38121	24713.305473598163	0
2	38130	24713.894698374218	1
2	38131	24714.308140425501	0
2	38162	24726.424856829315	1
2	38163	24726.508738389973	0
2	38185	24735.969015824786	1
2	38186	24736.113715491888	0
2	38215	24749.690642259874	1
2	38216	24749.70255318396	0
2	38225	24750.592303439919	1
2	38227	24750.838058598189	2
2	38228	24750.867410240558	1
2	38231	24751.446586832314	0
2	38440	24891.553981407944	1
2	38441	24891.981832637255	0
2	38475	24914.916806299729	1
2	38476	24914.964357764914	0
2	38480	24915.346074422039	1
2	38481	24915.392876420717	0
2	38485	24915.868499428487	1
2	38486	24915.991438776057	0
2	38495	24917.541922632355	1
2	38496	24917.837085345469	0
2	38515	24942.779195824783	1
2	38516	24942.925912318969	0
2	38522	24943.019331403635	1
2	38523	24943.416839669211	0
2	38535	24945.79754720783	1
2	38536	24945.828505302671	0
2	38545	24946.286180874876	1
2	38548	24946.675218178922	0
2	38630	25003.776115094748	1
2	38633	25004.441863106298	0
2	38645	25006.193259590797	1
2	38646	25006.343854679225	0
2	38700	25045.437035876985	1
2	38701	25046.103588537084	0
2	38705	25046.183198302439	1
2	38706	25047.064044677749	0
2	38710	25048.006953898498	1
2	38711	25048.049416132042	0
2	38810	25097.384185547624	1
2	38811	25097.879268014795	0
2	38825	25107.373698199616	1
2	38826	25107.415081465997	0
2	38835	25108.716979740028	1
2	38836	25108.810434196024	0
2	38845	25114.051227148149	1
2	38846	25114.534659029534	0
2	38895	25148.544414784944	1
2	38896	25149.095332847312	0
2	39140	25294.048333391428	1
2	39141	25294.154388276242	0
2	39150	25295.874989647512	1
2	39151	25296.075924954052	0
2	39185	25312.397183975998	1
2	39186	25312.768436035382	0
2	39250	25374.768335276692	1
2	39251	25374.774315493166	0
2	39425	25508.881340656138	1
2	39426	25509.470146417826	0
2	39530	25588.03398731832	1
2	39531	25588.153980914573	0
2	39535	25588.225861133761	1
2	39536	25588.635518943216	0
2	39575	25618.734616608867	1
2	39576	25618.996024911451	0
2	39620	25648.353022334098	1
2	39621	25648.472305159509	0
2	39740	25728.815335979759	1
2	39741	25729.241792487243	0
2	39745	25729.504091390817	1
2	39746	25729.68709185024	0
2	39775	25751.633202906404	1
2	39776	25751.852927824074	0
2	39815	25781.091345714908	1
2	39816	25781.309510532314	0
2	39885	25859.499579443996	1
2	39886	25859.633135841091	0
2	39995	25916.270999671851	1
2	39998	25917.243792632473	0
2	40005	25918.206780665227	1
2	40006	25918.311640315894	0
2	40025	25920.90713705844	1
2	40026	25921.160823743067	0
2	40110	25970.298118928994	1
2	40111	25970.787931900294	0
2	40190	26067.077558456118	1
2	40192	26067.285829977133	2
2	40193	26067.753094601213	1
2	40198	26068.41904370729	0
2	40225	26071.786879282882	1
2	40226	26071.946888980703	0
2	40345	26152.749241547856	1
2	40346	26153.321420035929	0
2	40360	26181.300626192676	1
2	40361	26182.116865056686	0
2	40385	26190.011093355018	1
2	40386	26190.133232518275	0
2	40565	26330.060373181836	1
2	40566	26330.324056710164	0
2	40627	26372.963759401858	1
2	40628	26373.115365037955	0
2	40700	26412.173942549561	1
2	40701	26412.574395755746	0
2	40885	26503.25856528243	1
2	40886	26503.887673209257	0
2	41010	26580.545812446001	1
2	41011	26581.092273342473	0
2	41035	26588.819293136358	1
2	41036	26589.044784338068	0
2	41092	26616.252057735093	1
2	41093	26616.493730755987	0
2	41100	26617.457322198866	1
2	41103	26617.949948083748	0
2	41140	26640.361530639373	1
2	41141	26640.647133024643	0
2	41157	26644.543672199631	1
2	41158	26644.71757154973	0
2	41170	26658.611526420224	1
2	41171	26658.943251636074	0
2	41180	26659.737402297488	1
2	41181	26660.45632251772	0
2	41285	26707.611937879066	1
2	41288	26708.109137752685	0
2	41295	26709.477011407091	1
2	41296	26709.565078545674	0
2	41305	26710.830214526435	1
2	41306	26711.169917388573	0
2	41365	26748.885977696607	1
2	41366	26748.917701528233	0
2	41465	26802.127248407902	1
2	41466	26802.235883440848	0
2	41470	26802.299301216407	1
2	41473	26803.036722657157	0
2	41477	26803.133939000918	1
2	41479	26803.229890102926	2
2	41482	26803.796756105617	1
2	41485	26804.745500859505	0
2	41497	26806.535525464342	1
2	41498	26807.150929153924	0
2	41525	26821.438000564613	1
2	41528	26822.136687141172	0
2	41535	26822.784163128298	1
2	41536	26823.620960491597	0
2	41585	26851.053849638314	1
2	41586	26851.380173041141	0
2	41590	26851.639344937207	1
2	41591	26852.098496118402	0
2	41617	26863.158586432131	1
2	41618	26863.27660424116	0
2	41695	26934.794853901491	1
2	41696	26935.211441684989	0
2	41742	26963.184752398921	1
2	41743	26963.52456859644	0
2	41835	27006.939220399454	1
2	41836	27007.202414751952	0
2	41955	27091.942497497861	1
2	41956	27092.704092942964	0
2	41970	27097.546769522564	1
2	41973	27098.249366958872	0
2	41990	27109.408549371446	1
2	41991	27109.920197423619	0
2	42077	27176.471057980892	1
2	42078	27176.861434152357	0
2	42120	27198.780200334536	1
2	42121	27198.84219245095	0
2	42255	27297.040993217817	1
2	42256	27297.287437146765	0
2	42295	27324.347364129308	1
2	42297	27324.417291527936	2
2	42298	27324.657855912073	1
2	42302	27324.795019027543	2
2	42303	27325.145526325198	1
2	42306	27325.90036800132	0
2	42340	27345.075577261503	1
2	42341	27345.702008029989	0
2	42410	27393.569250803451	1
2	42412	27393.723759270646	2
2	42413	27393.784860451823	1
2	42416	27394.361879317906	0
2	42435	27410.735526584749	1
2	42436	27411.322748674566	0
2	42515	27487.395666641587	1
2	42516	27487.945169920341	0
2	42525	27488.854884194785	1
2	42526	27489.301523523691	0
2	42795	27676.220088791672	1
2	42796	27676.840511833213	0
2	42885	27726.565679263333	1
2	42886	27727.275981532094	0
2	42895	27728.020785664188	1
2	42896	27728.910681419132	0
2	42910	27733.680761615032	1
2	42911	27733.982572997989	0
2	42925	27736.121226571453	1
2	42926	27736.415835996556	0
2	42960	27752.340977450551	1
2	42961	27752.598722557342	0
2	43020	27811.754805579783	1
2	43021	27811.989231002739	0
2	43177	27888.489156105316	1
2	43178	27889.069081447507	0
2	43195	27890.933446301477	1
2	43196	27891.346472959128	0
2	43200	27891.419391923488	1
2	43201	27891.94351566271	0
2	43335	28004.900159702646	1
2	43336	28004.99477443819	0
2	43360	28027.174367075251	1
2	43361	28027.693989974251	0
2	43395	28046.709761832162	1
2	43396	28046.991492398823	0
2	43470	28086.810034463891	1
2	43471	28087.035406936621	0
2	43610	28197.459576177392	1
2	43611	28197.875309492538	0
2	43647	28235.05510511149	1
2	43648	28235.364917118855	0
2	43655	28236.784130924404	1
2	43656	28237.04205075601	0
2	43755	28313.516720424222	1
2	43756	28313.980607624793	0
2	43765	28315.374913147155	1
2	43766	28315.43037333826	0
2	43785	28329.91685006347	1
2	43786	28330.535158769887	0
2	43905	28415.822793762127	1
2	43906	28416.003374764472	0
2	43920	28421.025414406224	1
2	43923	28421.54223871553	0
2	43970	28434.476683704675	1
2	43973	28435.235638466691	0
2	44050	28470.342737433746	1
2	44051	28470.442072649563	0
2	44070	28488.257063552816	1
2	44071	28488.401863604764	0
2	44082	28489.509107959702	1
2	44083	28489.671800427072	0
2	44205	28584.977914863859	1
2	44206	28585.132269951292	0
2	44235	28619.030387093304	1
2	44236	28619.19551240618	0
2	44315	28672.420471039771	1
2	44316	28673.296275769224	0
2	44460	28760.336098450364	1
2	44463	28760.58075470346	0
2	44490	28774.268932559169	1
2	44491	28774.517390696992	0
2	44530	28791.119077167096	1
2	44531	28791.714675035322	0
2	44650	28891.197672143025	1
2	44651	28892.123858029426	0
2	44655	28892.56336884307	1
2	44656	28892.779034030002	0
2	44680	28905.207738731237	1
2	44681	28905.571876677922	0
2	44690	28906.766709479193	1
2	44691	28906.814835953298	0
2	44885	29056.927817572877	1
2	44886	29057.414440701524	0
2	44950	29088.189694186483	1
2	44951	29089.167454976866	0
2	45010	29126.736767278167	1
2	45011	29126.986930678058	0
2	45040	29153.708796922459	1
2	45041	29153.826097835112	0
2	45080	29175.28703034495	1
2	45081	29175.983702311121	0
2	45145	29196.661959007299	1
2	45146	29197.076127628068	0
2	45330	29312.062356052046	1
2	45331	29312.161888826439	0
2	45342	29313.35002170124	1
2	45345	29313.754975753823	0
2	45390	29348.689152852401	1
2	45393	29349.260358884143	0
2	45400	29350.247484349368	1
2	45401	29350.499263965529	0
2	45460	29384.850331396357	1
2	45461	29385.088909697449	0
2	45470	29386.781748683704	1
2	45471	29386.833748791355	0
2	45690	29500.85588727713	1
2	45691	29501.006002108985	0
2	45802	29576.417469393387	1
2	45803	29576.640253395446	0
2	45807	29576.989612411801	1
2	45808	29577.095680753559	0
2	46095	29759.326182486494	1
2	46096	29759.635518046661	0
2	46105	29761.073811514422	1
2	46106	29761.661071820054	0
2	46205	29828.227148838632	1
2	46206	29828.491220343229	0
2	46325	29926.340354836972	1
2	46326	29926.515182929853	0
2	46360	29974.709496023977	1
2	46361	29974.898635895678	0
2	46375	29977.295870530016	1
2	46376	29977.484338664624	0
2	46400	29982.602336720484	1
2	46401	29982.781173450224	0
2	46435	29993.939229376314	1
2	46436	29994.916322116639	0
2	46445	29996.550146159631	1
2	46446	29996.626158240835	0
3	0	0	0
3	37	36.697437088999	1
3	41	37.551655897789	0
3	55	39.46730084972	1
3	56	39.90208261474	0
3	100	100.743799655601	1
3	101	101.426505495917	0
3	115	103.767837521665	1
3	116	103.918927778313	0
3	165	129.301842278106	1
3	166	129.332669529549	0
3	170	130.033527746881	1
3	171	130.271658975815	0
3	265	174.647149355823	1
3	266	175.197088560274	0
3	280	179.187502765538	1
3	281	179.272372650317	0
3	310	211.718682961662	1
3	311	212.572677568442	0
3	400	252.516793045657	1
3	401	252.545091391654	0
3	430	266.648924034528	1
3	431	267.114529316352	0
3	435	267.141581037267	1
3	436	267.60813613305	0
3	445	268.21622203636	1
3	446	268.712009964969	0
3	455	270.01219044705	1
3	456	270.436577779141	0
3	465	272.089720219898	1
3	466	272.103098476392	0
3	470	272.334489387666	1
3	471	272.789672547851	0
3	485	282.407334187046	1
3	486	282.828249082514	0
3	505	285.440243280741	1
3	506	285.841033643976	0
3	525	294.050187766647	1
3	526	294.234469275576	0
3	532	294.958948949504	1
3	536	295.955623558703	0
3	560	309.454031515018	1
3	561	309.696656297896	0
3	605	342.0638360137	1
3	606	342.279948888561	0
3	670	382.912914059497	1
3	671	383.09472901176	0
3	690	388.225055799228	1
3	691	388.542672139259	0
3	710	402.029874528166	1
3	711	402.150131302057	0
3	735	414.141773378295	1
3	736	414.247562829599	0
3	755	417.755901857009	1
3	756	417.920595622549	0
3	845	472.44094678974	1
3	846	473.280901032234	0
3	850	473.390781956098	1
3	852	473.454238964806	2
3	853	473.793218930219	1
3	856	474.767311091968	0
3	900	507.262504706473	1
3	901	507.350582239662	0
3	910	508.950425280209	1
3	911	509.369673066889	0
3	915	509.844797183231	1
3	917	510.361298643474	2
3	918	510.361518564471	1
3	921	511.129096141527	0
3	935	512.916664262149	1
3	936	513.004191554965	0
3	960	519.466017763434	1
3	961	519.793992823643	0
3	1085	604.479412821554	1
3	1086	604.494048446074	0
3	1110	621.582689419981	1
3	1111	621.76636779623	0
3	1210	691.076890522344	1
3	1212	691.199238022441	2
3	1213	691.232484633635	1
3	1216	691.785203708495	0
3	1350	785.450024543724	1
3	1351	785.696785372539	0
3	1440	852.260620959931	1
3	1441	852.384069992683	0
3	1470	879.262084992934	1
3	1471	879.904792357819	0
3	1475	880.590169691755	1
3	1477	880.597525853462	2
3	1478	880.800922842394	1
3	1482	881.068837048779	2
3	1483	881.514554401371	1
3	1487	882.198017718711	2
3	1488	882.232858307404	1
3	1491	883.013567024819	0
3	1520	895.651612104759	1
3	1521	895.874097674023	0
3	1545	909.518727113999	1
3	1546	909.857346173991	0
3	1555	911.119437761494	1
3	1556	911.759551671372	0
3	1570	914.506049124911	1
3	1571	914.705145973588	0
3	1735	1049.260872791284	1
3	1736	1049.305404836992	0
3	1810	1122.577769826038	1
3	1811	1122.980544619378	0
3	1820	1130.170369448824	1
3	1826	1131.102796371658	0
3	1832	1131.540122095052	1
3	1837	1131.941462172384	2
3	1838	1132.354628473664	1
3	1841	1133.212340470687	0
3	1875	1162.857177151607	1
3	1876	1163.206507472067	0
3	1975	1256.866960988503	1
3	1976	1257.007552869787	0
3	1985	1257.937395203177	1
3	1986	1258.731098973209	0
3	2035	1300.113493924905	1
3	2036	1300.333867805609	0
3	2040	1300.897579076947	1
3	2041	1301.205766123319	0
3	2050	1302.925153560721	1
3	2051	1303.108074643993	0
3	2100	1324.100141638937	1
3	2102	1324.249076463019	2
3	2103	1324.980389761661	1
3	2106	1325.548007360675	0
3	2117	1331.049658936868	1
3	2121	1332.480559577395	0
3	2155	1366.562100330732	1
3	2156	1366.591843071342	0
3	2220	1392.288466698832	1
3	2221	1392.440222732664	0
3	2320	1483.208004517377	1
3	2321	1483.595947549696	0
3	2390	1530.589426845763	1
3	2391	1531.193185402928	0
3	2505	1601.129095846121	1
3	2506	1601.137959548084	0
3	2535	1617.887855519761	1
3	2546	1620.153532788701	0
3	2565	1635.265334239088	1
3	2566	1635.303810352319	0
3	2605	1669.631103820407	1
3	2606	1669.994750196422	0
3	2610	1670.39797163686	1
3	2611	1670.840183494175	0
3	2700	1726.391604475498	1
3	2701	1726.471612278968	0
3	2735	1745.585684463997	1
3	2736	1745.620146694125	0
3	2745	1750.436687184003	1
3	2746	1751.221121247074	0
3	2790	1762.911362097212	1
3	2791	1763.325143344707	0
3	2800	1765.049388659111	1
3	2802	1765.179112286641	2
3	2804	1765.202565085879	3
3	2810	1766.097566539501	2
3	2813	1766.826197593413	1
3	2816	1767.264213670823	0
3	2950	1845.059666337333	1
3	2956	1846.468317779479	0
3	3110	1927.483169509958	1
3	3111	1928.138921307499	0
3	3225	2016.334894339221	1
3	3226	2016.511439613339	0
3	3280	2063.723860039001	1
3	3281	2064.271514478383	0
3	3310	2081.194055719569	1
3	3311	2081.556327636049	0
3	3340	2100.669383969896	1
3	3341	2101.295915240301	0
3	3360	2117.305546653342	1
3	3361	2117.659753252625	0
3	3480	2198.37763121205	1
3	3481	2198.428614362759	0
3	3570	2251.651507539204	1
3	3571	2252.278418677615	0
3	3590	2264.523944579438	1
3	3591	2265.035541865851	0
3	3605	2273.044355477358	1
3	3606	2273.429012713887	0
3	3650	2301.731323714348	1
3	3651	2302.563307416333	0
3	3660	2313.088581131208	1
3	3661	2313.233269000418	0
3	3715	2339.670778102173	1
3	3716	2340.302758427836	0
3	3725	2348.163340210963	1
3	3726	2348.712757395139	0
3	3760	2362.842141053003	1
3	3761	2362.912950490645	0
3	3765	2362.956287796163	1
3	3766	2363.834401190371	0
3	3770	2364.408737744226	1
3	3771	2364.526224619799	0
3	3790	2370.252624103784	1
3	3791	2370.454825432809	0
3	3965	2531.673197623441	1
3	3966	2531.960274145933	0
3	4030	2586.847111433634	1
3	4031	2587.23256321393	0
3	4125	2650.300131270489	1
3	4126	2650.399679039627	0
3	4130	2650.62726568208	1
3	4132	2650.689756430511	2
3	4133	2651.123159624006	1
3	4136	2651.863057774932	0
3	4170	2670.016771436848	1
3	4171	2670.041759952125	0
3	4215	2700.441756552587	1
3	4216	2700.742688028395	0
3	4240	2716.438522671816	1
3	4241	2716.884499870865	0
3	4245	2716.947075244634	1
3	4247	2717.194347845319	2
3	4249	2717.235661813648	3
3	4250	2717.781044390723	2
3	4253	2718.718966725161	1
3	4256	2719.383656857228	0
3	4285	2748.971745615144	1
3	4286	2749.418687944239	0
3	4320	2772.165679973295	1
3	4321	2773.025768056409	0
3	4360	2785.458486555747	1
3	4361	2785.596417505368	0
3	4430	2840.163497873582	1
3	4431	2840.689059422195	0
3	4457	2869.989412333376	1
3	4461	2870.556384666905	0
3	4510	2942.22799114586	1
3	4511	2942.69228711869	0
3	4540	2966.829766445265	1
3	4541	2967.189664214275	0
3	4575	2982.221949470116	1
3	4576	2982.358447956141	0
3	4640	3033.180218437688	1
3	4641	3033.466709148932	0
3	4680	3067.029902180444	1
3	4681	3067.086830506442	0
3	4740	3110.167768417886	1
3	4741	3110.627000697227	0
3	4800	3150.42573502334	1
3	4801	3150.846103860717	0
3	4910	3186.705551233368	1
3	4911	3186.792634504142	0
3	4925	3188.63694954458	1
3	4926	3189.201230956153	0
3	4930	3189.274377385912	1
3	4936	3190.565966466586	0
3	4940	3190.748106195366	1
3	4941	3191.02794658775	0
3	4950	3193.286050218911	1
3	4951	3194.000193872488	0
3	4955	3194.325331223246	1
3	4956	3194.957830546982	0
3	5070	3259.84172387671	1
3	5071	3260.296998595298	0
3	5095	3265.381929984779	1
3	5096	3265.775266481544	0
3	5100	3265.948013201282	1
3	5101	3266.210411855745	0
3	5180	3306.242159175442	1
3	5181	3306.724613870541	0
3	5235	3364.846574891991	1
3	5236	3365.226925591431	0
3	5240	3365.304575858691	1
3	5241	3365.935405570553	0
3	5270	3380.139686653323	1
3	5271	3380.404172254234	0
3	5275	3380.849415904321	1
3	5276	3381.179338698994	0
3	5295	3384.700999983566	1
3	5296	3385.007533667837	0
3	5360	3419.126576207918	1
3	5361	3419.673254236271	0
3	5395	3437.418063349837	1
3	5396	3437.418246690429	0
3	5470	3485.585086642852	1
3	5471	3485.803097222927	0
3	5485	3499.89741257696	1
3	5486	3500.041556191712	0
3	5550	3551.160917599113	1
3	5551	3551.442711110312	0
3	5630	3593.491439671022	1
3	5631	3593.978638698232	0
3	5670	3626.21868659434	1
3	5671	3626.7209399887	0
3	5725	3665.966955317559	1
3	5726	3666.269844890168	0
3	5775	3709.307365549892	1
3	5776	3709.515020264759	0
3	5780	3709.515806281723	1
3	5781	3710.163645698763	0
3	5815	3737.065274591316	1
3	5816	3737.173594141652	0
3	5880	3798.657833150342	1
3	5881	3799.062779299357	0
3	5980	3861.494251680224	1
3	5981	3861.811339726713	0
3	6085	3919.815069786732	1
3	6086	3920.59250145926	0
3	6115	3936.128735944516	1
3	6116	3936.401977062093	0
3	6175	3975.69906931805	1
3	6176	3976.297910581877	0
3	6222	4009.388205716401	1
3	6226	4010.644142218048	0
3	6325	4077.14662523449	1
3	6326	4077.564637651824	0
3	6385	4111.468279953096	1
3	6386	4111.818526781971	0
3	6390	4112.02662201137	1
3	6391	4112.78401275451	0
3	6435	4134.552128423369	1
3	6436	4135.176517310089	0
3	6470	4146.923776617952	1
3	6471	4147.369824632969	0
3	6495	4162.116072991229	1
3	6496	4162.581663890168	0
3	6515	4186.583971608081	1
3	6516	4186.811184826812	0
3	6520	4187.07226715878	1
3	6521	4187.629727676084	0
3	6540	4191.276283453375	1
3	6541	4191.895195253353	0
3	6560	4194.29914544656	1
3	6561	4194.749536127943	0
3	6690	4319.83766852222	1
3	6691	4320.348459339425	0
3	6715	4336.763994327933	1
3	6716	4337.066846262995	0
3	6750	4357.738043497483	1
3	6751	4358.402415759869	0
3	6800	4395.413270678572	1
3	6801	4395.743574633259	0
3	6827	4401.510117187607	1
3	6831	4402.472013047053	0
3	6865	4429.682442609708	1
3	6866	4429.895577023728	0
3	6875	4430.376538591478	1
3	6879	4430.723792485194	2
3	6883	4431.953736354029	1
3	6886	4432.662047613124	0
3	6950	4468.135329188032	1
3	6951	4468.175472488402	0
3	6955	4468.322452901286	1
3	6956	4468.877008308292	0
3	6990	4491.556326366832	1
3	6991	4491.761816812674	0
3	7065	4533.591678178541	1
3	7066	4533.711355964983	0
3	7125	4568.007547897729	1
3	7126	4568.065073679401	0
3	7160	4574.403320863565	1
3	7161	4574.749675914585	0
3	7165	4575.165823790353	1
3	7171	4576.58335363952	0
3	7175	4576.703197719838	1
3	7176	4577.106937449598	0
3	7187	4578.836150850028	1
3	7191	4579.955236184208	0
3	7205	4584.024145452576	1
3	7206	4584.167972779908	0
3	7300	4642.682291602781	1
3	7301	4642.942849795442	0
3	7335	4660.4641566611	1
3	7336	4660.736188986189	0
3	7412	4716.101614678774	1
3	7417	4716.515090078892	2
3	7418	4716.968960180727	1
3	7422	4717.429792964642	2
3	7423	4717.846360549831	1
3	7431	4719.227738586755	0
3	7505	4751.279132373512	1
3	7506	4752.017188166785	0
3	7517	4753.795689275958	1
3	7521	4754.731027588945	0
3	7570	4784.479176242336	1
3	7571	4784.705390321364	0
3	7585	4790.469216243516	1
3	7586	4790.526068584197	0
3	7650	4883.354683433011	1
3	7651	4883.42975537947	0
3	7705	4916.880323243125	1
3	7706	4917.107019167297	0
3	7715	4920.403995414196	1
3	7716	4920.663411459205	0
3	7760	4965.882344484702	1
3	7762	4965.909719514724	2
3	7763	4965.948554828415	1
3	7766	4966.439656840196	0
3	7815	5014.21573489596	1
3	7816	5014.334222224778	0
3	7900	5065.024686049658	1
3	7901	5065.028574889668	0
3	7945	5091.117328511405	1
3	7946	5092.114019195131	0
3	8020	5142.232801347256	1
3	8021	5142.732866190458	0
3	8085	5175.47834874891	1
3	8086	5175.4792526241	0
3	8090	5176.118380018594	1
3	8091	5176.285399498705	0
3	8100	5177.855105317026	1
3	8101	5178.067638317323	0
3	8220	5234.129829885651	1
3	8221	5234.54315441738	0
3	8270	5257.437776475389	1
3	8271	5257.749125625215	0
3	8385	5322.233152195514	1
3	8386	5322.576867474794	0
3	8397	5323.338791772971	1
3	8411	5325.634939979009	0
3	8430	5332.214180550932	1
3	8431	5332.724921764679	0
3	8435	5332.884389513431	1
3	8442	5333.87955827104	2
3	8443	5334.655963330682	1
3	8446	5335.627958168149	0
3	8490	5368.695544238725	1
3	8491	5368.813419517648	0
3	8510	5375.136552036599	1
3	8511	5375.18382861566	0
3	8550	5397.446245177806	1
3	8551	5397.576832726508	0
3	8560	5399.568960558647	1
3	8561	5399.572878327918	0
3	8590	5411.622945176873	1
3	8591	5411.907967062108	0
3	8620	5426.975918478754	1
3	8621	5427.866499271139	0
3	8645	5436.712261431826	1
3	8646	5437.219998093733	0
3	8650	5437.57646115529	1
3	8651	5437.642719862043	0
3	8790	5496.148367908732	1
3	8791	5496.636946618286	0
3	8795	5496.883137023961	1
3	8796	5497.460877317059	0
3	8895	5551.690850218952	1
3	8896	5551.779078754861	0
3	8900	5552.486072719127	1
3	8901	5552.765600999616	0
3	8995	5620.792691663864	1
3	8996	5621.615382448551	0
3	9005	5630.952517179503	1
3	9006	5631.086114357075	0
3	9085	5689.930985427775	1
3	9086	5690.178309279526	0
3	9155	5730.384823792818	1
3	9156	5731.013822833981	0
3	9270	5838.095643690301	1
3	9271	5838.761860950538	0
3	9315	5874.494860771001	1
3	9316	5875.12500491	0
3	9335	5894.717392746225	1
3	9337	5895.084191865969	2
3	9338	5895.313675996106	1
3	9341	5895.997030194247	0
3	9400	5937.292498698926	1
3	9401	5937.633033942378	0
3	9450	5956.846634427056	1
3	9451	5957.352137348319	0
3	9500	5986.958356528565	1
3	9501	5987.249656730879	0
3	9525	5996.402728585346	1
3	9526	5996.565439147566	0
3	9560	6011.695378370829	1
3	9561	6011.874733195569	0
3	9580	6028.141538269588	1
3	9581	6028.532345568987	0
3	9595	6032.848816277209	1
3	9596	6033.309408212985	0
3	9610	6045.92681436189	1
3	9611	6046.049677409843	0
3	9670	6075.730640322323	1
3	9671	6076.18940267499	0
3	9760	6134.370584123521	1
3	9761	6134.559067433791	0
3	9765	6134.743570480144	1
3	9766	6134.995665618822	0
3	9770	6135.101227856148	1
3	9771	6135.409379315002	0
3	9775	6135.689081347744	1
3	9777	6135.980783775231	2
3	9778	6136.095669944862	1
3	9781	6137.004501558745	0
3	9845	6165.909345526	1
3	9846	6166.66407461324	0
3	9920	6229.016366231097	1
3	9921	6229.491990920339	0
3	9925	6229.509319342404	1
3	9926	6230.020170927184	0
3	9972	6250.807770518711	1
3	9977	6251.635002510003	2
3	9978	6251.970766656461	1
3	9986	6253.334655711881	0
3	9990	6253.536037543331	1
3	9991	6253.752740181645	0
3	10080	6313.056842934558	1
3	10081	6313.175253286356	0
3	10100	6334.563185049587	1
3	10101	6335.381082608366	0
3	10110	6338.129523657739	1
3	10111	6338.645757464417	0
3	10115	6338.655192721485	1
3	10116	6339.156737216566	0
3	10135	6344.07905901143	1
3	10136	6344.58395276235	0
3	10160	6357.035262830372	1
3	10162	6357.087730647802	2
3	10163	6357.22591119518	1
3	10167	6357.363638365968	2
3	10168	6357.888839565753	1
3	10171	6358.306982609513	0
3	10177	6358.669140501367	1
3	10181	6359.815756715671	0
3	10190	6361.731943883086	1
3	10191	6361.962774709309	0
3	10200	6362.57786972026	1
3	10206	6364.075514955913	0
3	10215	6368.113158575887	1
3	10216	6368.535866183597	0
3	10222	6369.319925899576	1
3	10226	6370.500552175842	0
3	10335	6451.78658397784	1
3	10336	6452.070930727512	0
3	10370	6462.744399956332	1
3	10371	6463.203177847963	0
3	10395	6471.703594325153	1
3	10396	6471.806577886121	0
3	10402	6472.684813707142	1
3	10406	6473.739814630935	0
3	10440	6489.661584345463	1
3	10441	6490.223693324353	0
3	10450	6491.517800413523	1
3	10451	6491.78282613443	0
3	10455	6492.07311015036	1
3	10461	6492.976040105576	0
3	10515	6547.999702496312	1
3	10516	6548.622828186728	0
3	10525	6553.997181578234	1
3	10526	6554.0529223284	0
3	10535	6554.822046419639	1
3	10536	6555.658507964505	0
3	10560	6565.552579009574	1
3	10561	6565.711170206794	0
3	10605	6593.267483982585	1
3	10606	6593.488309108026	0
3	10680	6622.576316288682	1
3	10681	6622.820165489953	0
3	10700	6636.546712448491	1
3	10701	6637.209538518247	0
3	10825	6719.194952057265	1
3	10826	6720.100228718033	0
3	10832	6720.442528686282	1
3	10836	6721.334171005727	0
3	10965	6818.01325764463	1
3	10966	6818.13756140456	0
3	11005	6831.178666281677	1
3	11006	6831.567540115358	0
3	11055	6864.947268245262	1
3	11056	6865.186342237912	0
3	11065	6866.600056995301	1
3	11067	6866.685388953472	2
3	11068	6867.387153987064	1
3	11071	6867.960872851768	0
3	11080	6869.622149344248	1
3	11081	6870.207943651812	0
3	11090	6876.330209034039	1
3	11091	6876.868906878171	0
3	11095	6877.283992838706	1
3	11096	6877.780303199499	0
3	11355	7060.23330557594	1
3	11356	7060.304927975863	0
3	11405	7102.67949978461	1
3	11406	7102.919481672476	0
3	11440	7145.036295035282	1
3	11441	7145.059199949104	0
3	11485	7181.110851904153	1
3	11486	7181.117794048514	0
3	11655	7297.727738989646	1
3	11656	7297.964767819427	0
3	11680	7324.980969628852	1
3	11681	7325.404513941961	0
3	11720	7348.905136676803	1
3	11721	7349.047778674267	0
3	11835	7420.979556347186	1
3	11836	7421.012343992598	0
3	11840	7421.324086929171	1
3	11841	7421.812209585335	0
3	11860	7428.09100563497	1
3	11861	7428.562403574905	0
3	11870	7429.447259571362	1
3	11871	7430.003192192263	0
3	11940	7475.713174635087	1
3	11942	7475.790061492696	2
3	11943	7476.473413381742	1
3	11946	7477.339288937689	0
3	11985	7494.131481115823	1
3	11986	7494.598567236928	0
3	12005	7498.082334757395	1
3	12006	7498.892818645278	0
3	12010	7499.764000856523	1
3	12011	7499.777243165748	0
3	12025	7506.357992621208	1
3	12026	7507.0449435307	0
3	12045	7525.830518156703	1
3	12047	7526.386774016388	2
3	12048	7526.456068490916	1
3	12052	7526.910375443654	2
3	12053	7527.405588794923	1
3	12056	7528.019913112144	0
3	12115	7556.454668744717	1
3	12116	7556.930926477106	0
3	12170	7607.902971970475	1
3	12171	7608.025162381041	0
3	12185	7610.139213505594	1
3	12186	7610.523566423022	0
3	12200	7614.165834056348	1
3	12202	7614.48138650114	2
3	12203	7614.589749895774	1
3	12206	7615.264422438519	0
3	12290	7671.595699078898	1
3	12291	7672.301842726536	0
3	12310	7681.599399305624	1
3	12311	7682.050256002583	0
3	12355	7706.353343738247	1
3	12356	7706.743992561376	0
3	12590	7826.517201745201	1
3	12592	7826.69308668369	2
3	12593	7827.002067739419	1
3	12597	7827.470089860499	2
3	12598	7827.559307379038	1
3	12601	7828.40613774531	0
3	12622	7842.356595106261	1
3	12627	7842.837828994734	2
3	12628	7843.026028095457	1
3	12631	7843.873361323673	0
3	12675	7872.19485985354	1
3	12676	7872.372768767528	0
3	12697	7884.355508574526	1
3	12701	7885.180221351449	0
3	12710	7886.64709631902	1
3	12711	7886.747479433314	0
3	12750	7906.300510698132	1
3	12751	7906.569858649245	0
3	12780	7919.757798732239	1
3	12781	7919.772719268555	0
3	12830	7952.829668542409	1
3	12831	7953.062727982205	0
3	12875	7966.618242088628	1
3	12876	7966.668058591331	0
3	12880	7966.677815146786	1
3	12886	7968.14308928167	0
3	12985	8037.070625777105	1
3	12986	8037.795329135594	0
3	13010	8042.931654716135	1
3	13011	8043.082009475437	0
3	13025	8055.112996964246	1
3	13026	8055.477080442424	0
3	13035	8068.963985281433	1
3	13036	8069.005132986769	0
3	13055	8076.769276081534	1
3	13056	8076.981534055598	0
3	13180	8193.954606582104	1
3	13181	8194.261900933594	0
3	13185	8194.265595951297	1
3	13187	8194.706312409052	2
3	13188	8194.990052048531	1
3	13191	8195.939740360803	0
3	13220	8217.102015156082	1
3	13221	8217.375703416537	0
3	13240	8227.166319273103	1
3	13241	8227.471514964098	0
3	13275	8252.651843164508	1
3	13276	8253.509881406075	0
3	13335	8281.825790583212	1
3	13336	8282.173491292771	0
3	13395	8324.477375425575	1
3	13396	8325.145972757629	0
3	13465	8379.605504808568	1
3	13466	8379.689851058648	0
3	13485	8385.887797407049	1
3	13486	8386.24514828286	0
3	13495	8386.963111418252	1
3	13496	8387.806747578866	0
3	13500	8387.996299874912	1
3	13501	8388.493218737458	0
3	13510	8390.389272004982	1
3	13511	8390.770561126354	0
3	13540	8410.310511972056	1
3	13541	8410.768071534478	0
3	13545	8410.820684590609	1
3	13546	8411.667436759214	0
3	13565	8417.483876918017	1
3	13566	8417.959475317889	0
3	13570	8418.669627903414	1
3	13571	8418.924794060004	0
3	13590	8426.483795555267	1
3	13591	8426.664402795956	0
3	13705	8503.064503628778	1
3	13706	8503.956924792673	0
3	13760	8534.225006307471	1
3	13761	8534.231981344671	0
3	13765	8534.497071993391	1
3	13766	8535.218666170268	0
3	13770	8535.249764834667	1
3	13771	8535.962130173073	0
3	13920	8621.317578984875	1
3	13921	8621.918117515216	0
3	13975	8660.88396419598	1
3	13976	8661.052358082758	0
3	14035	8697.285646050805	1
3	14036	8697.462506332613	0
3	14185	8788.558720252532	1
3	14186	8789.163858786105	0
3	14190	8789.895541145999	1
3	14191	8790.009716534355	0
3	14195	8790.36158166024	1
3	14196	8790.865960662739	0
3	14485	9022.674230194246	1
3	14486	9023.222151479143	0
3	14540	9051.498879208157	1
3	14541	9051.749335675843	0
3	14580	9075.112041910792	1
3	14581	9075.963031949872	0
3	14645	9143.970934767897	1
3	14646	9144.51413623182	0
3	14717	9179.437082730626	1
3	14722	9179.603958405169	2
3	14723	9180.286005074138	1
3	14726	9180.696034195068	0
3	14730	9180.933679202391	1
3	14731	9181.614230255856	0
3	14980	9337.233687861639	1
3	14981	9337.391999292322	0
3	15035	9400.735176212464	1
3	15036	9400.958524450109	0
3	15095	9437.639120188729	1
3	15096	9438.243351149018	0
3	15215	9514.382423075576	1
3	15216	9514.847102464447	0
3	15240	9523.026786131376	1
3	15241	9523.037098840704	0
3	15397	9684.465899320544	1
3	15401	9685.611820714144	0
3	15460	9715.225962518908	1
3	15461	9715.366870166247	0
3	15465	9715.60074142388	1
3	15466	9716.021127107485	0
3	15470	9716.473267082445	1
3	15471	9716.806908017655	0
3	15630	9888.056382344248	1
3	15631	9888.333901772942	0
3	15755	9940.974276381228	1
3	15756	9941.073196766148	0
3	15765	9942.127155990833	1
3	15766	9942.575976014616	0
3	15790	9946.908665871083	1
3	15791	9947.396783896256	0
3	15795	9948.012307673068	1
3	15801	9949.170740466658	0
3	15840	9984.41764345504	1
3	15841	9984.930351083524	0
3	15955	10066.450894098504	1
3	15956	10066.54797645329	0
3	16015	10143.472912550588	1
3	16016	10143.660531497348	0
3	16035	10156.999825552106	1
3	16036	10157.78891624144	0
3	16080	10183.445514509813	1
3	16081	10183.56304466468	0
3	16130	10214.330847505585	1
3	16131	10214.728392563308	0
3	16210	10278.957666460463	1
3	16211	10279.161848959057	0
3	16227	10287.067906796093	1
3	16231	10288.580748074162	0
3	16290	10335.633465821565	1
3	16291	10336.33682101569	0
3	16425	10428.969121488575	1
3	16426	10429.641742359695	0
3	16450	10443.429886726903	1
3	16451	10443.648465707039	0
3	16455	10443.824443352786	1
3	16457	10444.086980382291	2
3	16458	10444.412380443539	1
3	16461	10445.153317160744	0
3	16495	10456.492034354193	1
3	16496	10456.909065615769	0
3	16535	10472.332182094169	1
3	16536	10472.33758810666	0
3	16585	10511.334451087768	1
3	16586	10511.756441456556	0
3	16597	10512.261823325421	1
3	16606	10514.637732958618	0
3	16610	10515.227247519933	1
3	16611	10515.597429549379	0
3	16615	10515.652025195792	1
3	16616	10516.397777565906	0
3	16630	10520.752447312357	1
3	16631	10521.012363069242	0
3	16640	10523.227017207407	1
3	16641	10523.596751701062	0
3	16675	10559.613259182408	1
3	16676	10559.744370486701	0
3	16707	10602.510998137209	1
3	16712	10602.965093853899	2
3	16713	10603.665281172091	1
3	16716	10604.110098993353	0
3	16760	10640.949205914247	1
3	16761	10641.725904142913	0
3	16790	10649.637115684739	1
3	16791	10649.847037664398	0
3	16810	10656.022749315133	1
3	16811	10656.091390523456	0
3	16820	10668.252024154789	1
3	16821	10668.791314874495	0
3	16855	10710.170214872721	1
3	16856	10710.446988166223	0
3	16895	10733.955119584606	1
3	16896	10734.137623227809	0
3	17090	10850.149114851364	1
3	17091	10851.032435488449	0
3	17125	10880.332757350556	1
3	17126	10880.885823204853	0
3	17135	10882.916463994399	1
3	17136	10883.790700876673	0
3	17190	10927.73658194474	1
3	17191	10928.136474977512	0
3	17225	10949.389155664736	1
3	17226	10949.532497329067	0
3	17290	10980.931084387329	1
3	17291	10981.610641499525	0
3	17370	11027.120335899388	1
3	17371	11027.557294286348	0
3	17465	11083.581252767138	1
3	17467	11083.902715183105	2
3	17468	11084.194672317866	1
3	17471	11084.805754333332	0
3	17645	11196.179055257342	1
3	17646	11196.583246202573	0
3	17690	11220.085450676621	1
3	17691	11220.165118590126	0
3	17700	11220.918215303936	1
3	17701	11221.488536533366	0
3	17705	11221.935610534132	1
3	17711	11223.007967344278	0
3	17737	11254.065831628248	1
3	17742	11254.416957730938	2
3	17743	11255.030213345384	1
3	17751	11256.510398205726	0
3	17800	11296.919114631995	1
3	17801	11297.63516910748	0
3	17880	11378.876323739937	1
3	17881	11379.27829886614	0
3	17895	11383.666085144523	1
3	17896	11383.669851131908	0
3	17965	11434.203641869833	1
3	17966	11434.542145029636	0
3	18060	11482.283271161523	1
3	18061	11482.388492696749	0
3	18090	11499.596167465359	1
3	18096	11501.546462934961	0
3	18110	11509.87109023058	1
3	18111	11509.899197776407	0
3	18155	11554.935917984168	1
3	18156	11555.167365226847	0
3	18160	11555.225586249414	1
3	18161	11555.942242385865	0
3	18185	11573.050097137848	1
3	18186	11573.473517842152	0
3	18225	11612.359323066439	1
3	18226	11612.886710494794	0
3	18285	11662.400913700429	1
3	18286	11662.450413730709	0
3	18300	11671.160329398946	1
3	18301	11671.444013635444	0
3	18340	11688.369103662683	1
3	18341	11688.590173577496	0
3	18350	11691.461443709294	1
3	18351	11691.517178408734	0
3	18360	11699.836313908941	1
3	18361	11700.217471738407	0
3	18405	11742.009432170188	1
3	18406	11742.093966168713	0
3	18440	11761.430320108053	1
3	18441	11761.772397271974	0
3	18445	11761.866823566004	1
3	18449	11762.154280952952	2
3	18453	11763.386128813459	1
3	18457	11763.473994406307	2
3	18458	11763.936210277874	1
3	18462	11764.244800712102	2
3	18463	11764.893936418148	1
3	18466	11765.36878195462	0
3	18530	11839.430804010622	1
3	18531	11839.844000266542	0
3	18575	11873.114264222694	1
3	18576	11873.346260024549	0
3	18590	11875.158015798984	1
3	18591	11875.508405546571	0
3	18595	11875.513357984972	1
3	18596	11876.245590706362	0
3	18730	11985.337711703515	1
3	18731	11986.094027670851	0
3	18735	11986.192094229276	1
3	18736	11986.861025305145	0
3	18750	11990.661624522503	1
3	18752	11990.87882544386	2
3	18753	11991.050892478269	1
3	18756	11991.558130687703	0
3	18775	11995.941053157902	1
3	18777	11996.396252562988	2
3	18778	11996.741945134843	1
3	18781	11997.310953694204	0
3	18795	12007.0689085082	1
3	18796	12007.416833166094	0
3	18830	12034.697146232517	1
3	18831	12035.584073986591	0
3	18850	12041.733438895066	1
3	18851	12042.565098174473	0
3	18860	12044.44114273428	1
3	18861	12044.717995485226	0
3	18970	12166.594103740416	1
3	18971	12167.223264773619	0
3	18980	12181.202355479094	1
3	18981	12181.59764179307	0
3	19030	12213.88322584787	1
3	19031	12214.614635086146	0
3	19035	12214.796847535478	1
3	19036	12215.086477189178	0
3	19040	12215.185088581089	1
3	19041	12215.955280865629	0
3	19105	12238.151157798239	1
3	19106	12238.50219929431	0
3	19135	12249.401202889568	1
3	19136	12249.711027980532	0
3	19150	12254.475724291301	1
3	19151	12255.09170555503	0
3	19235	12310.388798098475	1
3	19237	12310.421152584441	2
3	19238	12310.430091975461	1
3	19241	12311.213802997972	0
3	19250	12311.893325141526	1
3	19251	12312.201323948317	0
3	19255	12312.311194821224	1
3	19256	12312.943631502316	0
3	19265	12313.988585194764	1
3	19266	12314.070543303506	0
3	19275	12324.542097445751	1
3	19276	12324.874387360392	0
3	19285	12326.00977859141	1
3	19286	12326.810518844595	0
3	19290	12326.937788960009	1
3	19291	12327.464506381547	0
3	19310	12332.149026368573	1
3	19312	12332.363747029665	2
3	19313	12332.565491977509	1
3	19316	12333.335016579728	0
3	19345	12348.94113002559	1
3	19346	12349.931212819191	0
3	19350	12350.849551855561	1
3	19351	12350.882392260721	0
3	19375	12368.624289926936	1
3	19376	12368.960777143305	0
3	19420	12391.232809647799	1
3	19421	12391.558753246088	0
3	19455	12406.952019423708	1
3	19456	12407.57461408566	0
3	19565	12466.204230335822	1
3	19566	12466.514072764585	0
3	19580	12474.051346530168	1
3	19581	12474.580744383377	0
3	19635	12507.994903571411	1
3	19636	12508.029208572257	0
3	19855	12670.956548748613	1
3	19857	12671.189880964721	2
3	19858	12671.376793399446	1
3	19861	12671.782519826984	0
3	19865	12671.930437920113	1
3	19866	12672.670568980642	0
3	19870	12672.960674874679	1
3	19871	12673.484750345994	0
3	19900	12684.462828783392	1
3	19901	12684.973481412261	0
3	19910	12693.085598367029	1
3	19911	12693.304232068968	0
3	19917	12694.087595651698	1
3	19921	12694.783445394787	0
3	19965	12718.599593847463	1
3	19966	12718.743814935811	0
3	20085	12787.846785810394	1
3	20086	12788.608680000853	0
3	20135	12817.631950565209	1
3	20136	12817.688217978391	0
3	20265	12904.698855586841	1
3	20266	12905.437306071863	0
3	20270	12905.926064418405	1
3	20271	12906.181977682	0
3	20315	12918.336366752386	1
3	20316	12918.862508672562	0
3	20325	12919.362216234269	1
3	20327	12919.410023485952	2
3	20333	12920.739583077647	1
3	20336	12921.697625054738	0
3	20355	12925.657324502714	1
3	20356	12926.127508620282	0
3	20380	12951.243820012399	1
3	20381	12951.687885813444	0
3	20415	12963.59393173609	1
3	20416	12963.716484152152	0
3	20455	12981.629604488676	1
3	20456	12982.206720928298	0
3	20515	13016.323751746977	1
3	20516	13016.500275637593	0
3	20550	13034.006792212613	1
3	20552	13034.042043337085	2
3	20563	13036.099516888229	1
3	20574	13037.426580988547	2
3	20578	13038.503845554064	1
3	20581	13039.386087945229	0
3	20630	13083.832970343831	1
3	20631	13084.158291481109	0
3	20642	13088.319244119179	1
3	20646	13088.999932460047	0
3	20705	13142.642953114064	1
3	20706	13143.043081212063	0
3	20780	13209.808283190013	1
3	20782	13210.295945266434	2
3	20789	13210.69517976786	3
3	20790	13211.419621654304	2
3	20793	13211.826852781263	1
3	20796	13212.289752549336	0
3	20800	13212.822396444191	1
3	20801	13213.080544017891	0
3	20805	13213.117982340916	1
3	20806	13213.772318827252	0
3	20810	13214.601558924181	1
3	20811	13214.612777802426	0
3	20840	13218.26667386227	1
3	20841	13218.780195973648	0
3	20850	13226.585655199625	1
3	20851	13226.956759988458	0
3	20870	13260.794466108819	1
3	20871	13261.15618921336	0
3	20885	13264.0557030059	1
3	20886	13264.091980440996	0
3	20925	13282.570931973935	1
3	20926	13282.958007269043	0
3	20935	13283.554786497673	1
3	20936	13284.329052570013	0
3	20970	13300.83549990368	1
3	20971	13301.583486711356	0
3	21060	13383.571629864029	1
3	21061	13384.104321512108	0
3	21105	13407.896877294734	1
3	21106	13408.459026715472	0
3	21115	13409.954852913802	1
3	21116	13410.41598133531	0
3	21150	13441.862749828018	1
3	21151	13441.929372947433	0
3	21225	13487.165898282445	1
3	21226	13487.352593564845	0
3	21270	13515.683522338369	1
3	21271	13516.132516083622	0
3	21280	13519.143532688251	1
3	21281	13519.159160155349	0
3	21340	13544.491461184866	1
3	21341	13545.174423343064	0
3	21405	13593.489807275507	1
3	21406	13593.733001007564	0
3	21419	13594.888039512928	1
3	21436	13597.639304224453	0
3	21475	13614.938293561942	1
3	21476	13615.446086133666	0
3	21480	13615.666889599482	1
3	21481	13615.88546531347	0
3	21600	13675.132905009781	1
3	21601	13675.173615807031	0
3	21635	13710.337896401665	1
3	21636	13710.431399243794	0
3	21675	13759.141488971943	1
3	21676	13759.509321581345	0
3	21755	13822.695833009007	1
3	21759	13822.834302208749	2
3	21763	13823.563065290871	1
3	21772	13824.806762968614	2
3	21773	13824.95369439018	1
3	21776	13825.608251438337	0
3	21815	13840.780041025333	1
3	21816	13840.954987228273	0
3	21870	13859.667695943942	1
[...]
6	38667	25014.544466329186	1.154054471808
6	38675	25022.581711639702	0.864485233463
6	38680	25025.333533208147	0.71332103922
6	38695	25038.755685827098	0.834036164032
6	38702	25046.103588537084	0.81297079795
6	38712	25048.049416132042	1.866217829603
6	38720	25049.326000209679	3.888964332694
6	38730	25059.284518820756	0.971245608618
6	38745	25067.163056379511	0.870232209098
6	38775	25077.197019664095	0.626277491171
6	38790	25083.888539161299	2.621675166422
6	38800	25087.643182907141	0.586686818628
6	38815	25098.369143116	0.984957568376
6	38827	25107.415081465997	0.768093700707
6	38830	25108.147716091534	0.774017891918
6	38837	25108.810434196024	0.654459189996
6	38840	25109.710789859268	0.99381011924
6	38850	25115.363319988586	1.312092840437
6	38855	25118.072633065656	0.959587681899
6	38880	25134.608853474405	2.121233811056
6	38897	25149.095332847312	0.826925515756
6	38900	25149.588691758467	1.044276973523
6	38910	25152.647176496604	0.997274601972
6	38935	25162.775481833875	0.793632385414
6	38985	25190.458908449238	0.538287228392
6	38990	25191.920054722634	0.586197780538
6	39030	25216.052717676658	0.661766680144
6	39105	25257.879440309968	1.4483807948
6	39135	25286.573449315691	0.404487851309
6	39142	25294.154388276242	0.74274805095
6	39145	25294.942162860079	0.893829468651
6	39155	25296.78126805774	0.906278410228
6	39192	25313.659334375345	1.262150399347
6	39210	25330.479515236275	0.934331842698
6	39220	25333.755318422553	1.228814057567
6	39230	25347.324369648909	0.985465672053
6	39235	25349.767245961404	0.660844295984
6	39245	25368.167691736153	2.000622681253
6	39257	25375.263103177383	0.494767900691
6	39282	25384.825444787212	0.618592344457
6	39310	25417.46171677972	0.676571496576
6	39345	25441.581539175165	0.515536789503
6	39360	25469.471854561626	0.688565425156
6	39395	25501.307926122112	0.951218998106
6	39422	25508.639021488674	2.843897501723
6	39430	25510.253328626206	1.371987970068
6	39435	25515.802317230259	0.913394123223
6	39465	25525.270464370075	0.697969061928
6	39490	25557.593210455364	0.966910493084
6	39495	25562.39395156982	0.712487970106
6	39510	25569.337599489081	1.32246710821
6	39537	25588.635518943216	0.601531624896
6	39540	25589.281991342618	1.056130208857
6	39555	25600.739570377128	0.935060645686
6	39580	25619.934878288275	1.200261679408
6	39585	25622.481236820958	0.933663499216
6	39595	25630.721979838083	0.957387478277
6	39600	25633.475791242337	0.511864519166
6	39605	25634.841756660408	0.489385349676
6	39625	25649.152213862218	0.79919152812
6	39670	25681.95426434462	1.61118311675
6	39715	25713.410708940508	0.442903495161
6	39747	25729.68709185024	0.871755870481
6	39752	25730.100203306956	0.596111916139
6	39760	25739.083752725132	0.527796124201
6	39770	25746.069412435063	0.58761655218
6	39785	25753.483724051005	1.850521144601
6	39790	25754.613845555631	0.537098950706
6	39820	25782.002433380498	0.91108766559
6	39835	25797.494367452287	0.517478100164
6	39840	25821.45878278861	0.706536880461
6	39850	25837.29837011085	0.93425102327
6	39855	25838.334107170267	0.807132078335
6	39875	25844.798056006586	1.426637590102
6	39880	25851.29032214408	0.857231762027
6	39890	25860.632468504834	1.132889060838
6	39905	25864.143504843681	1.924525822802
6	39970	25899.849866762094	0.955905925902
6	39977	25901.137654923219	0.821651436761
6	40010	25919.131338841021	2.86033916917
6	40030	25921.656862089805	2.106083366787
6	40090	25947.395020379073	0.77398040113
6	40100	25952.635655843979	0.839902225556
6	40112	25970.787931900294	0.909646316012
6	40115	25971.677143100053	1.379024171059
6	40125	25992.472095156114	0.642976892507
6	40130	26000.568453356536	0.867427302711
6	40135	26006.149648367773	0.462305902969
6	40160	26040.564785787701	0.72364512994
6	40165	26043.784521629085	0.445833680267
6	40185	26064.595156306902	0.424148757011
6	40199	26068.41904370729	1.341485251172
6	40204	26069.23943360001	1.953603622877
6	40222	26071.469287439962	0.416580113024
6	40230	26072.781699487162	0.99482020428
6	40275	26110.070998740633	0.438356649224
6	40285	26112.527710238712	2.026561116049
6	40290	26119.210443315211	0.97080815779
6	40305	26122.297057198651	1.878973411726
6	40325	26138.258347587676	0.56537769828
6	40340	26150.321664126341	0.891315018898
6	40347	26153.321420035929	0.618230433855
6	40350	26154.29697075989	1.547729212034
6	40355	26176.221051135561	0.48122431105
6	40367	26183.041578064512	1.740951871836
6	40392	26190.801039118076	0.789945763058
6	40400	26193.323473372341	0.763150912384
6	40420	26211.573556360676	0.691341029946
6	40425	26218.40587490765	0.556405404722
6	40432	26225.237585537996	0.709723694576
6	40445	26233.354518294294	1.688016865028
6	40490	26271.238002107984	0.661635515653
6	40519	26287.201315457933	0.626039665984
6	40540	26303.963960251301	0.569213542994
6	40560	26325.541057967596	0.740733238822
6	40572	26331.082424219326	1.02205103749
6	40582	26332.439261583311	0.754477409506
6	40592	26336.306433548566	0.97070017443
6	40600	26341.475749507594	0.582101259194
6	40610	26350.282674796195	0.566129388893
6	40615	26353.615624906089	0.949475197215
6	40620	26361.935424726358	0.90119874985
6	40632	26373.95861332261	0.994853920752
6	40640	26379.818777900576	0.8360900681
6	40645	26381.795756483675	0.428032774059
6	40660	26387.720382320959	1.190019160374
6	40675	26396.349843402229	0.569455167698
6	40695	26402.479709637269	2.334607126948
6	40705	26413.402525790522	1.228583240961
6	40710	26425.301883145828	0.455895266123
6	40730	26437.51496925542	1.526210077136
6	40735	26438.485599287295	0.524689541245
6	40780	26461.290488320301	0.788622216647
6	40785	26464.131428395246	0.622951128148
6	40790	26464.891232122167	0.726931852149
6	40800	26467.303212152674	1.519104220525
6	40842	26474.063188289417	0.690135515016
6	40892	26504.456571448244	1.198006165814
6	40900	26514.061622038747	0.749237858923
6	40905	26515.829217265573	0.67128758016
6	40910	26532.807082011239	0.452856170898
6	40927	26541.964411555156	0.648166203219
6	40970	26556.378766519545	0.738672002964
6	40980	26557.722589265285	1.289156285352
6	40985	26559.585068684616	0.71154808579
6	41000	26567.575080977215	0.698469818756
6	41015	26581.933803364638	1.387990918637
6	41020	26583.390618502414	0.555671891943
6	41037	26589.044784338068	0.952649697056
6	41040	26589.828483539302	1.009190402944
6	41050	26598.295289820611	0.433439145191
6	41089	26615.835190196613	0.480097409291
6	41097	26617.151451866141	0.899394131048
6	41107	26618.709507059072	1.252184860206
6	41125	26632.731466045505	0.93970998372
6	41130	26635.176722220367	0.862978468044
6	41145	26641.327520824225	0.965990184852
6	41159	26644.71757154973	0.78544794214
6	41162	26645.244409458253	0.700737258622
6	41185	26661.033383299326	2.421856879102
6	41207	26676.615294637426	0.771219884744
6	41217	26678.243431489791	0.645960006118
6	41227	26680.312115844403	0.829515013238
6	41240	26684.798609155259	0.466086456738
6	41310	26711.707459710944	4.095521831878
6	41320	26714.644039343441	0.747986735962
6	41340	26733.233943177298	1.262713212382
6	41350	26740.729624785316	0.517220437247
6	41360	26745.014860452376	0.411231779866
6	41380	26751.362514335679	2.476536639072
6	41395	26757.420830041094	2.040483047407
6	41410	26765.16221414956	1.290859935714
6	41415	26768.757538287969	0.928633906227
6	41450	26793.169820619806	0.664620661456
6	41455	26796.097447897245	0.603090655617
6	41483	26803.796756105617	1.49745488921
6	41486	26804.745500859505	2.618252451603
6	41502	26807.817890689829	4.588000586903
6	41515	26814.527754664852	0.957037879713
6	41542	26824.304514212701	2.866513648088
6	41565	26843.448522575026	0.606300976221
6	41570	26847.621075120628	0.76750941989
6	41577	26849.546996171789	0.844980625808
6	41592	26852.098496118402	1.044646480088
6	41595	26852.506600074451	2.111804758663
6	41605	26856.773146564605	2.349177564825
6	41610	26857.755014951483	0.857862679334
6	41619	26863.27660424116	0.702040768368
6	41630	26864.868094232502	1.709507800371
6	41635	26869.177628679938	0.403164720116
6	41640	26872.886789563752	0.810287887929
6	41645	26877.584730906725	0.779706923524
6	41655	26881.044447219052	1.263101308185
6	41660	26887.264938140917	0.789928586408
6	41685	26931.943543723556	0.490486212354
6	41702	26935.898930542133	1.104076640642
6	41710	26938.809063977573	0.816777073964
6	41725	26947.98717954739	1.899179667112
6	41747	26964.083793988968	1.615520322277
6	41760	26972.380136601995	0.958818433434
6	41820	27004.353228587255	0.82805055296
6	41850	27009.139698405968	2.200478006514
6	41870	27023.13781798439	0.537153254263
6	41895	27032.69841243854	2.810529561647
6	41900	27036.041578940375	0.522087327158
6	41920	27046.43108418633	0.66158708334
6	41930	27052.335681034305	1.708920978737
6	41940	27086.422602673942	0.497260069055
6	41960	27093.301206985064	2.545656405728
6	41967	27097.323197403983	0.729932808876
6	41977	27099.190674192053	1.643904669489
6	41985	27102.84420427487	0.776412827335
6	41992	27109.920197423619	0.69522704035
6	41995	27110.526104984318	1.117555612872
6	42000	27111.293703812848	0.493655757932
6	42025	27132.153991828864	0.574044915987
6	42035	27149.854948642491	0.440862860903
6	42079	27176.861434152357	0.835143080261
6	42082	27177.565618178116	1.094560197224
6	42105	27185.615953027818	0.606323976442
6	42110	27189.621105935356	0.640607774677
6	42122	27198.84219245095	0.628067973536
6	42125	27199.488656907521	0.708456572985
6	42135	27206.514240018743	0.582326885918
6	42140	27211.800655821279	0.526104697911
6	42150	27220.153915162541	0.493689652951
6	42160	27225.610530815086	0.761971779354
6	42175	27235.340209847315	0.535452490533
6	42210	27259.073680111247	0.5795502658
6	42225	27277.946095544145	0.722565229703
6	42230	27283.311710183632	0.558478417294
6	42235	27284.317671848375	0.564646653133
6	42250	27295.914801107141	0.556893195026
6	42257	27297.287437146765	0.587785584712
6	42260	27297.799107489784	0.758114271967
6	42304	27325.145526325198	0.79816219589
6	42307	27325.90036800132	1.483076473384
6	42310	27326.556378867671	2.729569960432
6	42315	27328.835875398323	0.872628266783
6	42320	27331.079542891096	0.647937950026
6	42327	27335.202682550582	0.833250290062
6	42345	27346.359054366344	2.281977816532
6	42395	27386.237500045978	0.967815780919
6	42400	27388.789316298742	0.42685433575
6	42417	27394.361879317906	0.792628514455
6	42420	27394.979890640011	1.256131369365
6	42440	27412.20497350313	1.469446918381
6	42445	27423.200879755062	0.9543381155
6	42450	27428.811925905057	0.477401411906
6	42460	27443.012756674003	0.564856928401
6	42465	27444.468298223435	0.725462271646
6	42475	27448.540412216876	0.779973614868
6	42500	27457.526732619211	1.922749475192
6	42522	27488.645134096366	1.249467454779
6	42530	27490.02045124239	1.165567047605
6	42535	27490.997097117734	0.583511765581
6	42570	27560.591027799866	0.468769267853
6	42610	27584.537588761567	0.934889255045
6	42615	27589.956075067109	0.54815098918
6	42660	27598.016683507997	1.260141255417
6	42702	27617.450345803277	0.894775700523
6	42710	27624.389830122797	0.486924642371
6	42717	27632.79413009172	0.926022574306
6	42772	27668.166690339284	0.548312064772
6	42780	27673.299451568854	0.452208357351
6	42800	27677.600784572854	2.093909252062
6	42845	27694.295177218897	2.555806774574
6	42852	27700.248093297326	0.937404658599
6	42862	27712.619542601199	0.672476967471
6	42875	27716.852995635646	0.725315906014
6	42905	27730.653833091593	4.08815382826
6	42915	27734.679614633623	0.998853018591
6	42927	27736.415835996556	0.632679683249
6	42930	27737.135489771633	1.01426320018
6	42962	27752.598722557342	0.79592897282
6	42965	27753.511124501136	2.294541569353
6	42970	27761.444545157844	0.8496760034
6	42982	27774.573565679572	0.628114008484
6	43025	27812.70378396212	0.948978382337
6	43050	27823.256124259033	0.5741087812
6	43070	27833.928839218221	0.531891591661
6	43075	27836.3971516844	0.628880165145
6	43085	27838.99710304641	1.991620274813
6	43090	27843.31375390442	0.833534269221
6	43100	27854.413772830126	0.778672323842
6	43105	27856.785483592258	0.45144239557
6	43132	27869.424570528634	1.451625976862
6	43160	27880.650026254674	3.025685680156
6	43165	27884.560379320683	0.63065839624
6	43202	27891.94351566271	3.454359557394
6	43205	27892.822720281035	1.403328357547
6	43210	27894.356291728954	0.443321323534
6	43240	27920.116638767418	1.867477989367
6	43250	27922.794418988355	1.979129892071
6	43280	27942.609890579079	0.406440753583
6	43305	27969.742348353593	0.511348768929
6	43310	27974.802039674267	0.862190191681
6	43320	27980.852287621074	0.513652057946
6	43340	28005.720154866698	0.819995164052
6	43345	28007.645017926059	0.570876511605
6	43365	28028.255540693216	1.081173617965
6	43400	28047.629460482667	0.919698650505
6	43410	28054.151020712329	1.732230305257
6	43430	28071.852975627271	0.761483797245
6	43475	28087.832832444748	1.022797980857
6	43495	28100.899373938972	0.632732504327
6	43520	28142.314436600959	0.582590244897
6	43525	28145.967286790791	0.638923618011
6	43552	28168.679743886065	0.580419213511
6	43565	28173.778691099861	0.949107825663
6	43570	28175.801193026862	0.733778724587
6	43585	28182.116301271195	0.437323193811
6	43600	28192.150135888715	0.748216727842
6	43605	28193.137430210754	0.427104487643
6	43612	28197.875309492538	0.999460169952
6	43615	28198.838353234839	1.378777057447
6	43620	28209.530171764787	0.727405945025
6	43625	28216.508732641906	0.670427104738
6	43630	28222.265137626754	0.99376326222
6	43640	28229.635585860116	0.697444811463
6	43660	28237.571520541756	2.516415430266
6	43694	28259.412407503726	0.75690108221
6	43705	28266.008616403067	0.692120543588
6	43710	28273.119261852654	0.980331944115
6	43735	28299.348543964022	0.51022963929
6	43750	28304.239687455966	0.977177799167
6	43772	28315.966432103444	2.449711679222
6	43787	28330.535158769887	0.962231728528
6	43790	28331.310692796445	1.393842732975
6	43800	28343.488969003457	0.539247684134
6	43820	28352.708755883935	0.5402778544
6	43832	28355.150089785362	0.809517300315
6	43840	28361.295785193958	0.455813030014
6	43845	28362.161576311322	0.552752157673
6	43850	28372.343579494642	0.698259952106
6	43855	28373.734048039677	0.581220028922
6	43892	28412.63126993803	0.845636319742
6	43907	28416.003374764472	0.554253767803
6	43910	28416.90790816132	1.085114399193
6	43927	28422.275204907224	1.249790501
6	43952	28427.357750869148	1.880789082802
6	43960	28428.632736952016	0.615039684158
6	43977	28435.899732647398	1.423048942723
6	44007	28447.701687744498	0.463777911849
6	44025	28457.176695781205	0.661446488369
6	44035	28460.859388936162	1.918589051073
6	44055	28471.114208407916	0.77147097417
6	44065	28482.184074532317	0.661138929101
6	44087	28490.523898056316	2.2668345035
6	44095	28492.244312681258	0.643083382351
6	44115	28501.906421943734	0.596361037483
6	44167	28546.428559974482	0.814848632878
6	44195	28579.45678534719	0.674157749861
6	44210	28585.631260169913	0.653345306054
6	44215	28602.855803414074	0.578011644538
6	44225	28612.660799886952	0.430994438939
6	44242	28619.904764764408	0.874377671104
6	44260	28633.497988042166	0.719625574164
6	44275	28650.786732820827	0.965691222297
6	44285	28658.818523105811	1.421618612591
6	44320	28674.178090487331	1.75761944756
6	44325	28680.91633042551	0.424915879965
6	44345	28692.175395822096	0.4768786998
6	44380	28706.605639487083	1.435440967708
6	44385	28713.219656195087	0.559128112299
6	44395	28719.527210051513	2.171158995924
6	44410	28730.664862760899	0.563023323379
6	44415	28739.616507613763	0.823677140335
6	44420	28743.223218723406	0.513114259951
6	44450	28758.307580179667	0.915254063765
6	44467	28761.405074265962	1.068975815598
6	44475	28766.214692923622	0.760000663763
6	44497	28774.977773013673	0.708840454504
6	44510	28780.279987318551	0.49714984186
6	44520	28785.686550560834	0.880330723803
6	44537	28792.645469454624	1.526392287528
6	44545	28796.607447441421	0.497589558177
6	44575	28818.494844436982	2.97943835182
6	44602	28852.533575494463	0.807324312534
6	44615	28855.711660747828	0.83053471758
6	44630	28869.535906469152	2.874600108475
6	44640	28876.807491974054	0.890228716983
6	44657	28892.779034030002	1.581361886977
6	44660	28893.730294237595	2.540584371238
6	44682	28905.571876677922	0.679718166683
6	44687	28906.21498468379	1.007245952553
6	44695	28907.500863828934	0.734154349741
6	44702	28909.815614967944	0.824304177519
6	44720	28913.62290285401	0.968576826295
6	44725	28919.559244029963	0.720534232957
6	44780	28953.049911024935	2.673737993691
6	44795	28968.52981135187	0.571582123963
6	44800	28971.261721702822	0.581378444238
6	44805	28981.39828603043	0.552076873416
6	44815	28987.136371488095	0.762234046031
6	44835	29005.013212485816	0.409280237416
6	44840	29010.189895621863	0.474178938242
6	44860	29034.386111413905	1.961243883948
6	44865	29038.731410861607	0.984864479769
6	44872	29041.573653971589	0.431006187433
6	44895	29059.277046407791	2.349228834914
6	44922	29066.924536746758	2.001493192265
6	44955	29089.879263883455	2.669971631175
6	44965	29100.798921127732	0.540785643365
6	44975	29105.313603858713	1.318096218899
6	44995	29119.178371918492	0.481909654988
6	45015	29127.736442779861	2.886745515777
6	45055	29155.794775701003	2.085978778544
6	45070	29165.225758612706	0.990006328234
6	45075	29168.911496564756	0.769801527029
6	45082	29175.983702311121	0.959385985229
6	45095	29179.128361971144	3.841331626194
6	45110	29182.747110320591	3.182599594368
6	45147	29197.076127628068	0.941262325319
6	45150	29197.71795544505	1.055996437751
6	45170	29209.792299951385	0.418544915784
6	45250	29251.745181324353	0.597991847526
6	45275	29268.604740965795	0.510722041037
6	45280	29273.442025768864	0.539523621555
6	45285	29284.61887385606	0.549949305132
6	45349	29314.373870301373	2.311514249327
6	45375	29319.198826812912	0.429755220935
6	45380	29326.950680729878	0.458400259633
6	45394	29349.260358884143	0.678608786734
6	45397	29349.679038698137	0.989885845736
6	45405	29350.968053622222	0.720569272854
6	45435	29360.506293744825	4.012157563658
6	45475	29387.824064921855	2.973733525498
6	45492	29401.308465396509	0.866231048387
6	45520	29415.543844883925	0.57101515918
6	45545	29425.037141486658	0.476912083104
6	45620	29468.787144027408	0.812110625114
6	45645	29475.698815566687	0.593335798383
6	45680	29494.408480204552	0.73541316092
6	45692	29501.006002108985	0.506566513469
6	45695	29501.851869657915	0.995982380785
6	45710	29513.784009051905	0.518543162476
6	45732	29529.53671024427	0.712791369576
6	45740	29531.304282731283	0.685912051424
6	45752	29544.894011413909	0.642152366508
6	45809	29577.095680753559	0.678211360172
6	45812	29577.723786989365	0.734174577564
6	45820	29582.473132104829	0.677587905712
6	45840	29611.483672035582	0.470896022953
6	45845	29613.384013088585	0.510545621952
6	45855	29614.943575515468	1.016558905854
6	45875	29636.250849723433	0.402502184594
6	45880	29640.22011471922	0.577742328541
6	45885	29647.412729525434	0.733577473694
6	45890	29648.340883984807	0.738791348413
6	45895	29651.217083246368	0.47881089109
6	45955	29706.339243707061	0.967587583745
6	45965	29709.623921155169	2.546301743302
6	46035	29735.434581488694	2.657267908911
6	46040	29740.488489810794	0.618378165457
6	46070	29753.321428444981	1.303375094232
6	46110	29762.391498160418	3.065315673924
6	46145	29773.944966698563	1.852694982543
6	46150	29783.172740267425	0.887685669214
6	46165	29801.016552876836	0.717971845064
6	46170	29808.366085909845	0.514257281506
6	46185	29817.571691929425	0.726157878246
6	46207	29828.491220343229	0.802846054593
6	46210	29829.389645605418	1.162496766786
6	46240	29856.253370621199	0.430842105392
6	46260	29868.681517293577	0.488559489837
6	46290	29884.335387687899	1.874361851906
6	46295	29887.175502110828	0.915517330961
6	46330	29927.295516091486	0.955161254514
6	46342	29933.56026481275	0.956571422471
6	46369	29975.730758499575	1.021262475598
6	46380	29978.414003055158	1.118132525142
6	46385	29979.437773268732	0.504288354516
6	46405	29983.697997738797	1.095661018313
6	46417	29988.189209117263	0.411938665435
6	46440	29995.685315994631	2.74247162249
6	46450	29997.502653634573	0.952507474942
6	46455	29998.903291282882	0.803391486127

