version 2
run First_exit_2-8-20191023-00:19:39-5099
attr configname First_exit_2
attr datetime 20191023-00:19:39
attr experiment First_exit_2
attr inifile omnetpp.ini
attr iterationvars ""
attr iterationvarsf ""
attr measurement ""
attr network ResponseTimeNetwork
attr processid 5099
attr repetition 8
attr replication #8
attr resultdir results
attr runnumber 8
attr seedset 8
param **.Source.interArrivalTime exponential(4s)
param **.jobPriority bernoulli(0.4)
param **.PS.serviceTimeU1 "uniform(0.4s, 1.0s)"
param **.PS.serviceTimeU2 "uniform(1s, 1.2s)"
param **.SS1.serviceTime exponential(0.4s)
param **.SS2.serviceTime exponential(0.8s)
param **.PS.exitProbability bernoulli(0.2)

vector 0 ResponseTimeNetwork.SS1 queueLength:vector ETV
attr interpolationmode sample-hold
attr title "queue length, vector"
vector 1 ResponseTimeNetwork.SS2 queueLength:vector ETV
attr interpolationmode sample-hold
attr title "queue length, vector"
vector 2 ResponseTimeNetwork.QueueU1 queueLength:vector ETV
attr interpolationmode sample-hold
attr title "queue length, vector"
vector 3 ResponseTimeNetwork.QueueU2 queueLength:vector ETV
attr interpolationmode sample-hold
attr title "queue length, vector"
vector 4 ResponseTimeNetwork.sink lifeTimeU2:vector ETV
attr interpolationmode none
attr title "lifetime of arrived jobs U2, vector"
attr unit s
vector 5 ResponseTimeNetwork.sink lifeTime:vector ETV
attr interpolationmode none
attr title "lifetime of arrived jobs, vector"
attr unit s
vector 6 ResponseTimeNetwork.sink lifeTimeU1:vector ETV
attr interpolationmode none
attr title "lifetime of arrived jobs U1, vector"
attr unit s
0	0	0	0
0	14040	8756.08042316382	1
0	14044	8756.891989608757	0
0	20297	12554.150735054159	1
0	20299	12554.63435826672	0
1	0	0	0
1	760	444.678689956137	1
1	761	445.87717025506	0
1	2757	1714.442611107721	1
1	2761	1715.152197786102	0
1	3060	1868.402476190808	1
1	3061	1869.21072764075	0
1	4000	2421.843054389017	1
1	4001	2422.226508176699	0
1	6020	3722.618691516224	1
1	6021	3722.649776830715	0
1	6140	3769.36660021053	1
1	6141	3769.463382430702	0
1	7795	4845.126596714404	1
1	7796	4845.795037164847	0
1	9362	5815.614120565826	1
1	9364	5816.210746387259	0
1	11415	7146.102779143191	1
1	11421	7147.112570474418	0
1	14174	8817.155520507477	1
1	14179	8818.092287803416	0
1	14187	8819.680132620752	1
1	14196	8822.50686751904	0
1	14221	8825.240537425589	1
1	14223	8825.449687971466	0
1	14620	9073.142321330107	1
1	14621	9075.37450277678	0
1	18342	11294.166097340793	1
1	18344	11294.346048692771	0
1	18349	11295.146300269258	1
1	18351	11295.228442703743	0
1	18475	11352.652371737136	1
1	18481	11353.943863842523	0
1	18486	11353.971039277228	1
1	18488	11354.285912226303	0
1	18695	11525.075120224738	1
1	18696	11525.456136710067	0
1	18702	11526.258723349367	1
1	18706	11527.530984666161	0
1	20890	12939.404323381942	1
1	20891	12939.574004404477	0
1	21650	13466.34936245168	1
1	21651	13468.105138806228	0
1	25295	15804.331264976417	1
1	25301	15805.630052569429	0
1	26665	16743.005440124638	1
1	26666	16743.459002073389	0
1	27289	17162.859695337252	1
1	27305	17166.863621555653	2
1	27306	17167.654967070527	1
1	27314	17169.135751096972	0
1	28155	17731.260450410581	1
1	28156	17731.562485591633	0
1	28160	17732.292267282059	1
1	28161	17733.155927703481	0
1	28920	18250.217422614862	1
1	28921	18250.392156916457	0
1	30675	19374.400760432317	1
1	30676	19374.593568755305	0
1	34000	21653.230934654851	1
1	34001	21653.581653929421	0
1	34009	21654.413359960973	1
1	34011	21654.920451070165	0
1	38922	24797.033088408004	1
1	38926	24799.58878671917	0
1	40390	25745.750540638463	1
1	40391	25745.900076143944	0
1	40406	25747.272762787237	1
1	40414	25748.538537472361	0
1	42140	26780.591801132534	1
1	42141	26782.057070033623	0
1	42295	26855.831162539056	1
1	42296	26856.080942813128	0
1	42310	26857.70538164812	1
1	42322	26859.339748668654	2
1	42324	26859.360519712384	1
1	42331	26860.156423456652	0
1	42334	26860.357605230513	1
1	42336	26860.394406795874	0
2	0	0	0
2	5	8.312526862358	1
2	6	8.811483945509	0
2	45	40.488311072212	1
2	46	40.574090139117	0
2	55	42.112816659495	1
2	56	42.262353719059	0
2	80	53.058039510598	1
2	81	53.138519604352	0
2	110	67.324329437453	1
2	113	67.542438938301	0
2	255	148.716337690842	1
2	256	149.529292010062	0
2	360	203.367363049388	1
2	361	203.903140950239	0
2	365	204.13765933717	1
2	366	204.650357595076	0
2	470	254.555376421402	1
2	471	254.787230158557	0
2	495	283.866810882197	1
2	496	284.627259190363	0
2	545	308.71076714354	1
2	546	309.250090130358	0
2	820	484.173401865472	1
2	822	484.62140164203	2
2	823	484.811284641792	1
2	826	485.808253462856	0
2	927	564.766922279435	1
2	928	565.244066847689	0
2	935	566.360023684779	1
2	936	566.766791913067	0
2	960	595.338147882401	1
2	961	596.062470136679	0
2	990	621.085566589836	1
2	991	621.539799268043	0
2	1100	682.938252858149	1
2	1101	683.356485330865	0
2	1140	719.059015994313	1
2	1141	719.206952795704	0
2	1155	729.01663220905	1
2	1156	729.401396240443	0
2	1365	829.496596296072	1
2	1366	830.149203631036	0
2	1430	871.796870788811	1
2	1431	871.829061929633	0
2	1450	892.073934210075	1
2	1451	892.518793341291	0
2	1462	893.402496715367	1
2	1463	893.866512744228	0
2	1555	947.231636421332	1
2	1556	947.300321631525	0
2	1580	968.458236050089	1
2	1581	968.62755843496	0
2	1600	983.892758769753	1
2	1601	983.95387091606	0
2	1640	1014.236235830973	1
2	1641	1014.694419368428	0
2	1685	1048.668699506748	1
2	1687	1048.966934308972	2
2	1688	1048.996048177141	1
2	1693	1049.482599624354	0
2	1697	1049.705159352554	1
2	1698	1050.351273146752	0
2	1885	1149.694968047627	1
2	1886	1150.510578359369	0
2	1900	1154.057395101901	1
2	1901	1154.220389681579	0
2	2000	1243.532069741301	1
2	2001	1244.096674102175	0
2	2005	1244.181475605852	1
2	2007	1244.407799509631	2
2	2008	1244.818046683169	1
2	2011	1245.646002828379	0
2	2015	1246.396515588945	1
2	2016	1246.479274003769	0
2	2020	1246.888970873632	1
2	2021	1246.892909412414	0
2	2027	1247.666448440332	1
2	2028	1247.763776719013	0
2	2265	1408.248419284812	1
2	2266	1408.44210558596	0
2	2290	1415.100276334439	1
2	2291	1415.996694046312	0
2	2345	1436.828265535774	1
2	2346	1437.224610877987	0
2	2419	1511.494529854622	1
2	2420	1511.854442669687	0
2	2460	1536.635368418259	1
2	2461	1536.861586739231	0
2	2505	1553.760878551177	1
2	2506	1554.130337202404	0
2	2585	1606.602827928178	1
2	2586	1606.765891463264	0
2	2755	1713.896372739635	1
2	2756	1714.442611107721	0
2	2810	1738.815707105987	1
2	2811	1739.323595059668	0
2	2850	1756.349270069994	1
2	2851	1756.697692404048	0
2	2865	1759.762752479741	1
2	2866	1759.987301536229	0
2	3030	1855.183433489446	1
2	3031	1855.601145922359	0
2	3087	1874.988765865214	1
2	3088	1875.245935958067	0
2	3095	1875.95438778292	1
2	3097	1876.128952551649	2
2	3098	1876.502357401142	1
2	3101	1877.270321241023	0
2	3135	1896.267556040099	1
2	3136	1896.621501479057	0
2	3165	1914.664889106306	1
2	3166	1914.917517279702	0
2	3195	1924.24635605065	1
2	3198	1924.714704775687	0
2	3300	2025.111090982265	1
2	3301	2025.243323324213	0
2	3415	2094.982797275717	1
2	3416	2095.268811787833	0
2	3440	2108.793266094364	1
2	3441	2108.851885334065	0
2	3540	2162.792483329133	1
2	3541	2162.905531293164	0
2	3580	2184.405287255522	1
2	3581	2184.887020343451	0
2	3635	2217.497328234002	1
2	3637	2217.499263198623	2
2	3638	2217.660701464309	1
2	3641	2218.324962237158	0
2	3680	2240.755016751002	1
2	3681	2240.848722694373	0
2	3685	2241.448673761995	1
2	3686	2241.532144730749	0
2	3755	2280.957035517784	1
2	3756	2281.759436094968	0
2	3825	2312.26423340841	1
2	3826	2312.552602243535	0
2	3857	2347.909169990404	1
2	3858	2347.979995761285	0
2	3875	2357.534948884632	1
2	3876	2357.821791876379	0
2	3880	2358.051922128161	1
2	3881	2358.362629127401	0
2	3935	2401.728591493245	1
2	3936	2401.881711914481	0
2	3975	2418.692578398426	1
2	3978	2419.127676160395	0
2	3990	2420.514858921274	1
2	3991	2420.650794746722	0
2	4055	2449.654988847422	1
2	4056	2450.27020522651	0
2	4085	2465.622895540103	1
2	4086	2465.760061961638	0
2	4165	2514.767989844255	1
2	4166	2515.544735826307	0
2	4337	2629.161499528993	1
2	4338	2629.295060181616	0
2	4490	2718.550893058822	1
2	4491	2718.866721461192	0
2	4755	2921.339002511328	1
2	4756	2921.356426470801	0
2	4775	2926.758980561517	1
2	4776	2927.224049395459	0
2	4915	3022.635860617506	1
2	4918	3022.891635800872	0
2	4922	3023.200439238193	1
2	4923	3023.335803591434	0
2	4927	3023.782738948309	1
2	4928	3023.955456068946	0
2	4980	3041.591582201684	1
2	4981	3041.745736722847	0
2	4995	3043.96465208667	1
2	4996	3044.186907694323	0
2	5000	3044.535929113254	1
2	5001	3044.954500411471	0
2	5005	3045.004855244934	1
2	5006	3045.481088290058	0
2	5010	3046.322260606688	1
2	5011	3046.451934736662	0
2	5075	3098.243029493538	1
2	5076	3098.728316529456	0
2	5240	3180.518510011789	1
2	5241	3180.583022890286	0
2	5250	3181.60453674286	1
2	5251	3182.487824595969	0
2	5285	3188.992020343444	1
2	5286	3189.198088536897	0
2	5290	3189.937924180239	1
2	5291	3190.116893981184	0
2	5305	3193.236717429195	1
2	5306	3193.477048574809	0
2	5390	3286.310432230733	1
2	5391	3286.982533555346	0
2	5405	3289.248748197453	1
2	5406	3289.370235323939	0
2	5410	3289.754186212264	1
2	5411	3289.953318446675	0
2	5545	3404.089786014883	1
2	5546	3404.44449774895	0
2	5555	3405.149920781771	1
2	5558	3405.380229340932	0
2	5579	3408.377935769476	1
2	5580	3408.58985606881	0
2	5589	3409.068618927244	1
2	5592	3409.805102449536	0
2	5950	3664.569462160067	1
2	5951	3664.953029386581	0
2	6030	3724.080173748692	1
2	6031	3724.482830925849	0
2	6110	3762.138555864662	1
2	6111	3762.310839978546	0
2	6115	3762.792295786532	1
2	6117	3762.923866512132	2
2	6118	3763.046948302664	1
2	6121	3763.580122271586	0
2	6190	3789.122744005784	1
2	6191	3789.487897241234	0
2	6235	3819.570172827053	1
2	6236	3819.772143604199	0
2	6255	3828.643167211378	1
2	6256	3828.747155753878	0
2	6340	3885.664586503463	1
2	6341	3885.697658291168	0
2	6490	3968.847693981675	1
2	6491	3969.203653198933	0
2	6550	4026.0763664599	1
2	6553	4026.763997319979	0
2	6755	4158.714281438444	1
2	6756	4158.795238619123	0
2	6890	4232.692750832878	1
2	6891	4232.726189061796	0
2	6895	4233.092801210498	1
2	6896	4233.142493860313	0
2	6900	4233.289234845719	1
2	6901	4233.841138907365	0
2	6935	4257.830438243356	1
2	6936	4258.34000265343	0
2	6970	4273.037027188097	1
2	6971	4273.190335890014	0
2	7120	4392.537695460378	1
2	7121	4392.864458610383	0
2	7195	4435.662925701949	1
2	7196	4436.098355031693	0
2	7310	4522.798356879855	1
2	7313	4523.279545047205	0
2	7370	4555.338529235357	1
2	7371	4555.478587164511	0
2	7550	4673.26855958257	1
2	7551	4673.31875556493	0
2	7625	4730.177273715164	1
2	7626	4731.01547985139	0
2	7720	4809.919415760724	1
2	7721	4809.998740886809	0
2	7830	4855.025717611603	1
2	7831	4855.607620410966	0
2	7905	4884.560313617635	1
2	7906	4884.989304076454	0
2	8057	4986.740917440549	1
2	8058	4987.105301035987	0
2	8242	5077.127967136414	1
2	8243	5077.636173201905	0
2	8340	5126.425119173377	1
2	8341	5126.891590341668	0
2	8350	5127.690588991375	1
2	8351	5128.558813720545	0
2	8480	5236.763608030187	1
2	8481	5236.802377255859	0
2	8525	5291.461528105661	1
2	8526	5291.860628446277	0
2	8555	5305.090303784651	1
2	8556	5305.865915713976	0
2	8560	5306.222262513026	1
2	8561	5306.78074388863	0
2	8580	5309.830725762467	1
2	8581	5310.636274487986	0
2	8585	5311.404834460899	1
2	8586	5311.619680815278	0
2	8610	5318.116301815431	1
2	8611	5318.789170331561	0
2	8625	5320.919305030301	1
2	8626	5321.699600285533	0
2	8745	5380.233002171638	1
2	8747	5380.569205092503	2
2	8748	5380.670377954837	1
2	8751	5381.338632950835	0
2	8775	5391.571020183034	1
2	8776	5391.73529298998	0
2	8785	5392.848392130497	1
2	8786	5393.329914023375	0
2	8965	5557.254340853037	1
2	8966	5558.023203168437	0
2	9040	5596.460790762348	1
2	9041	5596.618760133239	0
2	9080	5624.157158070986	1
2	9082	5624.273062774414	2
2	9085	5625.034678289113	1
2	9088	5625.804759540367	0
2	9145	5652.250211797901	1
2	9146	5652.820883242746	0
2	9310	5795.817738704057	1
2	9311	5796.109077063619	0
2	9350	5814.522805486988	1
2	9351	5814.63505966012	0
2	9360	5815.438601406543	1
2	9361	5815.614120565826	0
2	9430	5861.639362715671	1
2	9433	5862.256378850833	0
2	9442	5863.080268875761	1
2	9443	5863.373898709312	0
2	9450	5864.143096079551	1
2	9451	5864.489739453819	0
2	9485	5895.320376323464	1
2	9486	5895.875530619861	0
2	9525	5911.097280484782	1
2	9526	5911.861221339451	0
2	9745	6081.387208025327	1
2	9746	6081.563084332659	0
2	9887	6166.416122921653	1
2	9889	6166.465613223089	2
2	9890	6166.532409475007	1
2	9893	6167.399372195507	0
2	9905	6170.457890086158	1
2	9906	6170.703861219676	0
2	9910	6170.861465087554	1
2	9911	6171.111027375849	0
2	10015	6254.818003547566	1
2	10016	6255.219790061935	0
2	10085	6339.752298535935	1
2	10086	6339.924105512022	0
2	10090	6340.163527568915	1
2	10091	6340.590171216099	0
2	10095	6340.6753653183	1
2	10096	6341.141548318366	0
2	10110	6345.054280665831	1
2	10111	6345.295049216497	0
2	10115	6345.639935007521	1
2	10118	6346.182608409916	0
2	10200	6388.976582484555	1
2	10201	6389.261737625673	0
2	10210	6389.921826560758	1
2	10211	6390.266676786821	0
2	10215	6390.295375864967	1
2	10216	6390.671704123122	0
2	10220	6391.048614587612	1
2	10221	6391.118869356717	0
2	10370	6489.973526610082	1
2	10371	6490.807058656488	0
2	10450	6564.28363142782	1
2	10451	6564.392490369663	0
2	10470	6566.931837164745	1
2	10471	6567.583948453864	0
2	10520	6595.810950589685	1
2	10521	6596.497890816596	0
2	10630	6682.395347440726	1
2	10631	6682.982079203261	0
2	10640	6685.737478974238	1
2	10641	6686.592652380357	0
2	10645	6687.10299419321	1
2	10646	6687.483883438569	0
2	10655	6688.838507459533	1
2	10656	6688.977415044328	0
2	10770	6769.721203124187	1
2	10771	6769.79484624046	0
2	10875	6834.359657226872	1
2	10876	6834.40911109537	0
2	10885	6835.477288796794	1
2	10886	6836.008188007503	0
2	10975	6874.135854410229	1
2	10976	6874.514974816528	0
2	11010	6894.693336495404	1
2	11011	6895.066401811028	0
2	11045	6911.238426402531	1
2	11046	6911.625070130578	0
2	11060	6916.763658905861	1
2	11061	6917.507700787243	0
2	11195	7037.533463817646	1
2	11196	7038.30375152567	0
2	11235	7049.44216044585	1
2	11236	7049.474443317277	0
2	11240	7049.710292783749	1
2	11241	7050.144001571953	0
2	11370	7130.827117075926	1
2	11371	7131.324388497876	0
2	11400	7136.736989625187	1
2	11401	7137.064508791413	0
2	11465	7178.447527981669	1
2	11467	7178.573974500725	2
2	11470	7178.876872578886	1
2	11473	7179.864271441213	0
2	11655	7290.522129507672	1
2	11656	7291.100878251138	0
2	11710	7342.040651372242	1
2	11711	7342.234438996565	0
2	11720	7343.695097904754	1
2	11721	7343.96707900587	0
2	11765	7365.900619051351	1
2	11766	7366.321359394834	0
2	11950	7500.176619161336	1
2	11951	7500.241155350414	0
2	11985	7518.486783184589	1
2	11986	7518.6259811003	0
2	12229	7693.476754496784	1
2	12230	7693.953246491896	0
2	12245	7695.646031187952	1
2	12246	7696.347383714355	0
2	12380	7747.279724929228	1
2	12381	7747.839932032339	0
2	12392	7748.968840382756	1
2	12393	7749.362055706084	0
2	12492	7823.543237731028	1
2	12493	7823.967392824138	0
2	12585	7870.813607647803	1
2	12586	7870.876232647689	0
2	12615	7904.769408305796	1
2	12616	7905.199244118599	0
2	12680	7955.257966592337	1
2	12681	7955.889813809097	0
2	12730	7999.054112187286	1
2	12731	7999.911398816268	0
2	12735	8000.343349458678	1
2	12736	8000.678730948149	0
2	12920	8128.884847462885	1
2	12923	8129.476647026781	0
2	13030	8205.610463419474	1
2	13031	8205.886696003762	0
2	13095	8234.492530695208	1
2	13096	8234.700127483974	0
2	13175	8291.186363163846	1
2	13176	8292.010750949199	0
2	13270	8353.775778239747	1
2	13271	8353.813999469161	0
2	13280	8354.368350769956	1
2	13283	8354.788867270669	0
2	13315	8364.11906233659	1
2	13316	8364.151812662681	0
2	13340	8374.266069923117	1
2	13341	8374.845710947423	0
2	13385	8409.461587482361	1
2	13386	8409.575110059888	0
2	13395	8410.646552938025	1
2	13396	8411.170098588388	0
2	13405	8412.510125972335	1
2	13406	8413.40277804736	0
2	13420	8425.519747790448	1
2	13421	8425.606090254305	0
2	13645	8525.562490584842	1
2	13646	8526.043914598147	0
2	13665	8537.030115286066	1
2	13666	8537.155515568349	0
2	13745	8579.679224519476	1
2	13746	8580.202602731484	0
2	13750	8580.455376781017	1
2	13751	8581.018482224458	0
2	13755	8581.06563727494	1
2	13756	8581.485863283045	0
2	13775	8584.035973573995	1
2	13776	8584.698195340262	0
2	13945	8711.114090989243	1
2	13946	8711.313134971321	0
2	14025	8749.343283283573	1
2	14026	8749.752263019706	0
2	14035	8755.346250983826	1
2	14036	8755.653661630686	0
2	14045	8756.891989608757	1
2	14046	8756.982905054447	0
2	14050	8757.131365684334	1
2	14051	8757.583088454633	0
2	14055	8757.628354360676	1
2	14056	8758.417163758381	0
2	14157	8815.19651771453	1
2	14158	8815.303369436663	0
2	14170	8816.753856570171	1
2	14173	8817.155520507477	0
2	14185	8819.35444852728	1
2	14186	8819.680132620752	0
2	14202	8822.920675244616	1
2	14205	8823.293092662741	0
2	14217	8824.746376066004	1
2	14219	8824.883333459491	2
2	14220	8825.240537425589	1
2	14227	8826.157789528875	0
2	14231	8826.261770034311	1
2	14232	8827.087667571048	0
2	14280	8850.632492143385	1
2	14281	8850.643415122113	0
2	14320	8897.780755432888	1
2	14321	8897.894694420629	0
2	14415	8972.113116780596	1
2	14416	8972.526302982178	0
2	14425	8973.94342230739	1
2	14426	8974.069975634357	0
2	14430	8974.134437606258	1
2	14431	8974.868503476465	0
2	14515	9010.621523308661	1
2	14518	9010.861399102965	0
2	14855	9248.472388602836	1
2	14856	9248.877615369389	0
2	15015	9347.606731929809	1
2	15018	9348.432721078766	0
2	15037	9352.34571371242	1
2	15038	9352.550503567471	0
2	15085	9380.174526568141	1
2	15086	9380.480746188391	0
2	15147	9417.816234307661	1
2	15148	9417.878381439204	0
2	15152	9417.957813513476	1
2	15153	9418.291107550635	0
2	15265	9488.254985276609	1
2	15266	9488.571483057337	0
2	15340	9528.793695776393	1
2	15342	9528.862635708569	2
2	15343	9529.172281298978	1
2	15346	9529.66964808391	0
2	15370	9538.335515565879	1
2	15371	9538.668469777438	0
2	15520	9691.162896729583	1
2	15521	9691.586403996146	0
2	15630	9748.60283153762	1
2	15631	9749.237949028493	0
2	15640	9750.797285299027	1
2	15641	9751.29179380411	0
2	15690	9763.711691469666	1
2	15691	9764.205786553466	0
2	15720	9778.851336854292	1
2	15721	9779.058922846098	0
2	15765	9799.380497017433	1
2	15766	9799.611775098029	0
2	15815	9815.840456864449	1
2	15816	9816.607338758048	0
2	15847	9838.922049819428	1
2	15848	9839.396334746253	0
2	15885	9860.002274554536	1
2	15886	9860.5377606739	0
2	15895	9861.809027609749	1
2	15896	9862.425573573944	0
2	15965	9900.863448690944	1
2	15966	9900.973406145357	0
2	15995	9919.705627090905	1
2	15996	9919.961840556536	0
2	16270	10048.071970969808	1
2	16271	10048.173662552342	0
2	16365	10085.214755544072	1
2	16366	10085.51798032514	0
2	16382	10090.460297345906	1
2	16383	10090.631818383011	0
2	16435	10148.633473204802	1
2	16437	10148.981488822886	2
2	16438	10149.259684450428	1
2	16443	10149.875878705147	0
2	16530	10193.899924746598	1
2	16533	10194.384868968896	0
2	16570	10226.141239548717	1
2	16571	10226.291242267813	0
2	16575	10226.71969094205	1
2	16576	10227.250344935635	0
2	16595	10242.779678248412	1
2	16596	10242.903962282199	0
2	16685	10309.374914988933	1
2	16687	10309.589189249249	2
2	16688	10309.756539069808	1
2	16691	10310.744994945026	0
2	16715	10317.301864505236	1
2	16716	10317.53278933028	0
2	16765	10343.868010958113	1
2	16766	10344.418047320951	0
2	16815	10378.997399808859	1
2	16816	10379.070930846353	0
2	16820	10379.825555091212	1
2	16821	10380.014501937983	0
2	16825	10380.252351409944	1
2	16826	10380.510023839205	0
2	16910	10451.176842251576	1
2	16911	10451.660736357304	0
2	16950	10483.964585629054	1
2	16951	10484.317352100948	0
2	17010	10527.460087928926	1
2	17011	10528.016552305582	0
2	17270	10685.593269353099	1
2	17271	10685.622096599719	0
2	17295	10699.763462720897	1
2	17296	10700.026424329383	0
2	17300	10700.134070608587	1
2	17301	10700.649881687183	0
2	17330	10723.005126395999	1
2	17331	10723.243111215171	0
2	17385	10754.408726157429	1
2	17386	10755.016376866306	0
2	17400	10762.241794212586	1
2	17401	10762.969622108239	0
2	17445	10773.254581427555	1
2	17446	10773.304168919342	0
2	17475	10787.367148866077	1
2	17476	10787.497254718084	0
2	17485	10789.383978587092	1
2	17486	10789.584391351114	0
2	17535	10821.808941460233	1
2	17536	10821.867591060657	0
2	17775	10950.643100571374	1
2	17776	10951.195828613309	0
2	17880	11005.04102224308	1
2	17881	11005.42362134476	0
2	17925	11044.737101535728	1
2	17926	11044.774273047609	0
2	17930	11044.948285088156	1
2	17931	11045.30489506788	0
2	17940	11046.878192971623	1
2	17941	11047.292261452132	0
2	17950	11048.585944827211	1
2	17951	11049.016031069679	0
2	17970	11069.27002237323	1
2	17971	11069.523647183223	0
2	17995	11074.77967996657	1
2	17996	11075.542309425005	0
2	18040	11103.660460732194	1
2	18041	11103.988490885647	0
2	18050	11106.008177861028	1
2	18051	11106.059939067022	0
2	18084	11125.956785993747	1
2	18085	11126.271429247431	0
2	18120	11153.616857827886	1
2	18121	11154.031881905037	0
2	18155	11163.632831107929	1
2	18156	11164.339469554026	0
2	18165	11172.28064618342	1
2	18166	11172.971068992552	0
2	18210	11221.853537168844	1
2	18211	11221.86766796666	0
2	18252	11241.308223453713	1
2	18253	11241.792702181002	0
2	18320	11291.298275154677	1
2	18321	11291.745302433807	0
2	18422	11336.501210202752	1
2	18423	11336.627585920518	0
2	18440	11339.529820314595	1
2	18441	11339.748951741451	0
2	18445	11340.357151267196	1
2	18446	11340.741334683032	0
2	18460	11349.792876097578	1
2	18461	11350.135655113178	0
2	18480	11353.559739636492	1
2	18485	11353.971039277228	0
2	18515	11364.237650897914	1
2	18516	11365.034045856463	0
2	18650	11488.066307404785	1
2	18651	11488.649302740264	0
2	18665	11494.522248158271	1
2	18666	11495.064400822007	0
2	18715	11528.048914128052	1
2	18716	11528.865986395729	0
2	18825	11590.047544880197	1
2	18826	11590.49816777893	0
2	18910	11619.793669962108	1
2	18911	11620.368260867615	0
2	18915	11620.914210346224	1
2	18916	11621.325239333045	0
2	19050	11684.578609184198	1
2	19053	11685.250164355702	0
2	19155	11742.06555324705	1
2	19156	11742.096141851622	0
2	19200	11756.852067927142	1
2	19203	11757.156943722727	0
2	19240	11785.389008179924	1
2	19241	11786.225291920477	0
2	19290	11836.142926043507	1
2	19291	11836.945099853518	0
2	19320	11859.292905979567	1
2	19321	11859.629021834277	0
2	19380	11890.993589710387	1
2	19381	11891.229497597687	0
2	19420	11914.638714765006	1
2	19421	11914.941314800444	0
2	19437	11919.65951926465	1
2	19438	11920.071460568438	0
2	19490	11952.456453885303	1
2	19491	11952.461162779436	0
2	19525	11991.330183812751	1
2	19526	11991.471800508631	0
2	19705	12129.114066948952	1
2	19706	12129.529823616047	0
2	19715	12130.594119807542	1
2	19716	12130.882963461655	0
2	19817	12210.2336404289	1
2	19818	12210.478646612064	0
2	19830	12212.654445435054	1
2	19831	12212.701897779888	0
2	19980	12342.453996001058	1
2	19981	12342.576573059128	0
2	20117	12454.386948513776	1
2	20118	12454.392329436214	0
2	20124	12455.114739527241	1
2	20125	12455.204693087795	0
2	20230	12512.57739154698	1
2	20231	12512.781052896094	0
2	20280	12550.969454123571	1
2	20283	12551.51299458816	0
2	20287	12552.106988819272	1
2	20288	12552.31704557584	0
2	20292	12552.408941115266	1
2	20293	12553.272692559467	0
2	20300	12554.63435826672	1
2	20301	12554.899909072875	0
2	20305	12554.977385835155	1
2	20306	12555.666915547562	0
2	20317	12561.145350564987	1
2	20318	12561.44173879967	0
2	20360	12579.240321230875	1
2	20361	12579.389435576443	0
2	20395	12604.036834742455	1
2	20396	12604.499769387552	0
2	20410	12613.866233184539	1
2	20411	12613.937734958243	0
2	20415	12614.016647873046	1
2	20416	12614.461548744554	0
2	20440	12643.224502999664	1
2	20443	12643.327619103424	0
2	20447	12643.360647339439	1
2	20450	12644.026698812645	0
2	20490	12675.639219607622	1
2	20491	12676.2214294345	0
2	20545	12716.010706702339	1
2	20546	12716.485395229168	0
2	20605	12745.831069513592	1
2	20606	12746.432561708376	0
2	20670	12792.898418545345	1
2	20671	12793.098373269978	0
2	20720	12820.553025850944	1
2	20721	12820.96223577671	0
2	20745	12837.165705630365	1
2	20746	12837.627215717169	0
2	20950	12978.951092075413	1
2	20951	12979.438511866027	0
2	21030	13036.080119898947	1
2	21031	13036.439544988705	0
2	21150	13118.606164136525	1
2	21151	13118.840070255501	0
2	21160	13120.363012328586	1
2	21161	13121.299106080139	0
2	21195	13140.803817183391	1
2	21196	13141.01896746697	0
2	21340	13262.766123629506	1
2	21341	13263.326435371023	0
2	21395	13284.953464862695	1
2	21396	13285.374651947479	0
2	21405	13302.644961630335	1
2	21406	13302.913266140973	0
2	21510	13358.610324260178	1
2	21511	13359.11968427172	0
2	21525	13381.80856526918	1
2	21526	13381.928767732236	0
2	21765	13513.747542163218	1
2	21766	13513.876966234463	0
2	21830	13557.982273800274	1
2	21831	13558.391609006141	0
2	21845	13562.96034098461	1
2	21846	13563.595447109326	0
2	21852	13563.709106534165	1
2	21853	13564.160090191349	0
2	21857	13564.22147668855	1
2	21858	13564.933913649724	0
2	21865	13566.014278741501	1
2	21866	13566.439203403344	0
2	22035	13691.462516071302	1
2	22036	13691.655975149143	0
2	22040	13691.908097534175	1
2	22041	13692.328691191123	0
2	22045	13692.754986206982	1
2	22046	13693.086850891252	0
2	22100	13718.544819506621	1
2	22101	13719.023234905342	0
2	22120	13725.140321718955	1
2	22121	13725.85696377995	0
2	22160	13742.68171690563	1
2	22161	13743.056676732697	0
2	22215	13767.515350604328	1
2	22216	13768.076331040945	0
2	22255	13830.873958507036	1
2	22256	13831.588960778436	0
2	22320	13876.948111761791	1
2	22321	13877.172332783148	0
2	22355	13901.990132808219	1
2	22356	13902.176921258156	0
2	22385	13908.677002503804	1
2	22386	13908.782090001444	0
2	22455	13977.128261769039	1
2	22456	13977.397519714722	0
2	22540	14044.833901285465	1
2	22541	14045.422231018457	0
2	22630	14123.795391680563	1
2	22631	14123.808096867121	0
2	22685	14176.181149748301	1
2	22686	14176.51448341407	0
2	22695	14178.35607119226	1
2	22698	14178.904070852763	0
2	22730	14187.781459029663	1
2	22731	14188.088137839011	0
2	22850	14240.858657519917	1
2	22851	14241.791615066442	0
2	22945	14291.283120833402	1
2	22946	14291.553001470754	0
2	23030	14342.838886036629	1
2	23031	14343.491812655962	0
2	23215	14519.545126008665	1
2	23216	14519.588515242943	0
2	23230	14528.212040451796	1
2	23231	14528.27519612248	0
2	23360	14608.950564150603	1
2	23361	14609.355621861059	0
2	23455	14647.184629988366	1
2	23456	14647.81425649556	0
2	23542	14694.067512512029	1
2	23544	14694.188197077028	2
2	23545	14694.599220127305	1
2	23548	14695.246665027663	0
2	23645	14737.743769544158	1
2	23646	14738.100008600893	0
2	23675	14744.902323806346	1
2	23676	14745.229906520656	0
2	23760	14793.992314235675	1
2	23763	14794.592525896578	0
2	23965	14964.185799679978	1
2	23966	14964.333954125971	0
2	24020	14992.057306325368	1
2	24021	14992.560544702599	0
2	24025	14992.851428557242	1
2	24026	14993.122924985506	0
2	24152	15092.29622568976	1
2	24153	15092.355315993102	0
2	24200	15114.082421857849	1
2	24201	15114.186640555648	0
2	24220	15125.336838047838	1
2	24221	15125.831190054032	0
2	24275	15168.901182631287	1
2	24276	15169.326447488358	0
2	24340	15221.826727642574	1
2	24341	15221.903209071856	0
2	24375	15229.953250964777	1
2	24376	15230.641595999166	0
2	24420	15262.723488416082	1
2	24421	15263.665344479183	0
2	24455	15280.452591298907	1
2	24456	15280.889023346797	0
2	24460	15281.049971504442	1
2	24461	15281.84868395293	0
2	24490	15288.977388015373	1
2	24491	15289.247014387945	0
2	24585	15351.625080142901	1
2	24586	15352.037181699045	0
2	24640	15392.88877881278	1
2	24641	15393.05880589887	0
2	24675	15420.391614845741	1
2	24676	15420.667280256026	0
2	24770	15481.323293854704	1
2	24771	15482.233097836295	0
2	24880	15534.680025878005	1
2	24881	15535.045298813589	0
2	24885	15535.135563611422	1
2	24886	15535.502384111032	0
2	25020	15636.930297279123	1
2	25021	15637.044857443531	0
2	25045	15646.14949113974	1
2	25046	15646.497968483047	0
2	25205	15748.896481232714	1
2	25206	15749.734329667963	0
2	25220	15755.26773383261	1
2	25222	15755.56404890757	2
2	25223	15755.840224840097	1
2	25226	15756.72473944102	0
2	25330	15814.197263820179	1
2	25331	15814.739845550778	0
2	25375	15839.917163135808	1
2	25376	15840.851865952071	0
2	25570	15978.572027442393	1
2	25571	15979.311335726421	0
2	25610	16016.197570435408	1
2	25611	16016.314669511225	0
2	25660	16056.075569446547	1
2	25661	16056.238316929582	0
2	25785	16151.345076789708	1
2	25786	16151.709238475422	0
2	25910	16228.426947828489	1
2	25911	16228.991799103509	0
2	25924	16229.930590825196	1
2	25925	16230.315726744192	0
2	25975	16265.471691429325	1
2	25976	16266.288230347407	0
2	25980	16266.355855977854	1
2	25981	16266.979791653908	0
2	25990	16272.967786983355	1
2	25991	16273.10251117384	0
2	26020	16293.915556681973	1
2	26021	16294.165257435492	0
2	26135	16386.568326076907	1
2	26136	16386.955262392349	0
2	26140	16387.750962684398	1
2	26141	16387.797465336052	0
2	26180	16417.755250980133	1
2	26181	16418.314805212264	0
2	26220	16442.610727744097	1
2	26221	16442.93345205335	0
2	26350	16518.648878018977	1
2	26351	16518.906347899884	0
2	26550	16692.6594341413	1
2	26551	16692.925739569763	0
2	26560	16697.189733205039	1
2	26561	16697.478805854839	0
2	26585	16711.115216687849	1
2	26586	16711.710400246364	0
2	26625	16736.857656816262	1
2	26626	16737.161788456935	0
2	26630	16737.503596404687	1
2	26631	16737.575921653818	0
2	26635	16737.7386179179	1
2	26638	16738.286726431178	0
2	26642	16738.912893077035	1
2	26643	16739.007736880846	0
2	26650	16739.776908909801	1
2	26653	16740.620957698302	0
2	26685	16749.87360572659	1
2	26686	16750.520893356847	0
2	27020	16995.06896818178	1
2	27021	16995.411347133796	0
2	27075	17037.436196992007	1
2	27076	17037.599721464497	0
2	27105	17049.362528673075	1
2	27106	17049.846644571419	0
2	27125	17052.812533603365	1
2	27126	17052.920250145708	0
2	27195	17081.495533192676	1
2	27196	17081.960059362262	0
2	27285	17161.925686645625	1
2	27288	17162.859695337252	0
2	27490	17330.28971003428	1
2	27491	17330.890572920932	0
2	27520	17348.643724924533	1
2	27521	17349.139679335419	0
2	27545	17356.224905657015	1
2	27546	17356.30910099525	0
2	27585	17372.668934447636	1
2	27586	17373.535790743786	0
2	27747	17454.792218991444	1
2	27749	17454.862951171696	2
2	27750	17455.668264558007	1
2	27755	17456.646950036081	0
2	27759	17457.204944081065	1
2	27760	17457.403267312449	0
2	27767	17458.251419590296	1
2	27768	17458.908538796034	0
2	27805	17478.593296651398	1
2	27806	17479.195738478944	0
2	27925	17571.070038389264	1
2	27928	17571.652232348538	0
2	27945	17574.656539670221	1
2	27946	17574.676145592804	0
2	27960	17580.98338748849	1
2	27961	17581.700860633728	0
2	27985	17604.831415045495	1
2	27986	17604.996367495374	0
2	28000	17624.779550214661	1
2	28001	17625.309938925542	0
2	28045	17662.602973508914	1
2	28046	17662.989665436025	0
2	28125	17714.774708466481	1
2	28126	17714.84632480265	0
2	28215	17794.124162465451	1
2	28216	17794.790448880494	0
2	28225	17796.402246077669	1
2	28226	17796.68358184604	0
2	28377	17920.581858606799	1
2	28378	17921.494755195677	0
2	28385	17922.162239089228	1
2	28386	17922.82523380219	0
2	28790	18187.179049881962	1
2	28791	18187.263285450419	0
2	28810	18191.514256943921	1
2	28813	18192.035435464343	0
2	28845	18218.168449456898	1
2	28846	18218.558347906312	0
2	29020	18297.383078576247	1
2	29021	18297.410677537648	0
2	29045	18315.945043090382	1
2	29046	18316.540395646451	0
2	29105	18343.254542679918	1
2	29107	18343.289212452352	2
2	29108	18343.757562410939	1
2	29111	18344.475424918826	0
2	29140	18369.833622678862	1
2	29141	18370.253969453143	0
2	29160	18378.833640494872	1
2	29161	18379.245824152738	0
2	29170	18382.21364188731	1
2	29171	18382.886712788061	0
2	29245	18434.353604910628	1
2	29246	18434.777936297691	0
2	29280	18447.108696057256	1
2	29282	18447.161011670867	2
2	29283	18447.580947127554	1
2	29286	18448.044180105056	0
2	29352	18490.696640901237	1
2	29353	18490.957266478294	0
2	29630	18703.603106437281	1
2	29631	18704.062236622262	0
2	29665	18712.12255028026	1
2	29666	18712.251199123019	0
2	29685	18734.496852208634	1
2	29688	18735.049334296332	0
2	29730	18748.363930867727	1
2	29731	18748.752333684588	0
2	29965	18925.615876956103	1
2	29966	18925.681607828378	0
2	30045	18978.990816257475	1
2	30046	18979.769340661401	0
2	30130	19070.172371260119	1
2	30131	19070.202946294681	0
2	30140	19071.085724477236	1
2	30143	19071.691107247094	0
2	30335	19205.911761871236	1
2	30336	19206.128865758581	0
2	30350	19218.050887773963	1
2	30351	19218.420272339733	0
2	30425	19267.371169114997	1
2	30426	19267.42042430134	0
2	30440	19269.36943217645	1
2	30441	19269.541227892901	0
2	30490	19288.226828155997	1
2	30491	19288.413964392225	0
2	30570	19323.646257551353	1
2	30571	19324.506670624911	0
2	30580	19325.622960551486	1
2	30581	19326.452550788093	0
2	30685	19375.864029525531	1
2	30686	19376.229444274218	0
2	30900	19604.224038087178	1
2	30901	19604.466181077495	0
2	31030	19677.994056296525	1
2	31031	19678.259105679873	0
2	31055	19685.705682847184	1
2	31058	19686.495795599307	0
2	31145	19721.172214385877	1
2	31146	19721.594294586047	0
2	31200	19797.329077633508	1
2	31201	19797.918483653593	0
2	31215	19799.543830370488	1
2	31216	19799.898771752112	0
2	31365	19934.48771311039	1
2	31367	19934.715259300292	2
2	31368	19934.750250553882	1
2	31371	19935.215662692797	0
2	31405	19953.393663610741	1
2	31406	19953.845338234546	0
2	31460	19977.976895794564	1
2	31461	19978.587972731335	0
2	31505	19992.560346180683	1
2	31506	19992.657731381358	0
2	31545	20015.519474941879	1
2	31546	20015.610363864824	0
2	31550	20016.089607889912	1
2	31551	20016.410091181723	0
2	31615	20066.692338446953	1
2	31616	20067.282756299148	0
2	31710	20111.674859400127	1
2	31711	20111.772271181458	0
2	31815	20160.462703784594	1
2	31816	20160.579067427994	0
2	31830	20173.559557353422	1
2	31831	20173.877010635842	0
2	31850	20190.409877795292	1
2	31851	20190.457589084917	0
2	31880	20211.607667150742	1
2	31881	20211.981649313704	0
2	31955	20277.256196767665	1
2	31956	20277.459139232117	0
2	31965	20283.193119239705	1
2	31967	20283.432886576438	2
2	31968	20283.861165072739	1
2	31971	20284.539124790037	0
2	32005	20325.249760969608	1
2	32006	20325.708816621729	0
2	32015	20332.252112251453	1
2	32016	20332.616234960359	0
2	32065	20371.923548917738	1
2	32066	20372.248986847667	0
2	32115	20391.053206318887	1
2	32116	20391.367391194724	0
2	32190	20459.925654247223	1
2	32191	20460.760412205321	0
2	32200	20461.899017270722	1
2	32201	20462.565954227908	0
2	32210	20463.766217385962	1
2	32211	20464.364504380208	0
2	32230	20471.115074580607	1
2	32231	20471.313397049327	0
2	32240	20472.661369068643	1
2	32241	20472.998680100945	0
2	32270	20495.986312410474	1
2	32271	20496.502195517955	0
2	32375	20585.667996746037	1
2	32376	20585.94470384743	0
2	32735	20791.543085994916	1
2	32736	20792.010670155775	0
2	32770	20816.04534679211	1
2	32771	20816.596549368306	0
2	32895	20890.918611392655	1
2	32896	20891.293834685929	0
2	32900	20891.521718653123	1
2	32901	20891.75534431606	0
2	32957	20925.815493474861	1
2	32958	20925.978816502609	0
2	32980	20950.600079696622	1
2	32981	20950.612063115946	0
2	32985	20950.942727144094	1
2	32986	20951.554526321002	0
2	33080	21016.200415224665	1
2	33083	21016.876484656857	0
2	33225	21142.040014478079	1
2	33226	21142.705993983136	0
2	33230	21142.904706321922	1
2	33231	21143.135812423598	0
2	33235	21143.291466383787	1
2	33236	21143.586450732719	0
2	33295	21163.366700135512	1
2	33296	21164.027268663325	0
2	33360	21223.918278867131	1
2	33363	21224.412081025311	0
2	33370	21225.732057873636	1
2	33371	21226.168963128937	0
2	33485	21334.946571054311	1
2	33486	21335.318202194173	0
2	33590	21400.995117124168	1
2	33591	21401.743824916138	0
2	33670	21467.394502614314	1
2	33671	21467.602408889335	0
2	33687	21473.467858825023	1
2	33688	21473.643735606741	0
2	33705	21488.983014148161	1
2	33707	21489.410630016722	2
2	33708	21489.442782980973	1
2	33713	21489.983825182799	0
2	33717	21490.201145115639	1
2	33720	21490.57119902887	0
2	33724	21490.653650219051	1
2	33725	21491.196805263987	0
2	33732	21492.081755709499	1
2	33733	21492.437334092964	0
2	33772	21506.969584488298	1
2	33773	21507.267795389857	0
2	33840	21571.102166361355	1
2	33842	21571.688991060213	2
2	33843	21571.758859125028	1
2	33848	21572.385953129937	0
2	34007	21654.199169589484	1
2	34008	21654.413359960973	0
2	34080	21697.696049633959	1
2	34081	21698.009342729911	0
2	34090	21699.397227338429	1
2	34091	21699.811280933547	0
2	34135	21716.256214952471	1
2	34138	21716.657261298618	0
2	34170	21740.942193794234	1
2	34171	21741.284484020344	0
2	34325	21826.841159855761	1
2	34326	21827.321887648933	0
2	34385	21851.303158187972	1
2	34386	21851.69960891842	0
2	34402	21855.5849853225	1
2	34403	21855.895090654392	0
2	34435	21870.573938161261	1
2	34436	21871.122597834297	0
2	34450	21874.489656130779	1
2	34451	21874.626192366945	0
2	34535	21936.679683352284	1
2	34536	21936.916198692455	0
2	34605	22010.67486364607	1
2	34606	22011.441954636496	0
2	34660	22050.581430964672	1
2	34661	22050.817878859058	0
2	34715	22097.799482475347	1
2	34716	22098.006907401346	0
2	34735	22118.304954727023	1
2	34736	22118.541371980368	0
2	34745	22119.665030078957	1
2	34746	22120.334683583237	0
2	34805	22194.960381910026	1
2	34806	22195.112044353824	0
2	34820	22200.060148618299	1
2	34823	22200.745866827318	0
2	34832	22201.352724835795	1
2	34833	22202.079455413693	0
2	34855	22214.772892243957	1
2	34856	22214.917662640256	0
2	34865	22215.699359574347	1
2	34866	22216.106556570264	0
2	34875	22216.635847484486	1
2	34876	22217.596657624121	0
2	34880	22217.708144141711	1
2	34881	22218.528061791954	0
2	34910	22249.061320657496	1
2	34911	22249.075667493519	0
2	34915	22249.304462370137	1
2	34916	22249.4837024781	0
2	34970	22284.101263565146	1
2	34971	22284.443428066967	0
2	34990	22291.817465464996	1
2	34991	22292.219564199554	0
2	35150	22378.366560273055	1
2	35151	22378.859774864128	0
2	35185	22387.180900161962	1
2	35186	22387.737001393733	0
2	35215	22408.817239823759	1
2	35216	22408.967873458817	0
2	35225	22410.370701678764	1
2	35226	22410.673471733901	0
2	35480	22627.731073912879	1
2	35481	22628.454128244307	0
2	35525	22658.39240366095	1
2	35526	22658.524700793679	0
2	35555	22687.531850617233	1
2	35556	22687.803088559692	0
2	35670	22751.395269095691	1
2	35673	22751.938542527583	0
2	35700	22766.840966328451	1
2	35701	22767.544889260933	0
2	35825	22844.081013639617	1
2	35826	22844.119229707612	0
2	35870	22876.201959830967	1
2	35871	22876.625195520403	0
2	35920	22907.975340847079	1
2	35921	22908.145763122594	0
2	35940	22919.826364575267	1
2	35941	22920.548568318409	0
2	35955	22923.660561844363	1
2	35956	22923.89287389595	0
2	36060	22993.54375804579	1
2	36063	22994.360505068573	0
2	36105	23014.205200517716	1
2	36106	23014.932799436102	0
2	36110	23014.940446142747	1
2	36111	23015.867119265437	0
2	36260	23132.363351041883	1
2	36262	23132.618042232006	2
2	36263	23132.988489568179	1
2	36266	23133.930840773686	0
2	36270	23134.192064816473	1
2	36271	23134.362804103215	0
2	36350	23188.661213425288	1
2	36351	23189.184656913896	0
2	36430	23244.163811776435	1
2	36431	23244.358577898284	0
2	36435	23244.37104280426	1
2	36436	23244.810901101259	0
2	36440	23245.058628066219	1
2	36441	23245.601957859843	0
2	36455	23252.383897699996	1
2	36456	23252.729122387577	0
2	36460	23253.614228195861	1
2	36461	23253.644532054808	0
2	36595	23328.700576610675	1
2	36596	23329.02509249729	0
2	36605	23333.63592410169	1
2	36606	23333.946864945544	0
2	36625	23339.493341908077	1
2	36626	23339.78930102298	0
2	36745	23450.814025040589	1
2	36746	23451.443583118771	0
2	36750	23451.57331219077	1
2	36753	23452.428936642916	0
2	36757	23452.720566774101	1
2	36758	23453.279290153734	0
2	36770	23457.888836391213	1
2	36771	23458.447754856741	0
2	36795	23478.564526666509	1
2	36796	23478.652212087726	0
2	36800	23478.673942831226	1
2	36801	23479.209120562402	0
2	36805	23479.267326892991	1
2	36807	23479.357245976763	2
2	36808	23479.781115710511	1
2	36811	23480.296131489155	0
2	36840	23501.067450744075	1
2	36841	23501.123398528786	0
2	36890	23573.577555889339	1
2	36891	23573.663042702001	0
2	36905	23576.046389848423	1
2	36906	23576.788910535444	0
2	36940	23608.102653792727	1
2	36941	23608.411439124884	0
2	36980	23624.568099256529	1
2	36981	23624.643240411079	0
2	36995	23633.122032941645	1
2	36996	23633.293589654157	0
2	37045	23675.113033387397	1
2	37046	23676.041040777933	0
2	37055	23677.138935420214	1
2	37056	23677.283541197615	0
2	37065	23678.459406753053	1
2	37066	23678.774078681651	0
2	37120	23694.755761242781	1
2	37121	23695.323892744516	0
2	37170	23730.297370539808	1
2	37171	23731.01145167291	0
2	37195	23734.703852690309	1
2	37196	23734.867678884714	0
2	37265	23797.67238224361	1
2	37266	23798.047556594952	0
2	37375	23875.417461224128	1
2	37376	23875.855161677719	0
2	37475	23967.20620254595	1
2	37476	23967.370542999762	0
2	37500	23975.390811938659	1
2	37501	23975.596080487274	0
2	37520	23980.274667738169	1
2	37525	23980.577444352133	0
2	37529	23980.941915395794	1
2	37530	23981.061593385942	0
2	37534	23981.447239596796	1
2	37535	23981.563580032967	0
2	37539	23981.584571993846	1
2	37541	23981.622796321647	2
2	37542	23982.132897620246	1
2	37545	23982.594652005721	0
2	37549	23983.048406247638	1
2	37550	23983.208489625918	0
2	37554	23983.980294234999	1
2	37555	23984.130122824822	0
2	37559	23984.147399232126	1
2	37561	23984.635853543539	2
2	37563	23984.678581068586	3
2	37564	23985.044765600998	2
2	37567	23985.583234552544	1
2	37570	23986.038735955691	0
2	37585	23996.886327611946	1
2	37586	23997.031572884422	0
2	37605	24003.594294327438	1
2	37606	24004.265179781004	0
2	37640	24033.490323656524	1
2	37641	24033.587127899207	0
2	37710	24069.885257440594	1
2	37711	24070.383763227597	0
2	37740	24080.699082672018	1
2	37741	24080.97204638519	0
2	37895	24173.046994453108	1
2	37896	24173.250660834706	0
2	37922	24206.445068017807	1
2	37923	24206.541598081354	0
2	37935	24208.669975106518	1
2	37936	24208.826097121996	0
2	37975	24226.696136008176	1
2	37977	24227.100804201455	2
2	37978	24227.283561029408	1
2	37981	24227.919929197647	0
2	38095	24306.135910903799	1
2	38098	24306.903074489067	0
2	38140	24321.39235715487	1
2	38141	24321.917282682337	0
2	38150	24322.767037214617	1
2	38151	24323.508777167281	0
2	38295	24429.074508984761	1
2	38296	24429.537708653838	0
2	38345	24457.883311174981	1
2	38346	24458.544061866839	0
2	38440	24519.00411009333	1
2	38441	24519.846708399229	0
2	38507	24563.18391834002	1
2	38508	24563.426278252823	0
2	38565	24629.207572025725	1
2	38566	24629.221217664722	0
2	38635	24664.369972474176	1
2	38636	24664.652283336889	0
2	38740	24725.066319126298	1
2	38743	24725.375240123491	0
2	38770	24737.914961425462	1
2	38772	24738.199871225997	2
2	38773	24738.444337179454	1
2	38776	24738.967444047926	0
2	38800	24750.483647485052	1
2	38801	24751.042216978476	0
2	38810	24756.862422510399	1
2	38811	24757.028968791339	0
2	38842	24781.89649659481	1
2	38843	24782.091031451865	0
2	38875	24788.326582144835	1
2	38876	24788.386107273396	0
2	39025	24906.316829751503	1
2	39026	24906.620701020123	0
2	39140	24973.015007537081	1
2	39141	24973.376822357441	0
2	39155	24980.094308746762	1
2	39156	24980.114606041163	0
2	39290	25067.346566152896	1
2	39291	25067.425720558073	0
2	39295	25067.800841066017	1
2	39296	25068.33384021352	0
2	39345	25093.573948445685	1
2	39346	25093.60521843544	0
2	39360	25100.085594767617	1
2	39361	25100.318256424281	0
2	39370	25102.828961447416	1
2	39371	25102.861600853104	0
2	39440	25147.722901799305	1
2	39441	25147.921022572483	0
2	39450	25148.902296495572	1
2	39451	25149.409226928067	0
2	39480	25163.123287565191	1
2	39481	25163.852050228504	0
2	39515	25174.772133408789	1
2	39516	25174.81390397013	0
2	39625	25243.409245991134	1
2	39626	25243.601842847362	0
2	39665	25287.174712180648	1
2	39666	25287.318113268907	0
2	39845	25411.035543307769	1
2	39846	25411.261628554029	0
2	40075	25532.213747617175	1
2	40076	25532.835174796999	0
2	40085	25534.355391101249	1
2	40086	25534.441402813416	0
2	40230	25634.213234203527	1
2	40231	25634.426445407392	0
2	40340	25731.593917013553	1
2	40341	25732.081284666161	0
2	40402	25746.811604386757	1
2	40404	25747.171544329228	2
2	40405	25747.272762787237	1
2	40408	25747.962665935501	0
2	40457	25761.216517609909	1
2	40458	25761.475870183841	0
2	40525	25795.341567755758	1
2	40526	25795.522603817164	0
2	40535	25796.428474193905	1
2	40537	25796.891096782413	2
2	40538	25797.238750215177	1
2	40543	25797.748054611799	0
2	40547	25797.912402981885	1
2	40548	25798.538711381354	0
2	40570	25817.30293723829	1
2	40571	25818.059392818023	0
2	40585	25832.572432887881	1
2	40586	25833.039222133672	0
2	40635	25874.577481290984	1
2	40636	25874.935582766641	0
2	40685	25910.935458434618	1
2	40686	25911.393150513089	0
2	40690	25911.478669304115	1
2	40691	25912.177932372345	0
2	40795	25959.355877719671	1
2	40796	25959.36609918864	0
2	40802	25959.650442675348	1
2	40803	25959.96059512666	0
2	40810	25960.988236220038	1
2	40811	25961.285538298474	0
2	40850	25995.298984549331	1
2	40851	25995.331887192969	0
2	40925	26053.94044327774	1
2	40926	26054.43257510386	0
2	40935	26056.669957572208	1
2	40936	26057.169320438397	0
2	41045	26104.267214272584	1
2	41048	26104.650101033899	0
2	41057	26105.511378073087	1
2	41058	26106.014988019153	0
2	41260	26214.670377014255	1
2	41262	26214.714726236395	2
2	41263	26215.386307818415	1
2	41266	26216.175517495135	0
2	41280	26221.329705834281	1
2	41282	26221.483136065955	2
2	41283	26221.566008155918	1
2	41288	26222.242007522922	0
2	41325	26292.096752683443	1
2	41326	26292.857435347283	0
2	41382	26321.336669784917	1
2	41383	26321.502118912045	0
2	41390	26322.761840044171	1
2	41391	26323.133501437664	0
2	41435	26335.33673649554	1
2	41436	26335.569871611171	0
2	41505	26407.763144665298	1
2	41506	26408.10546540282	0
2	41580	26460.250097970451	1
2	41581	26460.31485927775	0
2	41590	26461.691022016692	1
2	41591	26462.258058536559	0
2	41715	26522.481230590822	1
2	41716	26522.849260162908	0
2	41790	26566.276176665449	1
2	41791	26566.664489893983	0
2	41905	26647.438727861136	1
2	41906	26647.475977291919	0
2	41910	26647.575843340274	1
2	41913	26648.093860931376	0
2	41920	26649.094875377046	1
2	41921	26649.441725265801	0
2	42095	26763.885008511358	1
2	42098	26764.209202924379	0
2	42110	26765.899293570608	1
2	42111	26766.34360263204	0
2	42165	26794.066503074932	1
2	42166	26794.281895914914	0
2	42180	26801.432352822183	1
2	42181	26801.545564026688	0
2	42230	26825.183018129601	1
2	42231	26825.572262955147	0
2	42255	26840.675811743568	1
2	42256	26841.446395210532	0
2	42260	26841.684368506687	1
2	42261	26842.033734477201	0
2	42270	26851.600570897102	1
2	42271	26852.249954444336	0
2	42320	26858.72988541441	1
2	42321	26859.339748668654	0
2	42330	26860.091725109862	1
2	42333	26860.357605230513	0
2	42517	26965.495511753775	1
2	42518	26965.689079624314	0
2	42585	27016.552665758852	1
2	42586	27017.245389195142	0
2	42695	27105.733678786994	1
2	42696	27106.367637387888	0
2	42755	27138.482378325194	1
2	42756	27138.980529434076	0
2	42985	27311.83139429151	1
2	42986	27311.9045632236	0
2	43140	27418.633680849346	1
2	43141	27418.722195120073	0
2	43150	27420.580142513598	1
2	43151	27421.168029934809	0
2	43195	27488.433948621541	1
2	43196	27488.821386032377	0
2	43260	27539.080500189773	1
2	43261	27539.302910641187	0
2	43310	27570.372870620288	1
2	43311	27571.135362832664	0
2	43385	27638.392924287118	1
2	43386	27638.663582763854	0
2	43400	27640.372034403453	1
2	43403	27640.582215106769	0
2	43430	27657.022282111549	1
2	43431	27657.677504354938	0
2	43455	27662.285989333999	1
2	43456	27663.139372698979	0
2	43590	27770.405278911408	1
2	43591	27770.474030228708	0
2	43640	27808.640810566159	1
2	43641	27809.188618973302	0
2	43647	27809.834547669658	1
2	43648	27809.998278723922	0
2	43652	27810.141144289556	1
2	43653	27810.777616382562	0
2	43660	27811.750776970122	1
2	43661	27811.941711750892	0
2	43690	27822.619565410328	1
2	43691	27822.6885699393	0
2	43705	27824.32883943532	1
2	43706	27824.932138908336	0
2	43740	27844.340670641529	1
2	43741	27844.390182756504	0
2	43905	27951.551852746436	1
2	43906	27951.625533324905	0
2	43955	27977.60705563232	1
2	43956	27978.347342137932	0
2	43980	27989.569583291604	1
2	43981	27989.963172263009	0
2	44020	28027.057297754504	1
2	44021	28027.658441213266	0
2	44030	28029.365311192335	1
2	44031	28029.847407368407	0
2	44035	28029.883441739619	1
2	44036	28030.543042606883	0
2	44055	28039.67914621045	1
2	44056	28039.990592529954	0
2	44060	28040.481534348624	1
2	44061	28040.871032638432	0
2	44125	28068.477515459619	1
2	44126	28068.546077728067	0
2	44135	28069.942900188277	1
2	44136	28069.975205872982	0
2	44170	28090.362528500368	1
2	44171	28090.962078846754	0
2	44335	28247.083143156873	1
2	44336	28247.437356069889	0
2	44435	28314.863408025536	1
2	44436	28315.399922643328	0
2	44575	28405.410281589373	1
2	44576	28406.028921144303	0
2	44715	28498.201579937397	1
2	44716	28498.69132806333	0
2	44800	28555.916975985176	1
2	44801	28556.154321637734	0
2	44840	28624.310397778858	1
2	44842	28624.519281390725	2
2	44843	28624.865226331187	1
2	44846	28625.836451969223	0
2	44915	28661.819015920092	1
2	44916	28662.336507823437	0
2	45140	28821.304603929013	1
2	45141	28822.037342800167	0
2	45205	28846.709842683406	1
2	45206	28846.938011168973	0
2	45360	28959.708391985531	1
2	45361	28960.155903924702	0
2	45550	29109.810561622443	1
2	45551	29110.57207207409	0
2	45780	29263.614508765158	1
2	45781	29263.853839335145	0
2	45825	29294.473212169769	1
2	45826	29294.730668715813	0
2	45835	29295.52958766939	1
2	45838	29296.269166059798	0
2	45845	29297.452348326162	1
2	45848	29298.003221705143	0
2	45885	29323.623388783057	1
2	45886	29323.738671424313	0
2	46010	29400.340671356158	1
2	46012	29400.419478714925	2
2	46013	29400.768490643588	1
2	46016	29401.691529642579	0
2	46105	29461.751814062	1
2	46106	29461.936323735555	0
2	46115	29464.132829407537	1
2	46116	29464.219313405956	0
2	46210	29550.801098059445	1
2	46211	29551.014557608658	0
2	46235	29554.516278855645	1
2	46236	29554.821993068671	0
2	46245	29556.284263739763	1
2	46246	29556.488247505219	0
2	46255	29563.675138136372	1
2	46256	29564.233592053723	0
2	46410	29679.622392933057	1
2	46411	29679.880727361515	0
2	46415	29679.886353390316	1
2	46416	29680.398763357662	0
2	46490	29724.862904523727	1
2	46491	29725.512664624581	0
2	46500	29727.499758647406	1
2	46501	29728.268268311972	0
2	46510	29729.06687827869	1
2	46511	29729.183664461661	0
2	46655	29794.010014914404	1
2	46656	29794.332623475196	0
2	46665	29795.546339313875	1
2	46666	29795.595301769127	0
2	46700	29817.10987580262	1
2	46701	29817.352575795325	0
2	46715	29826.982472790725	1
2	46716	29827.466251230978	0
2	46730	29837.090214421904	1
2	46731	29837.188989323852	0
2	46740	29838.461119143828	1
2	46741	29839.252011211215	0
2	46747	29839.723308215102	1
2	46748	29840.063596297007	0
2	46787	29868.689757177872	1
2	46788	29869.13123110442	0
2	46792	29869.318716828949	1
2	46793	29869.859627530282	0
2	46970	29971.359089646973	1
2	46971	29972.20731354581	0
3	0	0	0
3	30	33.314093847565	1
3	31	33.501255974007	0
3	40	39.12355754999	1
3	41	39.649200602962	0
3	112	67.454455928809	1
3	116	68.078285404965	0
3	250	148.644697759904	1
3	251	148.656142050831	0
3	260	150.087140498418	1
3	261	150.481111532834	0
3	350	200.585231068348	1
3	351	200.770547926305	0
3	385	216.763490810647	1
3	386	217.056137782133	0
3	465	253.563741175056	1
3	466	254.155264180532	0
3	575	322.587212901775	1
3	576	323.002390392333	0
3	650	385.787347690126	1
3	651	386.225866751505	0
3	720	422.03089863363	1
3	721	422.064439128367	0
3	765	446.091842222377	1
3	766	446.482833902097	0
3	915	552.233731485816	1
3	916	552.473276181942	0
3	925	564.45716683852	1
3	931	565.842320145215	0
3	975	610.991535918577	1
3	976	611.618133873656	0
3	1020	651.926292699038	1
3	1021	652.490161391943	0
3	1075	676.932849424681	1
3	1076	677.37725961422	0
3	1085	680.542395168501	1
3	1086	680.748950259568	0
3	1125	702.096954100577	1
3	1126	702.453227053054	0
3	1165	730.591130974738	1
3	1167	730.754700762761	2
3	1168	730.863654962866	1
3	1171	731.627231891346	0
3	1180	734.438826289527	1
3	1181	734.55424707704	0
3	1200	756.859974656181	1
3	1201	756.921503018581	0
3	1235	770.451568888697	1
3	1236	771.297516678708	0
3	1240	772.233985526166	1
3	1241	772.24362367421	0
3	1245	772.5562814172	1
3	1246	773.051103606416	0
3	1250	773.392568099628	1
3	1251	773.470203096993	0
3	1305	801.788115195745	1
3	1306	802.282076037801	0
3	1345	822.714466836613	1
3	1346	823.322514545588	0
3	1360	828.730283391821	1
3	1361	829.351286625989	0
3	1425	870.687346547634	1
3	1426	871.122176321627	0
3	1455	893.019381901055	1
3	1457	893.312211288467	2
3	1458	893.315717481688	1
3	1466	894.313591386337	0
3	1610	988.924042180872	1
3	1611	989.090305055958	0
3	1660	1025.852152056883	1
3	1661	1025.958525936369	0
3	1692	1049.107576960564	1
3	1702	1050.557942774227	2
3	1703	1051.337763476852	1
3	1706	1052.024897742193	0
3	1720	1061.518392513496	1
3	1721	1062.24691094212	0
3	1745	1076.114283053977	1
3	1746	1076.700527218779	0
3	1810	1112.773070621513	1
3	1811	1112.8783682526	0
3	1840	1124.590674453193	1
3	1841	1125.360098109132	0
3	1880	1149.15398695915	1
3	1881	1149.673934588194	0
3	1890	1150.771470490983	1
3	1891	1151.262430581948	0
3	2025	1247.032544232057	1
3	2031	1248.304873798836	0
3	2050	1253.722909394251	1
3	2051	1253.736464026318	0
3	2065	1278.336284867525	1
3	2066	1278.519636494664	0
3	2130	1313.500048419045	1
3	2131	1313.787824120001	0
3	2190	1350.206835402499	1
3	2191	1350.246084550072	0
3	2210	1364.369888818731	1
3	2211	1364.757886122801	0
3	2260	1407.278089355454	1
3	2261	1407.92148894865	0
3	2285	1414.701827398295	1
3	2286	1415.04931891943	0
3	2315	1430.69168921642	1
3	2317	1431.282722410104	2
3	2318	1431.329656355157	1
3	2321	1431.771989596616	0
3	2330	1434.010018588154	1
3	2331	1434.539252574113	0
3	2350	1437.740365848816	1
3	2351	1438.172154179094	0
3	2415	1511.020337955088	1
3	2417	1511.280899057857	2
3	2423	1512.40041754721	1
3	2426	1512.868963120648	0
3	2450	1535.195263477141	1
3	2451	1535.564508251069	0
3	2455	1535.893644569176	1
3	2456	1536.417175917761	0
3	2485	1545.150913460433	1
3	2486	1545.539727877483	0
3	2490	1545.575428153268	1
3	2491	1546.43453841571	0
3	2495	1546.621728194996	1
3	2496	1547.376723770734	0
3	2555	1587.786272854318	1
3	2556	1588.08786509269	0
3	2615	1631.244863302322	1
3	2616	1631.488400670349	0
3	2660	1670.022026776136	1
3	2661	1670.308735304016	0
3	2685	1678.071686569952	1
3	2686	1678.569513505378	0
3	2695	1680.110976798363	1
3	2696	1680.322992855846	0
3	2705	1681.612951865158	1
3	2706	1682.13058748534	0
3	2730	1704.066560409257	1
3	2731	1704.312195950954	0
3	2745	1712.440335851223	1
3	2746	1712.655975584571	0
3	2750	1713.012973200417	1
3	2751	1713.485723588035	0
3	2785	1722.146253993725	1
3	2786	1722.557687844019	0
3	2825	1747.437591944595	1
3	2826	1747.901175163281	0
3	2845	1756.143766888499	1
3	2846	1756.297383385211	0
3	2910	1773.695267838126	1
3	2911	1774.133120226074	0
3	2925	1780.625751304578	1
3	2926	1780.739273386904	0
3	2960	1804.27321348025	1
3	2961	1804.997109961749	0
3	3005	1838.989177923282	1
3	3006	1839.150495470299	0
3	3025	1854.67838827686	1
3	3026	1854.888056445647	0
3	3055	1867.577949503983	1
3	3056	1867.784862536085	0
3	3085	1874.424548455093	1
3	3091	1875.768340103423	0
3	3130	1895.245200428376	1
3	3131	1896.052031303143	0
3	3170	1915.718647043687	1
3	3171	1915.79940424227	0
3	3190	1923.654488430227	1
3	3191	1923.826761755643	0
3	3197	1924.60211926876	1
3	3201	1925.568473634885	0
3	3340	2050.085682277534	1
3	3341	2050.506097248222	0
3	3450	2110.677751287534	1
3	3451	2111.503183200713	0
3	3500	2140.429431751226	1
3	3501	2141.13991059538	0
3	3505	2141.678361125022	1
3	3507	2142.015926831613	2
3	3508	2142.102253564056	1
3	3511	2142.854615109628	0
3	3520	2144.222748017502	1
3	3521	2144.843811309281	0
3	3695	2243.371864975507	1
3	3696	2243.504365918146	0
3	3700	2243.80484063906	1
3	3701	2244.008251670155	0
3	3730	2260.237035102041	1
3	3731	2261.089740123505	0
3	3780	2292.143944018181	1
3	3781	2292.336068474791	0
3	3855	2347.43494239059	1
3	3861	2348.545792250321	0
3	3910	2381.478787784051	1
3	3911	2381.713275531811	0
3	3970	2417.651452932794	1
3	3971	2418.156510870386	0
3	3977	2419.029478499928	1
3	3982	2419.208108284203	2
3	3983	2419.568283093436	1
3	3986	2419.980236477912	0
3	3995	2420.949830253262	1
3	3996	2421.094407648169	0
3	4005	2422.438513408796	1
3	4006	2423.037488959264	0
3	4080	2464.6154803637	1
3	4081	2465.125676754156	0
3	4105	2478.279508926034	1
3	4106	2478.738038813445	0
3	4115	2481.779190001191	1
3	4116	2482.348209978061	0
3	4120	2482.587050401391	1
3	4122	2482.829541644503	2
3	4123	2483.340583002454	1
3	4126	2483.783122137262	0
3	4335	2629.129102761939	1
3	4341	2629.872468417136	0
3	4380	2645.410750083671	1
3	4382	2645.889490453159	2
3	4383	2645.901638268088	1
3	4386	2646.889352932307	0
3	4430	2673.90300139803	1
3	4431	2674.267820024848	0
3	4455	2686.555281999804	1
3	4457	2687.131919166293	2
3	4458	2687.45763224252	1
3	4461	2688.449754546866	0
3	4555	2762.509998164449	1
3	4557	2762.98348965622	2
3	4558	2763.383755560278	1
3	4561	2763.867790472659	0
3	4575	2775.899699087217	1
3	4576	2776.021625267741	0
3	4760	2921.718481275576	1
3	4761	2922.312874231143	0
3	4770	2925.776960729236	1
3	4771	2926.346723161215	0
3	4860	2984.988877364357	1
3	4861	2985.812560813911	0
3	4890	3011.425050745131	1
3	4891	3011.908042891717	0
3	4917	3022.643984974661	1
3	4931	3024.827102322571	0
3	4960	3035.508788066782	1
3	4961	3035.919419789141	0
3	4975	3040.439735668063	1
3	4976	3040.936261447718	0
3	5105	3109.132628222499	1
3	5107	3109.374069570472	2
3	5108	3109.683776982437	1
3	5111	3110.085715138289	0
3	5115	3110.384396289813	1
3	5116	3110.952926065662	0
3	5145	3137.693048298128	1
3	5146	3137.732175457926	0
3	5170	3153.615199471798	1
3	5171	3154.276248227457	0
3	5210	3171.837689782022	1
3	5211	3172.139014332059	0
3	5235	3179.814345409901	1
3	5236	3180.049554994003	0
3	5265	3185.479840180811	1
3	5266	3186.166641520762	0
3	5270	3186.330821191595	1
3	5271	3187.103493518715	0
3	5310	3194.22614470218	1
3	5311	3194.232166658157	0
3	5315	3194.806398570622	1
3	5316	3195.066777470663	0
3	5465	3323.895595887905	1
3	5466	3323.965201851121	0
3	5480	3328.371056453552	1
3	5481	3329.040739964198	0
3	5520	3377.368818370143	1
3	5521	3377.863231895914	0
3	5550	3404.633535304066	1
3	5551	3404.922680736865	0
3	5557	3405.237465091717	1
3	5562	3406.118691733633	2
3	5563	3406.237671171893	1
3	5566	3407.212707201737	0
3	5570	3407.530704051771	1
3	5571	3407.636005007123	0
3	5575	3408.011130394492	1
3	5577	3408.232789901549	2
3	5584	3408.792524394696	3
3	5585	3409.00245629118	2
3	5591	3409.134668146478	3
3	5595	3410.782810294136	2
3	5598	3411.623957049308	1
3	5601	3412.13851105326	0
3	5645	3439.595874549952	1
3	5646	3439.934919302087	0
3	5770	3513.077589428649	1
3	5771	3513.78443951962	0
3	5795	3533.050418213486	1
3	5796	3533.695809501408	0
3	5820	3539.645907006117	1
3	5821	3540.063205642487	0
3	5840	3544.7288519252	1
3	5841	3544.813390591699	0
3	5870	3583.338549061383	1
3	5871	3583.385677382998	0
3	5875	3583.775583678423	1
3	5876	3584.383582602344	0
3	6025	3722.679737231653	1
3	6026	3723.520991134136	0
3	6035	3724.782357836832	1
3	6036	3725.14365282455	0
3	6090	3756.618299388791	1
3	6092	3757.189027123677	2
3	6093	3757.455803166933	1
3	6096	3758.150964566365	0
3	6135	3768.795116413313	1
3	6136	3768.951774597199	0
3	6145	3769.789748354883	1
3	6146	3770.128856721941	0
3	6230	3818.278693516155	1
3	6231	3819.108028046147	0
3	6330	3881.137746188061	1
3	6331	3881.441699238307	0
3	6350	3887.966190095959	1
3	6351	3888.697908234331	0
3	6370	3904.394245091496	1
3	6371	3904.57159660272	0
3	6385	3906.972847544594	1
3	6386	3907.468100115462	0
3	6430	3930.306092945057	1
3	6431	3930.836811493825	0
3	6455	3944.813006926574	1
3	6456	3945.403812506842	0
3	6475	3957.514917166782	1
3	6476	3957.540619534716	0
3	6545	4025.149601818987	1
3	6546	4025.808200277514	0
3	6552	4026.393425991137	1
3	6556	4027.340301342435	0
3	6610	4069.803981475069	1
3	6611	4070.218992904557	0
3	6680	4113.449093054721	1
3	6681	4114.073443643822	0
3	6700	4120.935797622881	1
3	6701	4121.474957526109	0
3	6720	4135.657663652845	1
3	6722	4135.84585668777	2
3	6723	4136.179416483083	1
3	6726	4136.605564795063	0
3	6760	4159.002089884163	1
3	6761	4159.468468556006	0
3	6795	4180.021752057801	1
3	6796	4180.778258518806	0
3	6800	4181.089574630664	1
3	6801	4181.549576356566	0
3	6805	4181.753996841143	1
3	6806	4182.17746024381	0
3	6815	4183.619334679578	1
3	6816	4184.147521424316	0
3	6855	4206.614852909497	1
3	6856	4206.929218318765	0
3	6920	4244.970995716328	1
3	6921	4245.145469310179	0
3	6940	4258.849439392555	1
3	6941	4259.274551147929	0
3	7010	4290.740592187417	1
3	7011	4291.269910802613	0
3	7020	4299.413659173729	1
3	7021	4299.915238797736	0
3	7025	4300.740002809674	1
3	7026	4300.872133763765	0
3	7060	4323.072717511114	1
3	7061	4323.576608681299	0
3	7065	4323.844873089986	1
3	7066	4324.434780679124	0
3	7070	4324.90693859281	1
3	7071	4325.065082360145	0
3	7130	4394.80983134679	1
3	7131	4394.841125054597	0
3	7140	4398.569494517953	1
3	7141	4398.797989645961	0
3	7170	4423.824658024982	1
3	7171	4424.669499941587	0
3	7185	4434.323710524861	1
3	7187	4434.565008634746	2
3	7188	4434.744472558824	1
3	7191	4435.442932311892	0
3	7312	4523.039680040174	1
3	7317	4523.964843524213	2
3	7318	4524.03474988856	1
3	7321	4524.951623526147	0
3	7340	4541.712494989373	1
3	7341	4542.10891481771	0
3	7345	4542.137000849722	1
3	7346	4542.976191586469	0
3	7360	4553.2245660059	1
3	7361	4553.683765661226	0
3	7380	4556.765278409032	1
3	7381	4557.18562407737	0
3	7405	4570.084743752323	1
3	7406	4570.200119161469	0
3	7420	4612.73426867589	1
3	7421	4613.529432701716	0
3	7440	4616.495751990107	1
3	7441	4616.565474912461	0
3	7505	4654.487719226104	1
3	7506	4654.653743837113	0
3	7510	4655.261520111139	1
3	7511	4655.376161206691	0
3	7515	4655.678228283342	1
3	7517	4655.958992961933	2
3	7518	4656.320647550179	1
3	7521	4656.981652767668	0
3	7620	4729.563258139739	1
3	7621	4730.027637498655	0
3	7665	4746.223607126699	1
3	7666	4746.333604149726	0
3	7695	4785.519862849456	1
3	7696	4786.197110730024	0
3	7735	4821.242214680217	1
3	7736	4821.599299693235	0
3	7745	4822.938467063288	1
3	7746	4823.629453454813	0
3	7750	4824.013550830221	1
3	7751	4824.117806557188	0
3	7790	4844.085331855399	1
3	7791	4844.356698213365	0
3	7800	4845.841817263086	1
3	7802	4846.157780539778	2
3	7803	4846.347953241114	1
3	7807	4846.543110429503	2
3	7808	4847.174429622507	1
3	7811	4848.105998654692	0
3	7855	4861.070094416089	1
3	7856	4861.382237622009	0
3	7960	4910.504142678824	1
3	7961	4911.124188368971	0
3	8010	4956.885602552706	1
3	8011	4957.000773371355	0
3	8050	4986.207875540852	1
3	8052	4986.263899880678	2
3	8053	4986.569069395168	1
3	8062	4987.313475049259	2
3	8063	4987.756784521136	1
3	8066	4988.307524795597	0
3	8075	4993.383323172454	1
3	8076	4993.845908868361	0
3	8110	5015.097252081589	1
3	8111	5015.201417662156	0
3	8115	5015.563839264964	1
3	8116	5015.89569960297	0
3	8120	5016.222028879094	1
3	8121	5016.325684068398	0
3	8220	5073.503801416571	1
3	8221	5074.311096919885	0
3	8235	5076.284901215332	1
3	8237	5076.678005841485	2
3	8238	5076.92990462323	1
3	8246	5078.242324730329	0
3	8255	5079.704030081752	1
3	8257	5080.214392573584	2
3	8258	5080.440213617401	1
3	8261	5080.950299574246	0
3	8265	5081.410264201457	1
3	8266	5081.693240991931	0
3	8305	5098.862467112301	1
3	8306	5099.058731142552	0
3	8345	5126.947208850851	1
3	8346	5127.569903499795	0
3	8390	5151.605849712791	1
3	8391	5152.40226037479	0
3	8415	5157.352620482931	1
3	8416	5158.054398448915	0
3	8495	5248.562083232651	1
3	8496	5249.359103414322	0
3	8515	5276.891130653601	1
3	8516	5277.500926988303	0
3	8540	5294.844533273527	1
3	8541	5294.913280460947	0
3	8605	5317.478902118838	1
3	8606	5317.792043680239	0
3	8660	5331.330139682665	1
3	8661	5331.614201998341	0
3	8695	5358.096312043933	1
3	8696	5358.336025649038	0
3	8795	5399.304579404999	1
3	8796	5399.366702433599	0
3	8860	5458.105133145998	1
3	8861	5458.72803214188	0
3	8880	5490.101223519651	1
3	8881	5490.999235496692	0
3	8895	5494.499047142373	1
3	8896	5494.845916348731	0
3	8945	5554.120208723577	1
3	8946	5554.162167884295	0
3	8955	5555.412474203816	1
3	8956	5555.612331197491	0
3	8985	5565.839848515703	1
3	8986	5566.526173585014	0
3	8995	5567.995961212441	1
3	8996	5568.418961819045	0
3	9000	5568.883579304056	1
3	9001	5568.926074684521	0
3	9084	5624.789646562768	1
3	9091	5626.476701448909	0
3	9100	5628.419265769374	1
3	9101	5628.618171611683	0
3	9105	5628.825826029715	1
3	9106	5629.40937826468	0
3	9195	5700.35037668235	1
3	9196	5701.045614316571	0
3	9250	5730.425240734556	1
3	9251	5730.492392739195	0
3	9285	5767.906941790814	1
3	9286	5768.324266140299	0
3	9355	5815.024135865681	1
3	9356	5815.170398442313	0
3	9365	5816.210746387259	1
3	9367	5816.346788457391	2
3	9368	5816.610234310251	1
3	9371	5817.108622150967	0
3	9385	5821.364996366511	1
3	9386	5821.416762615488	0
3	9432	5861.749089773715	1
3	9437	5862.493768695917	2
3	9438	5862.69065458861	1
3	9446	5864.044219653614	0
3	9465	5885.801535026745	1
3	9466	5885.888075530371	0
3	9480	5894.829745446828	1
3	9481	5895.072860895644	0
3	9495	5903.882307166152	1
3	9496	5904.272769311446	0
3	9555	5925.766585825922	1
3	9556	5926.059682201767	0
3	9640	6000.124088690413	1
3	9641	6000.982016628219	0
3	9665	6021.890361815313	1
3	9666	6022.170744402212	0
3	9775	6092.929824779687	1
3	9776	6093.095718214407	0
3	9870	6163.720707308184	1
3	9871	6164.365695483339	0
3	9875	6165.203779453526	1
3	9876	6165.219237948031	0
3	9880	6165.302919107668	1
3	9881	6166.026406579706	0
3	9885	6166.054025295098	1
3	9896	6168.003978853681	0
3	10010	6254.539119911013	1
3	10011	6254.756826422922	0
3	10020	6255.801139929557	1
3	10021	6255.81203477513	0
3	10055	6307.000431063947	1
3	10056	6307.294882883279	0
3	10117	6346.138614067838	1
3	10121	6346.829133603155	0
3	10135	6349.316588980605	1
3	10137	6349.8455186492	2
3	10138	6350.102392572368	1
3	10141	6350.802664446522	0
3	10205	6389.674328357206	1
3	10206	6389.789827917935	0
3	10230	6391.893323439824	1
3	10231	6392.591379350307	0
3	10305	6445.323908798586	1
3	10306	6445.850163741449	0
3	10310	6446.102766800594	1
3	10311	6446.487798294138	0
3	10335	6455.251735076132	1
3	10336	6455.357445156028	0
3	10465	6566.500734861678	1
3	10466	6566.898761061834	0
3	10510	6594.867821210448	1
3	10511	6595.020899797757	0
3	10515	6595.440518773622	1
3	10516	6595.756094326232	0
3	10880	6835.201883891006	1
3	10881	6835.323695154219	0
3	10925	6854.452021316803	1
3	10926	6854.577221201559	0
3	10930	6855.164147657468	1
3	10932	6855.200378404545	2
3	10933	6855.305389010593	1
3	10936	6855.894349327976	0
3	10970	6873.316949539699	1
3	10971	6873.569319109957	0
3	10980	6874.753615288466	1
3	10981	6875.433619150019	0
3	11015	6895.145608110474	1
3	11016	6895.96744289211	0
3	11020	6896.039193548798	1
3	11021	6896.729819652196	0
3	11050	6911.782336188848	1
3	11051	6912.612760866419	0
3	11065	6917.656548624299	1
3	11066	6917.966716533518	0
3	11080	6926.756157695566	1
3	11081	6927.296127231112	0
3	11290	7065.007291312315	1
3	11291	7065.086982504679	0
3	11295	7065.541313953302	1
3	11296	7065.83808554926	0
3	11375	7131.450274374898	1
3	11376	7132.265275314491	0
3	11385	7133.842393208358	1
3	11386	7134.388689869305	0
3	11395	7135.939827980832	1
3	11396	7136.187610355956	0
3	11425	7147.160577611089	1
3	11426	7147.744979201891	0
3	11450	7163.974648770056	1
3	11451	7164.268236425573	0
3	11469	7178.793425172119	1
3	11476	7180.295349559345	0
3	11595	7267.425689586195	1
3	11596	7267.442119033411	0
3	11610	7269.120794042019	1
3	11611	7269.437002014104	0
3	11620	7273.085111333159	1
3	11621	7273.131789403467	0
3	11625	7273.68555726736	1
3	11626	7273.787032442784	0
3	11635	7278.269555681884	1
3	11636	7279.035906121029	0
3	11690	7317.027247271488	1
3	11691	7317.541268670624	0
3	11760	7365.709700405704	1
3	11761	7365.82948711451	0
3	11870	7462.421908061418	1
3	11871	7463.085065747831	0
3	11875	7463.502181908961	1
3	11877	7463.65183503508	2
3	11878	7463.782443761533	1
3	11881	7464.516487024711	0
3	11890	7466.081745306396	1
3	11891	7466.379116734072	0
3	11895	7466.796134860871	1
3	11896	7466.94755474832	0
3	11940	7498.356130186852	1
3	11941	7498.849816195475	0
3	11955	7500.826618491242	1
3	11956	7500.863087846964	0
3	11965	7501.547370247321	1
3	11966	7501.929157752271	0
3	11995	7525.747553265047	1
3	11996	7525.84670590841	0
3	12055	7592.425211405604	1
3	12056	7592.634049061962	0
3	12140	7649.309890187019	1
3	12141	7649.855311017449	0
3	12170	7664.946146098685	1
3	12171	7665.281701174111	0
3	12180	7669.495284296157	1
3	12181	7670.2151210411	0
3	12205	7690.289428919669	1
3	12206	7690.549238828225	0
3	12210	7690.795197143041	1
3	12212	7690.855339430286	2
3	12214	7690.883781944513	3
3	12215	7691.354890658967	2
3	12218	7692.021145262923	1
3	12222	7692.056896984022	2
3	12224	7692.448068028583	3
3	12225	7692.955877539311	2
3	12234	7694.433579698912	3
3	12235	7694.595922789797	2
3	12238	7695.077652020408	1
3	12241	7695.556927028233	0
3	12260	7698.438178553176	1
3	12261	7698.45095813381	0
3	12275	7704.512624683628	1
3	12276	7704.86768212757	0
3	12375	7746.624827555046	1
3	12376	7747.109117664061	0
3	12385	7748.457256483755	1
3	12387	7748.605034659303	2
3	12388	7748.723456246024	1
3	12396	7750.01570534044	0
3	12450	7774.13463281961	1
3	12451	7774.516114680468	0
3	12460	7777.359363031035	1
3	12461	7777.457466518119	0
3	12490	7823.226938735197	1
3	12496	7824.667029513758	0
3	12500	7825.145648603949	1
3	12501	7825.438910762234	0
3	12510	7827.197061249062	1
3	12511	7827.418152173828	0
3	12515	7827.776511045153	1
3	12516	7828.142001890098	0
3	12520	7828.17444295054	1
3	12521	7829.026364622391	0
3	12560	7865.921688998518	1
3	12561	7865.932051790808	0
3	12570	7867.171826162684	1
3	12571	7867.757274978353	0
3	12575	7868.111344763282	1
3	12576	7868.672921948578	0
3	12720	7998.081717125352	1
3	12721	7998.201218284779	0
3	12725	7998.398426579531	1
3	12726	7999.030242612605	0
3	12810	8066.924023638199	1
3	12812	8067.390786071984	2
3	12813	8067.392020368424	1
3	12816	8068.068507127451	0
3	12820	8068.543063442458	1
3	12821	8068.682484724034	0
3	12880	8113.997031340202	1
3	12881	8114.323882666748	0
3	12922	8129.132645500221	1
3	12926	8130.437284544846	0
3	13080	8229.252088470111	1
3	13081	8229.792541360459	0
3	13130	8263.113261618657	1
3	13131	8263.226557276415	0
3	13235	8329.012261952445	1
3	13236	8329.026906165971	0
3	13265	8353.121747454052	1
3	13266	8353.387615182858	0
3	13275	8354.032596253814	1
3	13276	8354.339832137294	0
3	13282	8354.741229529715	1
3	13286	8355.230334949868	0
3	13290	8355.697693885729	1
3	13291	8355.913746618109	0
3	13295	8356.643478001141	1
3	13296	8356.867232508633	0
3	13390	8409.603618223934	1
3	13391	8410.202064082404	0
3	13425	8426.229271521674	1
3	13426	8426.441445039088	0
3	13430	8426.918048334494	1
3	13431	8427.040913404819	0
3	13455	8450.648364980986	1
3	13456	8450.652275089465	0
3	13460	8451.365135164579	1
3	13461	8451.635156767454	0
3	13475	8454.962011552819	1
3	13476	8455.271252849002	0
3	13520	8478.276231710574	1
3	13521	8478.641611969078	0
3	13530	8480.492274608124	1
3	13531	8480.696815752702	0
3	13535	8481.060612278566	1
3	13536	8481.547097959088	0
3	13545	8490.278111901561	1
3	13546	8491.135432390094	0
3	13570	8497.679812268008	1
3	13571	8497.78712465593	0
3	13600	8509.944518885519	1
3	13601	8510.197407903648	0
3	13640	8525.42506246643	1
3	13641	8525.472805457296	0
3	13650	8526.358874423471	1
3	13651	8526.798514914154	0
3	13695	8550.343138182556	1
3	13696	8550.673791700328	0
3	13720	8567.175053036767	1
3	13721	8567.450207968207	0
3	13735	8578.188005339674	1
3	13737	8578.582605633863	2
3	13738	8578.907024147176	1
3	13741	8579.354667118658	0
3	13770	8582.888145218054	1
3	13771	8583.799780463251	0
3	13880	8673.092832617271	1
3	13881	8673.539459929712	0
3	13930	8701.614165671558	1
3	13931	8701.652464299054	0
3	13995	8744.086592709123	1
3	13996	8744.575631497366	0
3	14015	8747.651143126753	1
3	14016	8748.100157767634	0
3	14020	8748.146979300578	1
3	14021	8748.759225249763	0
3	14060	8758.59721496289	1
3	14061	8759.00958887877	0
3	14065	8759.226737284185	1
3	14066	8759.762619098211	0
3	14105	8780.119254364447	1
3	14106	8780.381657425268	0
3	14155	8814.765887550871	1
3	14162	8815.714721026178	2
3	14163	8816.126372288091	1
3	14166	8816.579254759725	0
3	14172	8817.144611382498	1
3	14176	8818.027815747697	0
3	14180	8818.092287803416	1
3	14181	8818.98039331666	0
3	14195	8822.412609411813	1
3	14197	8822.50686751904	2
3	14198	8822.565168363641	1
3	14204	8823.243774935804	2
3	14209	8823.704521862433	3
3	14210	8824.10897455238	2
3	14213	8824.702948277157	1
3	14224	8825.449687971466	2
3	14226	8825.674801640404	3
3	14235	8827.715754446753	2
3	14238	8828.341476905898	1
3	14241	8828.787469615175	0
3	14245	8828.883975732821	1
3	14246	8829.784108928398	0
3	14250	8829.939630481958	1
3	14251	8830.744908137147	0
3	14255	8830.768157820632	1
3	14256	8831.359518739109	0
3	14370	8926.339253832466	1
3	14371	8926.623298273594	0
3	14460	8993.607261725154	1
3	14462	8993.703549964169	2
3	14463	8993.753608260123	1
3	14467	8994.385250133503	2
3	14468	8994.646730052452	1
3	14471	8995.401916871877	0
3	14475	8995.531190961761	1
3	14477	8995.704846892948	2
3	14478	8995.828504667017	1
3	14481	8996.430612833803	0
3	14517	9010.63899771639	1
3	14521	9011.744990440607	0
3	14535	9021.794679291184	1
3	14536	9021.991473733306	0
3	14545	9022.687367781598	1
3	14546	9022.851610871578	0
3	14560	9025.216375112673	1
3	14561	9025.618311539774	0
3	14575	9035.573987163542	1
3	14576	9035.987591677714	0
3	14585	9042.803889921018	1
3	14586	9043.111276939323	0
3	14625	9075.398814237738	1
3	14626	9076.118217289804	0
3	14645	9084.900215665679	1
3	14646	9085.263339263086	0
3	14780	9201.821894327667	1
3	14781	9202.148401146034	0
3	14795	9215.602577123549	1
3	14796	9215.651691813981	0
3	14875	9253.463107113417	1
3	14876	9254.308989434412	0
3	14895	9260.214265436635	1
3	14896	9260.753907317897	0
3	14925	9275.615755292341	1
3	14926	9276.031006649483	0
3	14960	9312.915356023759	1
3	14961	9313.723558104917	0
3	15017	9347.97342228315	1
3	15021	9349.30548435929	0
3	15025	9349.656865899085	1
3	15026	9350.03627967187	0
3	15035	9352.14599796797	1
3	15041	9353.3628781369	0
3	15070	9375.911583154414	1
3	15071	9376.345900711122	0
3	15090	9380.917114495006	1
3	15091	9381.177030222494	0
3	15145	9417.34808222463	1
3	15156	9419.013595254579	0
3	15250	9485.606817437949	1
3	15251	9485.981432577688	0
3	15260	9487.707200105823	1
3	15261	9487.957907995088	0
3	15365	9537.931745222501	1
3	15366	9538.251322263773	0
3	15410	9555.984744566572	1
3	15411	9556.509087252159	0
3	15415	9556.717563198816	1
3	15416	9557.434911172007	0
3	15480	9661.27261201501	1
3	15481	9661.770234129753	0
3	15540	9707.880602798574	1
3	15541	9708.2786970418	0
3	15580	9719.710317918342	1
3	15581	9719.711163211703	0
3	15615	9733.680768102928	1
3	15617	9733.690426756258	2
3	15618	9733.857016528142	1
3	15621	9734.696051383461	0
3	15660	9755.03172985394	1
3	15661	9755.079030026052	0
3	15665	9755.094381310815	1
3	15666	9755.985155329177	0
3	15700	9768.092108755215	1
3	15701	9768.530756119393	0
3	15745	9786.94127578947	1
3	15746	9787.251226263766	0
3	15750	9787.645608665649	1
3	15751	9788.065520184946	0
3	15805	9810.015916797413	1
3	15806	9810.392599491399	0
3	15845	9838.918418650286	1
3	15851	9840.237502403796	0
3	15880	9859.387741884917	1
3	15881	9859.93125391092	0
3	15975	9903.832887242929	1
3	15976	9903.900109108327	0
3	16045	9941.308364335355	1
3	16046	9941.578107285685	0
3	16135	9988.380720416859	1
3	16136	9988.674360761548	0
3	16170	10005.986837351318	1
3	16171	10006.583850842838	0
3	16210	10020.262732217118	1
3	16211	10020.278747523735	0
3	16215	10020.412681729947	1
3	16216	10020.778258478288	0
3	16275	10049.018777483535	1
3	16276	10049.134710955911	0
3	16285	10053.202916624714	1
3	16286	10053.222143380565	0
3	16290	10053.662645384362	1
3	16291	10054.127181152429	0
3	16370	10086.243965927754	1
3	16371	10086.250147947354	0
3	16380	10090.223874976004	1
3	16387	10090.63336558645	2
3	16389	10091.004607010824	3
3	16390	10091.342608328593	2
3	16393	10092.111119632619	1
3	16396	10092.727835106347	0
3	16410	10110.359233367142	1
3	16411	10110.803073127448	0
3	16430	10148.423310178615	1
3	16431	10148.465581181987	0
3	16442	10149.572572615417	1
3	16446	10150.514176080159	0
3	16450	10150.756635894882	1
3	16452	10150.865940545564	2
3	16453	10151.312108932591	1
3	16457	10152.203190002995	2
3	16458	10152.273439817752	1
3	16461	10152.83952814887	0
3	16520	10192.878312442538	1
3	16521	10193.151580431371	0
3	16525	10193.555880479744	1
3	16526	10193.880781659496	0
3	16532	10193.946394499956	1
3	16537	10194.388049050182	2
3	16538	10195.065728253884	1
3	16541	10195.836251642847	0
3	16605	10253.056362630189	1
3	16606	10253.455497895514	0
3	16620	10266.427943023634	1
3	16621	10267.318243858542	0
3	16625	10267.895447541715	1
3	16626	10268.194345358431	0
3	16755	10342.077856426408	1
3	16756	10342.682395387156	0
3	16945	10483.342983697364	1
3	16946	10483.909649893988	0
3	16960	10489.58569449508	1
3	16961	10490.224956082657	0
3	17015	10528.414811894504	1
3	17016	10528.729925442521	0
3	17030	10530.604755546666	1
3	17031	10531.055343425664	0
3	17110	10604.150532646517	1
3	17111	10604.382726609806	0
3	17150	10626.471242161044	1
3	17151	10627.021860469959	0
3	17190	10641.361561850573	1
3	17191	10641.465073417705	0
3	17200	10643.134894605921	1
3	17202	10643.334293016222	2
3	17203	10643.406544432432	1
3	17206	10643.918406570159	0
3	17220	10648.443851016376	1
3	17221	10648.702671079625	0
3	17225	10648.792583818836	1
3	17226	10649.224348567481	0
3	17240	10658.56075844184	1
3	17241	10659.232408185919	0
3	17425	10769.989175272764	1
3	17427	10770.107752335862	2
3	17428	10770.281076032783	1
3	17431	10771.225984381487	0
3	17450	10773.658623595477	1
3	17451	10773.855553502458	0
3	17510	10813.679280258285	1
3	17512	10813.765767053545	2
3	17513	10813.926817564264	1
3	17516	10814.390575831447	0
3	17540	10822.389638634274	1
3	17541	10822.732415531255	0
3	17565	10831.882571105228	1
3	17566	10832.03134318745	0
3	17575	10832.980311476227	1
3	17577	10833.046063740481	2
3	17578	10833.331298175543	1
3	17581	10834.081979266736	0
3	17670	10879.57717543047	1
3	17671	10879.843995200589	0
3	17790	10956.570685433316	1
3	17791	10956.988541772222	0
3	17795	10957.196925387974	1
3	17796	10957.686510953033	0
3	17815	10972.212533787289	1
3	17816	10972.383513364873	0
3	17825	10975.415875902694	1
3	17826	10975.975277716155	0
3	17890	11006.461065186989	1
3	17891	11007.220671907488	0
3	17945	11047.880326963884	1
3	17946	11048.141802687801	0
3	17975	11069.541390579268	1
3	17976	11070.107198045772	0
3	18020	11086.311605571928	1
3	18021	11086.693468935299	0
3	18065	11123.609003029187	1
3	18066	11123.826225755665	0
3	18070	11124.295984430134	1
3	18072	11124.442386979916	2
3	18073	11124.624528428003	1
3	18076	11125.423123750159	0
3	18080	11125.526979119412	1
3	18082	11125.954428666647	2
3	18089	11126.675716837148	3
3	18090	11127.171132426172	2
3	18093	11127.681148639436	1
3	18096	11128.31569494081	0
3	18130	11155.514760426375	1
3	18132	11155.680738257314	2
3	18133	11155.945616872662	1
3	18136	11156.573037100264	0
3	18150	11163.412211749588	1
3	18151	11163.462779886771	0
3	18230	11234.357506899935	1
3	18231	11234.985607325057	0
3	18235	11235.338373815135	1
3	18236	11235.735723853022	0
3	18245	11240.571065390404	1
3	18247	11240.658872427728	2
3	18248	11241.194949527427	1
3	18256	11242.667644906107	0
3	18260	11242.721074337666	1
3	18262	11242.871822152926	2
3	18263	11243.657586871244	1
3	18266	11244.127325360354	0
3	18330	11293.067619745385	1
3	18331	11293.205556381741	0
3	18335	11293.244011266139	1
3	18336	11293.723768571918	0
3	18340	11294.088121635806	1
3	18341	11294.166097340793	0
3	18345	11294.346048692771	1
3	18347	11294.764947124588	2
3	18348	11295.146300269258	1
3	18352	11295.228442703743	2
3	18354	11295.474325847616	3
3	18355	11295.818594893175	2
3	18358	11296.448815832161	1
3	18361	11296.861131818187	0
3	18365	11296.902450798735	1
3	18366	11297.710455596554	0
3	18415	11335.182477731674	1
3	18416	11335.812311555411	0
3	18420	11335.90673246561	1
3	18426	11337.547135287489	0
3	18455	11349.126456207937	1
3	18456	11349.620374982719	0
3	18465	11350.423365371983	1
[...]
6	39170	24986.553222797716	0.656631108327
6	39180	24993.620280890466	1.523462308571
6	39240	25041.018557006342	0.480309446156
6	39247	25047.813164804897	0.60854847976
6	39270	25054.063392424872	3.128725883811
6	39275	25055.044386703448	0.665107989917
6	39297	25068.33384021352	0.987274060624
6	39300	25068.750078066615	2.892316065421
6	39305	25071.473618703638	0.761189796682
6	39335	25090.558425829737	0.955334854266
6	39350	25094.246934405144	0.672985959459
6	39355	25097.87468444545	0.728791102162
6	39362	25100.318256424281	0.827927881991
6	39365	25100.782630501648	0.697035734031
6	39372	25102.861600853104	0.733111793734
6	39380	25105.158741255449	2.329779808033
6	39390	25108.870359836273	0.968229745375
6	39395	25109.941485330384	0.667566012219
6	39415	25119.948430786294	0.908674223814
6	39430	25134.195187336297	1.316295665543
6	39435	25137.033618306555	0.722439440805
6	39457	25150.156288313794	2.433386514489
6	39487	25164.574275326024	1.450987760833
6	39500	25169.598921007441	0.418445592746
6	39527	25177.250358953771	2.478225544982
6	39615	25239.045454941258	1.309630650608
6	39630	25244.375856238546	2.412741969992
6	39635	25246.781030655636	0.852655962761
6	39650	25264.451871463073	0.872853281209
6	39670	25287.796529564303	0.621817383655
6	39700	25300.928378693957	0.596570626274
6	39707	25303.078420084743	0.542321958067
6	39720	25306.41242578616	0.52590091764
6	39810	25367.184005462297	0.459391984204
6	39830	25397.582246294561	0.846771509945
6	39835	25404.393441028569	0.469385576062
6	39860	25413.320496698673	0.419253785908
6	39865	25413.875755840531	2.840212532762
6	39900	25433.437497852392	0.517247804301
6	39975	25488.501836393893	0.515418124106
6	39995	25494.234693402034	0.768144216063
6	40010	25498.054393219436	2.947358792638
6	40042	25519.925338269701	0.614180416707
6	40080	25533.741964566837	1.528216949662
6	40090	25535.37628519544	1.020894094191
6	40124	25556.08481797861	0.624018894183
6	40135	25559.02490207752	0.818945168052
6	40145	25573.137098108967	0.514904517261
6	40157	25590.119554307937	0.94451932041
6	40185	25618.437603993509	0.92308709058
6	40210	25628.22740927456	1.751569537371
6	40232	25634.426445407392	0.502444208274
6	40237	25635.141471970146	0.928237766619
6	40250	25642.894858662729	0.420468650572
6	40260	25650.147091940523	0.889086565748
6	40270	25654.044666453716	1.831257253263
6	40280	25664.226908856831	0.731341328612
6	40285	25676.825588646361	0.938164489996
6	40295	25685.657664874033	0.97706726715
6	40320	25702.556186133272	0.425166918663
6	40325	25711.061232389615	0.402481779968
6	40350	25734.403950413869	2.810033400316
6	40365	25739.652610202395	0.768196572922
6	40377	25742.497559771542	1.83629368331
6	40409	25747.962665935501	1.151061548744
6	40412	25748.420448066376	1.248903737148
6	40435	25753.353856784578	0.657014317485
6	40459	25761.475870183841	4.558021608922
6	40462	25762.296117262062	1.079599652153
6	40495	25782.444904610683	0.818307721103
6	40510	25790.188217908537	1.620557931803
6	40549	25798.538711381354	1.647614598941
6	40552	25799.276018957165	3.934451201407
6	40560	25812.490817228869	0.554916164326
6	40565	25814.19979706756	0.956113158679
6	40575	25818.479080500134	1.176143261844
6	40587	25833.039222133672	0.697433895571
6	40590	25833.594117078371	1.02168419049
6	40595	25834.783932143894	0.872111571627
6	40620	25872.34996655504	0.724877907289
6	40640	25875.827829591516	1.250348300532
6	40675	25908.317866149131	0.693276566872
6	40692	25912.177932372345	1.242473937727
6	40695	25913.038589381921	2.223783601262
6	40702	25918.659036426235	0.880788752483
6	40780	25940.780788761368	2.525433282704
6	40804	25959.96059512666	0.604717406989
6	40807	25960.414500516956	1.625623525539
6	40817	25961.870382667915	0.882146447877
6	40835	25970.190388719602	0.759163189959
6	40845	25989.641833818504	1.711553994808
6	40855	25996.025071307729	0.726086758398
6	40895	26022.440905278388	2.822947899287
6	40900	26038.410148488784	0.632537756814
6	40920	26053.617886083052	0.751423374796
6	40930	26054.985110523678	1.044667245938
6	40937	26057.169320438397	0.681538463617
6	40940	26057.947116764649	1.277159192441
6	40980	26065.627590125459	0.520273705851
6	40990	26071.68378486497	0.675944935624
6	41015	26080.157412782276	0.901175939618
6	41030	26092.110087098579	0.513589519169
6	41040	26099.066140737579	0.744815632049
6	41054	26105.505193137725	1.237978865141
6	41062	26106.509249582769	0.997871509682
6	41105	26126.757137486565	0.569591849018
6	41122	26130.055977774078	0.743430787418
6	41130	26134.282046669287	0.993827130366
6	41155	26150.079557196667	0.611353123374
6	41165	26156.980578050026	0.835132477153
6	41185	26164.696938707434	0.476487034
6	41210	26176.079080195222	2.906272163093
6	41235	26188.570883086145	0.676068968792
6	41240	26194.549184868104	0.852253775997
6	41255	26210.660428866255	0.886470890325
6	41264	26215.386307818415	0.903190794913
6	41267	26216.175517495135	1.50514048088
6	41270	26216.616184213776	1.901457977381
6	41284	26221.566008155918	0.821277960669
6	41289	26222.242007522922	0.912301688641
6	41292	26222.945452048289	1.462315982334
6	41300	26249.232040264039	0.846116811782
6	41310	26279.269153340314	0.945144343143
6	41330	26293.650776118602	1.554023435159
6	41350	26305.854101600487	0.409359541954
6	41400	26324.554335879326	4.418847954452
6	41405	26325.679448643357	0.658698348701
6	41420	26328.413361391995	2.657837176606
6	41440	26336.058653856231	0.721917360691
6	41465	26357.74402950792	1.891074015027
6	41475	26363.924692359244	1.983797848836
6	41485	26386.888844096783	0.423151230207
6	41492	26401.400188996333	0.956470188918
6	41500	26405.498826503664	0.75608264273
6	41507	26408.10546540282	0.764773662668
6	41515	26410.007030391205	2.243885725907
6	41560	26430.01851454681	0.543374538468
6	41570	26442.357707446761	0.48309836085
6	41595	26462.843936352333	2.593838381882
6	41612	26473.21009224513	0.535827130033
6	41625	26480.554503346256	0.619336889079
6	41630	26484.468593516318	0.583312139101
6	41635	26488.73329717653	0.698401700845
6	41665	26498.669243742764	0.740373580577
6	41672	26500.218627649311	0.748187838076
6	41685	26515.447575715594	0.820263362024
6	41720	26523.764436587897	1.283205997075
6	41762	26553.656773144359	2.219911154101
6	41770	26558.891656265196	0.488312383369
6	41777	26560.862860539077	0.979265406588
6	41787	26565.847677791067	0.955419737101
6	41797	26567.212487167022	0.936310501573
6	41805	26571.922181701182	0.912149846042
6	41840	26611.476983075231	0.93416549922
6	41845	26613.194650995257	0.457762085274
6	41850	26614.349309878581	0.660431563947
6	41855	26618.625548444505	0.819587710779
6	41870	26623.271424061478	0.44384069154
6	41875	26627.130548386467	0.648845760431
6	41885	26637.529126225992	0.715723038558
6	41890	26641.5623995928	0.560905623389
6	41907	26647.475977291919	0.752607556945
6	41914	26648.093860931376	0.65513307024
6	41925	26650.402888210312	2.827044870038
6	41970	26671.36963326946	0.541350938613
6	41975	26681.120185435777	0.501426449651
6	41980	26682.823476606832	0.78754347479
6	41990	26686.68410173543	0.855439801514
6	42005	26694.470696886898	0.57452662033
6	42030	26704.348406126052	0.786004106421
6	42045	26722.206780823474	2.273304724254
6	42054	26724.512587565045	0.759019828821
6	42065	26727.334552529196	0.788460429572
6	42070	26729.068231007704	0.890002911445
6	42080	26740.921732237674	0.783044098923
6	42104	26765.157022228845	1.272013717487
6	42117	26767.127390863614	1.228097293006
6	42170	26795.19952435266	1.133021277728
6	42175	26796.872206379759	0.481081119645
6	42185	26802.329091921518	0.896739099335
6	42200	26812.993264166131	0.862535015075
6	42220	26820.268873649213	2.699885378952
6	42245	26828.688324005454	3.505305875853
6	42262	26842.033734477201	1.357922733633
6	42265	26842.905451392784	1.221082886097
6	42272	26852.249954444336	0.695791058056
6	42277	26853.226395016143	1.625824119041
6	42339	26861.183538241901	3.193531222083
6	42420	26901.475935339599	0.507554711774
6	42460	26920.79019701116	3.338240896346
6	42492	26944.158062491626	1.597515496188
6	42519	26965.689079624314	0.571988889202
6	42522	26966.362106514622	0.866594760847
6	42530	26969.431644211264	0.46731336494
6	42565	26994.534118608941	0.534734901832
6	42570	26997.295931769437	0.902022813726
6	42575	27000.224509982282	0.602037640894
6	42595	27019.359651024203	2.806985265351
6	42627	27048.258037435901	1.599573485376
6	42640	27053.024365024317	0.529034267366
6	42665	27081.16993487156	0.850148795964
6	42697	27106.367637387888	0.694081655797
6	42700	27106.904842389926	2.293745672646
6	42710	27114.859900743841	1.255817542655
6	42715	27119.663714624296	0.580343155283
6	42720	27123.026521315406	0.575097165164
6	42725	27124.37578905039	0.417938641971
6	42740	27128.325051980692	0.417564687692
6	42757	27138.980529434076	0.514269142458
6	42760	27139.611160657723	1.128782332529
6	42830	27178.593844050049	0.719287006324
6	42837	27190.110772401096	0.639294572687
6	42870	27218.246024213378	0.925114025455
6	42875	27221.841341355177	0.707736501517
6	42880	27224.425753706852	0.875470270496
6	42895	27233.716007035002	0.485747253336
6	42935	27263.4756156242	0.617882396281
6	42950	27287.417670790542	0.541451183101
6	42955	27289.09755280716	0.84300626223
6	42975	27300.968013035608	2.060588591761
6	42980	27303.153587565323	0.425942468224
6	42995	27313.344019472697	1.512625181187
6	43020	27332.665634636663	2.044624518941
6	43025	27335.200630065956	0.972058962379
6	43082	27352.106489829798	1.764162150067
6	43095	27358.152331037485	1.631015526197
6	43120	27393.805246732321	0.485831138166
6	43145	27419.702420799677	1.068739950331
6	43152	27421.168029934809	0.748532960704
6	43155	27421.709016684618	1.12887417102
6	43175	27466.690784820746	0.90476908884
6	43207	27490.644682693251	2.21073407171
6	43225	27495.507868595118	1.413948945879
6	43252	27528.008574821767	1.50107178761
6	43262	27539.302910641187	0.738868273888
6	43270	27540.506096200076	1.425596010303
6	43315	27571.917293859829	1.544423239541
6	43330	27585.817452644196	1.2690657519
6	43335	27587.597368766807	0.86766550662
6	43340	27589.198479552749	0.979273421364
6	43345	27601.11710789091	0.554213384353
6	43350	27605.33593473823	0.603579895431
6	43360	27611.901591163076	0.943192602042
6	43365	27617.562795636861	0.591366352467
6	43387	27638.663582763854	0.470722693857
6	43395	27639.881479798174	1.488555511056
6	43407	27641.319322790953	0.9472883875
6	43425	27648.860872099706	2.575937330671
6	43442	27658.617897474046	1.595615362497
6	43450	27661.961091620155	0.406511054421
6	43460	27664.07929755558	1.793308221581
6	43505	27695.826202251884	0.422008499643
6	43530	27706.972765947551	1.22788795746
6	43545	27721.854127279504	0.706214957265
6	43555	27728.678032172584	0.592624114314
6	43560	27741.310585595181	0.570706001902
6	43565	27742.266551222342	0.81304205209
6	43585	27760.81166720497	1.39480837941
6	43595	27771.273010174468	0.86773126306
6	43610	27786.45321841332	0.903472557617
6	43615	27790.129261431388	0.856606343808
6	43632	27798.788970935197	0.441164161824
6	43657	27811.458804306746	2.817993740587
6	43665	27812.588364925873	2.753817256215
6	43692	27822.6885699393	0.88478544578
6	43710	27825.473309037982	2.853743627654
6	43725	27832.503946705793	0.44822931746
6	43730	27834.779705867244	0.686019622395
6	43735	27835.247508006663	0.45608668155
6	43747	27845.145871587248	0.805200945719
6	43760	27849.262080378712	0.911715591373
6	43765	27859.455599035287	0.870709664375
6	43770	27863.777396431074	0.806476077065
6	43775	27866.128701934849	0.713989633881
6	43780	27867.078700413455	0.636846916005
6	43790	27874.738686858333	0.647542858124
6	43842	27899.562915952269	0.502981420234
6	43860	27921.216754100811	0.470150999725
6	43880	27929.280695303559	0.661335514206
6	43890	27933.212787194117	2.000660475694
6	43895	27942.43904019886	0.829125485383
6	43915	27952.756017741523	1.204164995087
6	43927	27956.744955235725	0.894336862629
6	43962	27979.284514436484	1.677458804164
6	43970	27982.615999945245	0.805858819047
6	43985	27990.529394272491	0.959810980887
6	43997	27999.662084540603	0.51080523422
6	44005	28009.327783893245	0.793232813664
6	44010	28011.249104798239	0.549387186347
6	44032	28029.847407368407	0.679137916863
6	44037	28030.543042606883	3.485744852379
6	44040	28031.26585802941	1.382416289791
6	44050	28035.492014813896	0.545811489504
6	44057	28039.990592529954	0.699294842361
6	44062	28040.871032638432	1.191886427982
6	44065	28041.832554802395	1.351020453771
6	44140	28070.414947423135	1.937431963516
6	44145	28072.166380731445	0.94299494992
6	44160	28078.424629484686	0.711832764558
6	44165	28079.41925376923	0.584568247059
6	44172	28090.962078846754	0.662647749763
6	44180	28092.272734080667	1.910205580299
6	44210	28117.185787980735	6.347427999944
6	44215	28144.288738020092	0.789994570427
6	44265	28190.308195316793	0.85519834375
6	44280	28204.174765322527	0.429481587559
6	44285	28212.143696481117	0.756058969721
6	44300	28220.040728114529	2.218217714721
6	44305	28221.720239990178	0.768590011494
6	44310	28222.980410225777	0.626062312489
6	44325	28239.999543191136	0.695614765119
6	44330	28240.826214279277	0.424702713219
6	44340	28248.022157698609	0.939014541736
6	44345	28250.886531000273	0.633648655843
6	44365	28268.204829506812	0.805897249235
6	44370	28274.097021768868	0.904220660776
6	44375	28284.219760072706	0.470105570368
6	44385	28291.431021256594	0.473138495535
6	44400	28294.598214797853	2.331086700822
6	44405	28300.26250485977	0.860896251164
6	44415	28302.564061482421	0.793877065042
6	44427	28312.422637750149	1.467996945026
6	44440	28316.176748604752	1.313340579216
6	44480	28346.69916068747	0.852677307837
6	44495	28352.01444033986	0.798630183749
6	44510	28363.446030533139	0.730677950568
6	44520	28367.858864137319	2.032221012641
6	44570	28397.419932958161	1.501236646258
6	44577	28406.028921144303	0.812671969132
6	44585	28407.475988244816	2.065706655443
6	44590	28417.372821820381	0.759725990752
6	44595	28419.526245607773	0.839377811085
6	44655	28464.425772142479	1.300855089148
6	44690	28486.070586167058	0.411211925512
6	44722	28499.504956424937	1.30337648754
6	44790	28533.156358091515	1.678110407941
6	44795	28544.03690713357	0.835256541613
6	44807	28556.650672297676	0.7336963125
6	44825	28584.678529444504	1.33758548423
6	44847	28625.836451969223	1.526054190365
6	44850	28626.512959204122	1.993677813397
6	44875	28644.77268126624	0.743835493503
6	44882	28648.052073117088	0.944085320132
6	44890	28650.972665377834	0.849306391925
6	44905	28656.079659101952	0.559653747035
6	44917	28662.336507823437	0.732647424005
6	44920	28663.058413387581	1.239397467489
6	44930	28667.552124800608	0.630732224463
6	44940	28676.775206914096	0.435062761186
6	44950	28685.91770644601	0.806133999862
6	44960	28692.031950236179	0.661194605893
6	44970	28705.06246791766	0.942834758339
6	44990	28719.879043179526	0.791168877436
6	45025	28759.358232602278	0.541329281032
6	45055	28776.92569261526	1.556384961536
6	45060	28785.992089317468	0.958667569933
6	45085	28791.90534190946	2.345376757724
6	45090	28792.966169531686	0.776192352828
6	45105	28805.241924886189	2.754907049706
6	45115	28812.073452222426	0.49008690645
6	45120	28814.827998248434	0.708727041725
6	45125	28817.630030816098	0.92743362817
6	45145	28822.500870667272	3.627593309312
6	45160	28825.761998507426	0.776598492358
6	45180	28833.516083182421	0.925092546269
6	45190	28841.097964616631	0.64737506276
6	45195	28842.910363061054	0.746267814375
6	45210	28847.878335764963	1.168493081557
6	45215	28848.824482962577	0.577543706074
6	45222	28856.286111026456	0.775579422945
6	45285	28893.598280284284	0.960063170921
6	45290	28896.546274820502	0.43489782433
6	45305	28932.425742713607	0.775734289782
6	45320	28945.297600049813	0.499292065483
6	45335	28954.801236618201	0.782375063235
6	45365	28960.86252790599	1.154135920459
6	45375	28965.193503855998	1.107629693821
6	45400	28984.517041917484	1.273832467734
6	45410	29000.542209860219	1.824956389709
6	45425	29022.680738182363	0.886078347359
6	45470	29042.842553521552	0.454513026727
6	45485	29053.017064564027	0.654557835078
6	45520	29082.912778214029	1.781439412182
6	45525	29091.068132595341	0.799712470314
6	45530	29094.238187189826	0.417218289338
6	45535	29099.254426455078	0.534174725134
6	45555	29111.441791418142	1.631229795699
6	45565	29115.229032014595	0.573089632718
6	45570	29120.424745315323	0.523569370853
6	45575	29126.103495822016	0.471000358509
6	45580	29128.675491782816	0.605032452149
6	45585	29134.207599908934	0.807163935155
6	45590	29136.895614046288	0.935986473272
6	45605	29147.003499338231	1.657849659467
6	45615	29151.397558735729	2.051993756471
6	45655	29177.273170305192	2.651998045602
6	45685	29201.845146785871	0.791666865023
6	45690	29211.452378125651	0.472932297783
6	45727	29231.61776955926	0.89747144687
6	45760	29256.015388529716	2.475091239712
6	45774	29262.983956316599	1.852636579422
6	45785	29264.53504523907	0.920536473912
6	45832	29295.395900337544	1.731792246496
6	45842	29297.132657593355	1.603069923965
6	45852	29298.988686033717	1.536337707555
6	45870	29311.580528220435	0.777034075558
6	45890	29324.257646303976	0.634257520919
6	45904	29332.93370427685	0.899018999888
6	45940	29341.363507185066	0.705513032665
6	45955	29356.456692585461	0.716536600469
6	46005	29383.494144798735	0.990610431973
6	46014	29400.768490643588	0.929130684026
6	46017	29401.691529642579	1.350858286421
6	46025	29404.086981679904	3.667502964979
6	46040	29417.0825281081	2.136038002874
6	46045	29422.559738373259	0.490582846198
6	46070	29445.930707997276	0.667735332111
6	46090	29454.587821226031	0.875110545754
6	46100	29459.85432209857	1.980775574213
6	46110	29462.624518144149	0.872704082149
6	46117	29464.219313405956	0.950559486216
6	46120	29464.96899869548	0.836169287943
6	46135	29490.4383389222	0.942935031326
6	46140	29497.810681610202	0.636362329125
6	46145	29510.8960302134	0.748294043913
6	46190	29540.848410716173	0.790790666407
6	46200	29543.128715720886	1.580562274902
6	46215	29551.568530319374	0.767432259929
6	46220	29552.123717406852	0.505172466207
6	46240	29555.563942826465	1.04766397082
6	46250	29557.43665595466	1.152392214897
6	46262	29564.84086191299	1.165723776618
6	46285	29592.10729093691	0.640464537032
6	46290	29593.149572866539	0.699309949763
6	46320	29612.106920611308	0.412757319352
6	46335	29624.644033172747	1.769053194514
6	46370	29642.455193206505	0.686888359301
6	46392	29659.617092079438	0.653016285179
6	46417	29680.398763357662	0.776370424605
6	46420	29681.311921102973	1.425567712657
6	46470	29702.236861486591	0.925829858985
6	46485	29722.763359581568	0.62298533232
6	46495	29726.366134821202	1.503230297475
6	46507	29728.778660849778	1.278902202372
6	46515	29729.671303866913	0.604425588223
6	46525	29733.846510646323	2.874286244036
6	46542	29738.906850823469	1.922511725464
6	46560	29749.43638561759	0.753254507435
6	46572	29751.324099431896	1.282309514366
6	46580	29757.678007507323	0.918938494148
6	46587	29759.494191375069	0.750825385656
6	46595	29760.953496256103	0.551164606353
6	46610	29770.507114727597	1.427489804433
6	46645	29781.913843023677	0.925115692476
6	46650	29792.162425156162	0.492403140478
6	46662	29795.07587531904	1.065860404636
6	46670	29796.446329743753	0.899990429878
6	46680	29810.509937390947	0.765990937827
6	46705	29817.865352109373	1.616545935021
6	46717	29827.466251230978	0.527982811816
6	46720	29828.336741918412	1.354269127687
6	46725	29831.666393490595	0.858578508114
6	46749	29840.063596297007	2.973381875103
6	46752	29840.728020320971	2.43095792206
6	46794	29869.859627530282	1.16987035241
6	46797	29870.63506278128	1.316345952331
6	46822	29883.91768420368	0.980392608
6	46830	29885.075888690583	0.708282663533
6	46845	29889.305938260933	1.721370916641
6	46850	29890.20354000644	0.549642827688
6	46907	29929.246214656844	0.614089904726
6	46930	29938.442532793696	1.705741833555
6	46945	29953.598568441254	0.425539704226
6	46950	29957.206625738373	0.455409832112
6	46955	29964.584534689532	0.752256924612
6	46965	29967.054322002936	1.353122225597
6	46975	29972.961193069832	1.602103422859
6	46980	29985.005862768676	0.455565618724
6	47002	29993.03046967262	0.892369658034

