version 2
run First_exit_5-0-20191023-00:19:37-5085
attr configname First_exit_5
attr datetime 20191023-00:19:37
attr experiment First_exit_5
attr inifile omnetpp.ini
attr iterationvars ""
attr iterationvarsf ""
attr measurement ""
attr network ResponseTimeNetwork
attr processid 5085
attr repetition 0
attr replication #0
attr resultdir results
attr runnumber 0
attr seedset 0
param **.Source.interArrivalTime exponential(4s)
param **.jobPriority bernoulli(0.4)
param **.PS.serviceTimeU1 "uniform(0.4s, 1.0s)"
param **.PS.serviceTimeU2 "uniform(1s, 1.2s)"
param **.SS1.serviceTime exponential(0.4s)
param **.SS2.serviceTime exponential(0.8s)
param **.PS.exitProbability bernoulli(0.5)

vector 0 ResponseTimeNetwork.SS1 queueLength:vector ETV
attr interpolationmode sample-hold
attr title "queue length, vector"
vector 1 ResponseTimeNetwork.SS2 queueLength:vector ETV
attr interpolationmode sample-hold
attr title "queue length, vector"
vector 2 ResponseTimeNetwork.QueueU1 queueLength:vector ETV
attr interpolationmode sample-hold
attr title "queue length, vector"
vector 3 ResponseTimeNetwork.QueueU2 queueLength:vector ETV
attr interpolationmode sample-hold
attr title "queue length, vector"
vector 4 ResponseTimeNetwork.sink lifeTimeU2:vector ETV
attr interpolationmode none
attr title "lifetime of arrived jobs U2, vector"
attr unit s
vector 5 ResponseTimeNetwork.sink lifeTime:vector ETV
attr interpolationmode none
attr title "lifetime of arrived jobs, vector"
attr unit s
vector 6 ResponseTimeNetwork.sink lifeTimeU1:vector ETV
attr interpolationmode none
attr title "lifetime of arrived jobs U1, vector"
attr unit s
0	0	0	0
0	2240	947.783973032966	1
0	2241	947.810921929989	0
0	4025	1679.59316801838	1
0	4026	1679.721780406188	0
0	5490	2354.083378641067	1
0	5491	2354.191335702044	0
0	5660	2400.7258059575	1
0	5661	2401.086183753374	0
0	5665	2401.579467686589	1
0	5666	2401.597085292694	0
0	6695	2819.899929917318	1
0	6699	2820.720598440762	0
0	6910	2909.340562719305	1
0	6911	2909.991132465224	0
0	7760	3296.836339975802	1
0	7761	3297.049574460218	0
0	8180	3538.952104529416	1
0	8181	3539.193596882149	0
0	8667	3758.382107428309	1
0	8669	3758.390672173976	0
0	10341	4455.476762759739	1
0	10343	4455.543096429874	0
0	12182	5112.300087999076	1
0	12184	5112.513330384917	0
0	12217	5116.975259484712	1
0	12219	5117.17776181775	0
0	14110	5822.830014726697	1
0	14111	5822.931062506253	0
0	15315	6363.494478070261	1
0	15316	6364.089691701527	0
0	15885	6610.219733182021	1
0	15889	6610.961111688475	0
0	17441	7223.926474604706	1
0	17443	7224.376163296939	0
0	17771	7339.562160638726	1
0	17773	7339.840080002067	0
0	18222	7532.587787457526	1
0	18224	7532.894068996589	0
0	18892	7775.057237770625	1
0	18894	7775.308981592963	0
0	21610	8866.715635767641	1
0	21611	8866.744047476728	0
0	26269	10612.987778741504	1
0	26273	10613.170697239422	0
0	27094	10954.539226403607	1
0	27096	10954.562395819235	0
0	28295	11395.731821534907	1
0	28296	11395.812000350423	0
0	28437	11478.283234550657	1
0	28439	11478.60563213652	0
0	28454	11480.583893801404	1
0	28456	11480.731961108011	0
0	28757	11554.600947028415	1
0	28759	11554.744647656948	0
0	28858	11590.775544785728	1
0	28860	11591.396404050694	0
0	30742	12199.887519777958	1
0	30744	12200.413157712139	0
0	30829	12218.938928828992	1
0	30836	12220.193544071459	0
0	31198	12402.390830741422	1
0	31200	12402.857949649166	0
0	32815	12978.039238381392	1
0	32816	12978.204906004759	0
0	37670	14921.887837484301	1
0	37671	14922.040175734995	0
0	37675	14922.639596264925	1
0	37676	14922.916209734351	0
0	37685	14923.954195472718	1
0	37686	14924.218790057647	0
0	38025	15055.056550881965	1
0	38026	15055.152350585841	0
0	38030	15055.635511119597	1
0	38031	15056.151378832142	0
0	40227	15980.060706301225	1
0	40229	15980.488679782644	0
0	40840	16249.196303680195	1
0	40841	16249.376681604939	0
0	41481	16445.631032822648	1
0	41483	16445.908705669126	0
0	41489	16446.710193403898	1
0	41491	16447.028442422312	0
0	42132	16767.594098759653	1
0	42134	16767.850229306017	0
0	42884	17042.748907708647	1
0	42886	17042.800444576829	0
0	45424	17984.466185136169	1
0	45426	17984.546273066397	0
0	45680	18105.372512790661	1
0	45681	18105.422168205137	0
0	45702	18108.115298734902	1
0	45706	18109.286336591917	0
0	47037	18639.18295234323	1
0	47039	18639.363135140813	0
0	48537	19277.170111719219	1
0	48539	19277.414220202896	0
0	48735	19345.23492303563	1
0	48736	19346.065801920845	0
0	49527	19652.407643105521	1
0	49529	19652.967401871893	0
0	49725	19716.005956027527	1
0	49726	19716.10246328005	0
0	50850	20191.515892142404	1
0	50851	20191.890462841434	0
0	51060	20237.502882384829	1
0	51064	20238.47603992449	0
0	51112	20244.534149387764	1
0	51116	20245.268660092627	0
0	51120	20246.195436789415	1
0	51121	20246.810244718693	0
0	51125	20247.47982853077	1
0	51126	20247.604186186947	0
0	51765	20525.441640780172	1
0	51766	20525.591703626091	0
0	53805	21360.820654225842	1
0	53806	21360.92614721692	0
0	64995	26219.942058857651	1
0	64996	26219.999391687941	0
0	65000	26220.615337799629	1
0	65001	26220.91802657813	0
0	65050	26228.903757221608	1
0	65056	26229.351215884325	0
0	65357	26359.344323213232	1
0	65359	26359.442621192649	0
0	67470	27216.8370059022	1
0	67471	27217.143458750903	0
0	67475	27217.918038508262	1
0	67476	27218.610069465898	0
0	70682	28606.698025418747	1
0	70686	28606.909528503306	0
0	70689	28607.429430483769	1
0	70691	28608.045593268507	0
0	70694	28608.336015870118	1
0	70696	28608.711413500007	0
0	70895	28665.203610917924	1
0	70896	28665.239097908311	0
0	71841	29083.753312664382	1
0	71843	29084.002438408863	0
0	71876	29088.079418694829	1
0	71881	29089.152402222816	0
0	73734	29743.076696472763	1
0	73736	29743.077814941495	0
0	74265	29917.108192538167	1
0	74267	29917.606963218877	0
1	0	0	0
1	234	100.900117358623	1
1	236	101.104355660889	0
1	250	103.374062074313	1
1	259	104.857608801671	2
1	261	104.926835678836	1
1	263	105.08871602969	0
1	287	109.116256320601	1
1	289	109.248346831087	0
1	310	113.308776080732	1
1	311	113.446056966847	0
1	317	114.433199521192	1
1	319	114.944824870733	0
1	417	151.122481328053	1
1	419	151.167313012205	0
1	430	153.776585821333	1
1	434	154.735852016785	0
1	525	184.455746830094	1
1	531	187.398524739436	0
1	665	248.916503956209	1
1	666	249.386702531336	0
1	675	250.903113093313	1
1	676	251.05633234892	0
1	760	290.162007213348	1
1	761	290.382713490062	0
1	1650	710.414428776562	1
1	1651	711.573588686397	0
1	2145	921.182464118513	1
1	2146	921.658006994764	0
1	2154	922.584446271893	1
1	2156	922.682644053219	0
1	2930	1201.432338923439	1
1	2931	1202.592948880057	0
1	2935	1203.070166848424	1
1	2936	1206.97400396118	0
1	3480	1490.303124989236	1
1	3485	1492.489454031858	2
1	3489	1493.52140177525	1
1	3492	1494.082152334028	2
1	3499	1494.654496436927	1
1	3507	1495.603250900764	2
1	3509	1495.834566074745	1
1	3516	1496.801595585723	0
1	3780	1616.29219681513	1
1	3781	1616.328675361783	0
1	3785	1616.755418029348	1
1	3786	1616.972199181351	0
1	3790	1617.566630572849	1
1	3796	1618.928288938207	0
1	3881	1640.218887928823	1
1	3883	1640.406276476902	0
1	3932	1657.956713559654	1
1	3939	1658.96120056859	0
1	4675	1988.313185158356	1
1	4676	1988.703235268444	0
1	5207	2257.747496947476	1
1	5209	2257.846396608643	0
1	5620	2388.444545316076	1
1	5621	2388.714020364609	0
1	5625	2389.53956062516	1
1	5626	2390.326160669135	0
1	5630	2391.281055595301	1
1	5631	2391.379367191567	0
1	6080	2534.574083244004	1
1	6081	2535.34687090686	0
1	6505	2737.130511147721	1
1	6506	2737.435446758384	0
1	6510	2737.989939743888	1
1	6511	2738.46629773618	0
1	6660	2810.451631469698	1
1	6661	2812.048056170463	0
1	6725	2844.406159905885	1
1	6726	2844.927487571978	0
1	7030	2983.943849764797	1
1	7031	2986.052819276714	0
1	7245	3068.813449600305	1
1	7246	3068.957078116434	0
1	7450	3149.282751205713	1
1	7459	3150.62496958468	0
1	7474	3153.161404715541	1
1	7477	3153.916136885869	2
1	7480	3154.754912570647	3
1	7481	3155.008841453782	2
1	7485	3155.798240655531	3
1	7486	3156.507700506648	2
1	7489	3157.146890783253	1
1	7492	3157.372582821598	2
1	7494	3157.49621548059	1
1	7496	3158.361144380884	0
1	9197	4014.72223505515	1
1	9202	4015.453081215567	2
1	9206	4017.707043544122	1
1	9209	4017.718189839669	0
1	9230	4021.473515076622	1
1	9231	4022.891337232898	0
1	9540	4140.587674243653	1
1	9541	4140.870517474354	0
1	9730	4236.771648305893	1
1	9731	4238.669502562976	0
1	10110	4387.430420729857	1
1	10111	4387.940464303113	0
1	10117	4388.665415099851	1
1	10120	4389.253846718493	2
1	10121	4390.066509188841	1
1	10126	4391.474719556678	0
1	10489	4494.363390291747	1
1	10491	4495.069988274311	0
1	10509	4496.918403907106	1
1	10512	4497.650686772386	2
1	10515	4498.249777107438	3
1	10516	4498.770083356308	2
1	10520	4499.596191831384	3
1	10521	4500.167403615451	2
1	10524	4500.605718476588	1
1	10527	4500.750903742061	2
1	10531	4501.9054212359	1
1	10534	4501.940402042706	0
1	10810	4623.75842030778	1
1	10814	4624.344326286988	0
1	11135	4760.62595506752	1
1	11136	4760.960950033459	0
1	11142	4761.62463412662	1
1	11144	4762.095149172637	0
1	11222	4786.011511622692	1
1	11225	4786.618000324626	2
1	11226	4786.88027592283	1
1	11231	4787.13003924875	0
1	11236	4787.738596948798	1
1	11240	4788.045299880805	0
1	11274	4793.365487826013	1
1	11276	4793.524014577039	0
1	11286	4794.921807726103	1
1	11288	4795.419372557654	0
1	11470	4850.861521243064	1
1	11471	4851.281811668827	0
1	11780	4953.150121058305	1
1	11781	4953.432602038855	0
1	11785	4954.212190562688	1
1	11786	4955.076481900773	0
1	12075	5055.590842328194	1
1	12076	5055.593628865276	0
1	12085	5057.11091168847	1
1	12086	5059.177428403861	0
1	12987	5435.003320739824	1
1	12991	5435.679668451575	0
1	13095	5471.640181720493	1
1	13096	5472.972492210736	0
1	13112	5474.946814048878	1
1	13115	5475.796419756888	2
1	13116	5475.862515584337	1
1	13119	5475.95308192188	0
1	13124	5476.615205432292	1
1	13126	5476.654571393928	0
1	13139	5478.972535312506	1
1	13144	5480.09448055381	0
1	13147	5480.154865139867	1
1	13151	5480.952281264341	0
1	13165	5482.812229975811	1
1	13166	5482.89194173227	0
1	13195	5503.98482560673	1
1	13196	5504.536830650675	0
1	13200	5504.99557241363	1
1	13201	5506.906678708449	0
1	13274	5519.151140231704	1
1	13280	5520.818557142019	2
1	13281	5520.83214964206	1
1	13286	5521.38030269411	0
1	13289	5521.42712296914	1
1	13291	5521.632765818891	0
1	14837	6149.098360632232	1
1	14841	6150.451569694426	0
1	14980	6204.260083676964	1
1	14981	6204.369355465199	0
1	15137	6289.54931356398	1
1	15139	6290.358662353272	0
1	15147	6291.270078910595	1
1	15149	6291.366521697833	0
1	15160	6293.533448986604	1
1	15161	6295.086408495669	0
1	15225	6339.023325868432	1
1	15226	6340.014564745646	0
1	15237	6341.602913271409	1
1	15240	6342.269413733069	2
1	15241	6342.657538849446	1
1	15244	6343.22188745908	0
1	15255	6344.523659326793	1
1	15256	6345.317149711885	0
1	15565	6507.512958248595	1
1	15566	6508.103020925347	0
1	15570	6508.663158252735	1
1	15571	6509.716145646906	0
1	15575	6510.354978058495	1
1	15576	6513.19952513856	0
1	15580	6513.646713962044	1
1	15589	6514.775104997844	0
1	15602	6516.82040628502	1
1	15614	6518.40571676377	0
1	15920	6616.153352867594	1
1	15921	6616.311791249692	0
1	15925	6617.194079966239	1
1	15926	6618.129597356597	0
1	16115	6715.914294807642	1
1	16119	6717.30354242476	0
1	16140	6736.129295314428	1
1	16141	6736.767889421908	0
1	16750	6990.217784416237	1
1	16751	6991.529405838597	0
1	16755	6991.981369082277	1
1	16756	6992.277680603246	0
1	16922	7030.249377192958	1
1	16929	7031.193831375605	0
1	16932	7031.719895826903	1
1	16934	7031.961373248247	0
1	16937	7032.274954206561	1
1	16939	7032.278723157003	0
1	16955	7035.223661417298	1
1	16956	7035.825821184858	0
1	17295	7189.016614576851	1
1	17296	7189.318140814353	0
1	17367	7213.467259773423	1
1	17369	7213.508436063003	0
1	17372	7214.182284724337	1
1	17374	7214.84978227653	0
1	17387	7216.703642568036	1
1	17389	7216.794858628667	0
1	17392	7217.31476857606	1
1	17399	7218.252029729704	0
1	17739	7335.271193908018	1
1	17741	7335.549454858602	0
1	17747	7336.566540185784	1
1	17752	7337.249224833029	2
1	17759	7338.524919826886	1
1	17768	7339.433969380035	0
1	18475	7614.932445397582	1
1	18484	7616.679298212964	0
1	19035	7804.119824522108	1
1	19036	7804.388658309824	0
1	19040	7804.830827933879	1
1	19041	7805.694092775182	0
1	19045	7806.351452804542	1
1	19062	7810.41206770773	2
1	19064	7810.421094286164	1
1	19074	7812.237798612334	0
1	19077	7812.367460078569	1
1	19079	7812.534980757127	0
1	19100	7816.023849353296	1
1	19101	7816.690166157395	0
1	19107	7817.549226555512	1
1	19109	7818.17793889423	0
1	19112	7818.466205199067	1
1	19116	7820.921337050667	0
1	19587	8025.249830818978	1
1	19589	8025.832435060896	0
1	19650	8034.700529432378	1
1	19651	8035.199136865404	0
1	19675	8040.833354973653	1
1	19676	8043.849876963383	0
1	19682	8044.727124441823	1
1	19684	8045.037311490515	0
1	19755	8078.83645042705	1
1	19756	8079.200441676327	0
1	19985	8176.405173117807	1
1	19986	8176.737506146868	0
1	19990	8177.30850837822	1
1	19991	8177.803048630575	0
1	21245	8721.121451137456	1
1	21246	8721.779625193772	0
1	21435	8780.703866332929	1
1	21436	8780.858002586329	0
1	21810	8948.984903443378	1
1	21811	8949.047789485257	0
1	22250	9130.570962149172	1
1	22251	9131.339064137704	0
1	23285	9550.978429716576	1
1	23291	9553.132067261492	0
1	23297	9553.752446837532	1
1	23299	9554.211382816176	0
1	23874	9833.487306297897	1
1	23876	9834.179253753152	0
1	23879	9834.189056310477	1
1	23887	9835.638852228132	2
1	23889	9835.995462191195	1
1	23891	9836.053052237681	0
1	23894	9836.19207398682	1
1	23899	9836.691114486909	0
1	23975	9850.346093304895	1
1	23976	9852.20951170598	0
1	24275	9956.7208713295	1
1	24276	9956.766478291324	0
1	24280	9957.720128726431	1
1	24281	9957.762028421423	0
1	24407	9984.403260847606	1
1	24409	9985.086384946949	0
1	24412	9985.387840539223	1
1	24415	9985.949748851831	2
1	24416	9986.190417645725	1
1	24419	9986.449104274772	0
1	24447	9990.719421978335	1
1	24454	9992.099548375658	0
1	24632	10039.372282045356	1
1	24635	10039.887528366989	2
1	24636	10040.832218384655	1
1	24639	10041.089693326746	0
1	24656	10043.480951638851	1
1	24658	10043.48965097075	0
1	24664	10044.995618072204	1
1	24667	10045.680207029735	2
1	24672	10046.185459010727	3
1	24674	10046.367365795681	2
1	24682	10047.315215111482	3
1	24684	10048.127457386424	2
1	24689	10048.72546110161	1
1	24693	10048.865140481076	0
1	24980	10195.74617273727	1
1	24981	10195.817397797567	0
1	24985	10196.804712540929	1
1	24986	10197.211695952812	0
1	25000	10199.228896974266	1
1	25004	10199.297622982026	0
1	25342	10307.836751357738	1
1	25346	10309.150637151961	0
1	25354	10309.690770499137	1
1	25356	10310.215049658608	0
1	25366	10311.037278653084	1
1	25368	10311.078377982297	0
1	25379	10313.531654447512	1
1	25384	10314.400688143201	0
1	25387	10314.725824669199	1
1	25389	10314.87110854036	0
1	25547	10369.32391341753	1
1	25549	10369.747468982189	0
1	25585	10377.129678694571	1
1	25586	10377.500036533142	0
1	25810	10471.364765140881	1
1	25811	10472.092630178853	0
1	26322	10620.145770587598	1
1	26324	10620.307199695693	0
1	26790	10825.864942786801	1
1	26791	10826.017501096954	0
1	27158	10963.156620318916	1
1	27166	10964.805243037882	2
1	27169	10965.375928424214	3
1	27173	10966.100811267586	2
1	27182	10967.236074090152	3
1	27184	10967.490123308069	2
1	27198	10968.279844483825	1
1	27200	10968.43169248549	0
1	27206	10969.666631293492	1
1	27208	10969.780267639036	0
1	27232	10973.618160809306	1
1	27236	10976.118048602395	0
1	27240	10976.667753503803	1
1	27241	10976.67938154949	0
1	27650	11119.487359033239	1
1	27651	11120.853709750248	0
1	27730	11136.319086371023	1
1	27731	11136.325718404047	0
1	28085	11307.490286009656	1
1	28086	11307.725523805415	0
1	28554	11494.521764579036	1
1	28556	11495.0996701403	0
1	29340	11748.01206876375	1
1	29341	11748.279634001734	0
1	29915	11969.761694901339	1
1	29916	11970.136066953137	0
1	29920	11970.711982005273	1
1	29921	11973.838451077566	0
1	29925	11974.304136077185	1
1	29926	11974.42474118531	0
1	29930	11975.076115470047	1
1	29931	11975.490269374422	0
1	29945	11977.845248527132	1
1	29946	11979.380383717134	0
1	30159	12033.224720392051	1
1	30161	12033.348271760949	0
1	30196	12038.275595128863	1
1	30199	12039.062716327282	2
1	30202	12039.773030322697	3
1	30204	12040.373269656463	2
1	30206	12040.42114539351	1
1	30212	12041.416312406166	2
1	30214	12041.716541693502	1
1	30216	12041.746321461814	0
1	30275	12051.804610374897	1
1	30276	12051.977347145256	0
1	30484	12127.42261594388	1
1	30486	12127.553158051067	0
1	30590	12155.240720534623	1
1	30591	12155.374495007013	0
1	30595	12156.075188976628	1
1	30606	12157.82203356975	0
1	31239	12408.575766390628	1
1	31241	12408.900349716202	0
1	31247	12409.916815101748	1
1	31250	12410.611034794917	2
1	31251	12411.361148289368	1
1	31254	12411.822981603275	0
1	31470	12503.739748949192	1
1	31474	12504.384232290832	0
1	31487	12505.720055969935	1
1	31490	12506.551674165567	2
1	31491	12506.725016751126	1
1	31494	12506.776743914017	0
1	31497	12507.334971468229	1
1	31499	12507.388868385297	0
1	31504	12507.948418525266	1
1	31506	12508.009271467236	0
1	31755	12570.810023207607	1
1	31756	12571.911488576323	0
1	31790	12587.297326945468	1
1	31791	12587.962227170493	0
1	31872	12600.755779890386	1
1	31874	12600.907429701308	0
1	32315	12781.433963414047	1
1	32316	12782.050217079903	0
1	32560	12889.670049269058	1
1	32561	12890.400895595163	0
1	32570	12891.456327918809	1
1	32571	12891.613276010365	0
1	32575	12892.377703651446	1
1	32576	12892.524315313726	0
1	32690	12925.620875330295	1
1	32691	12926.18100797036	0
1	32992	13050.827906266349	1
1	33001	13053.056421502749	0
1	33007	13053.89139950464	1
1	33009	13054.407925012128	0
1	33012	13054.597527816635	1
1	33014	13055.290592071241	0
1	33314	13214.442047071513	1
1	33322	13215.931591789946	2
1	33326	13216.894196482788	1
1	33329	13217.253816352987	0
1	33382	13226.216327159296	1
1	33386	13227.306223701256	0
1	33720	13352.848643247195	1
1	33721	13353.151483489861	0
1	33752	13357.614489192151	1
1	33754	13358.222245041984	0
1	33769	13360.492634592027	1
1	33771	13361.090573697546	0
1	33801	13365.174079174231	1
1	33803	13365.381573909924	0
1	34140	13510.394133739214	1
1	34141	13510.653623823132	0
1	34145	13511.61980979383	1
1	34146	13511.938214881531	0
1	34417	13638.186471964613	1
1	34421	13638.553548178576	0
1	34427	13639.898007646165	1
1	34429	13639.899888501033	0
1	35210	13944.476429241196	1
1	35211	13944.878440458473	0
1	35217	13945.81590194442	1
1	35221	13946.561948727192	0
1	35422	14006.993225465003	1
1	35424	14007.029024451607	0
1	35482	14017.451978365076	1
1	35484	14017.501020134975	0
1	35489	14018.396791712032	1
1	35491	14018.476422093994	0
1	35494	14018.875432655285	1
1	35499	14019.577220822012	0
1	35665	14083.794179714123	1
1	35666	14084.811906034071	0
1	35705	14092.543700556569	1
1	35706	14093.030208712969	0
1	35902	14198.736178742535	1
1	35905	14199.546604498382	2
1	35906	14199.952148814945	1
1	35910	14200.370181828345	2
1	35914	14202.011374721246	1
1	35920	14202.734427933857	2
1	35926	14203.483925918137	1
1	35929	14203.611561946763	0
1	35932	14204.077680695589	1
1	35934	14204.409444367352	0
1	36077	14272.034911243145	1
1	36081	14272.815856696234	0
1	36955	14649.000366827623	1
1	36956	14649.326573894077	0
1	37302	14749.322716092104	1
1	37305	14749.986757614482	2
1	37306	14751.089993418909	1
1	37309	14751.273532062248	0
1	37465	14836.771181246338	1
1	37466	14838.697176208599	0
1	37765	14945.674091547906	1
1	37766	14945.692250770181	0
1	38455	15221.691098389474	1
1	38456	15222.209890292905	0
1	38727	15314.885949661476	1
1	38731	15315.357634373658	0
1	38797	15346.037485836631	1
1	38801	15346.570303340142	0
1	38807	15347.480635811321	1
1	38809	15348.121958769152	0
1	38812	15348.248519061997	1
1	38814	15348.491533313363	0
1	38844	15352.863614146296	1
1	38851	15353.945673325961	0
1	39300	15562.285369757155	1
1	39304	15562.511798633695	0
1	39315	15564.923055788199	1
1	39316	15567.269596622747	0
1	39520	15652.046287580398	1
1	39521	15652.480269515377	0
1	39525	15653.414663863045	1
1	39526	15653.478608719787	0
1	39530	15654.43122794625	1
1	39531	15654.609895234909	0
1	39560	15663.941885095817	1
1	39561	15664.146273616796	0
1	39569	15664.942397447351	1
1	39574	15666.13171785616	0
1	39577	15666.435167069083	1
1	39581	15666.873894953033	0
1	40010	15883.449723324735	1
1	40011	15884.435997541842	0
1	40025	15886.701869545539	1
1	40026	15887.222058958661	0
1	40030	15887.814415992432	1
1	40031	15887.822700545766	0
1	40160	15949.000975410005	1
1	40161	15949.204740678089	0
1	40510	16096.456014565989	1
1	40511	16097.379831883536	0
1	40667	16190.08843591239	1
1	40671	16191.868644423328	0
1	41259	16389.011640617396	1
1	41261	16389.067654990859	0
1	42037	16689.167053750561	1
1	42039	16689.302759540485	0
1	42210	16781.47506892435	1
1	42211	16781.627382755301	0
1	42215	16782.261565258608	1
1	42221	16784.469379060621	0
1	42225	16784.918632126412	1
1	42229	16785.176449642784	0
1	42235	16786.646597979473	1
1	42236	16787.034132401435	0
1	42455	16872.774712471027	1
1	42456	16873.585750912977	0
1	42460	16874.102863686075	1
1	42461	16874.383971002294	0
1	42647	16969.24811432887	1
1	42651	16970.340070527555	0
1	42660	16971.454118676619	1
1	42661	16972.491508178561	0
1	42665	16973.233596070119	1
1	42674	16974.313573687977	0
1	42730	17000.276800041617	1
1	42734	17000.934763852228	0
1	42800	17027.026145411447	1
1	42801	17027.044179401219	0
1	42810	17028.559940537808	1
1	42814	17029.353547766226	0
1	42830	17031.916628737955	1
1	42831	17032.32977724437	0
1	42835	17033.053542308867	1
1	42836	17033.649653870897	0
1	42955	17053.384132313953	1
1	42956	17053.618168955105	0
1	43050	17074.815693673081	1
1	43051	17074.881235621666	0
1	43265	17159.268299419014	1
1	43274	17160.274830427466	0
1	43350	17199.521844820828	1
1	43351	17199.781173393612	0
1	43355	17200.776016650086	1
1	43356	17200.902585599393	0
1	43575	17306.973012344472	1
1	43579	17307.347200044324	0
1	43785	17403.504352649043	1
1	43786	17404.095037738913	0
1	44472	17648.878045490361	1
1	44475	17649.597419479187	2
1	44476	17651.400841322496	1
1	44482	17652.320085826238	2
1	44484	17652.637852620932	1
1	44487	17652.86621776987	2
1	44490	17653.456315735449	3
1	44491	17653.602571969818	2
1	44494	17653.63810296063	1
1	44499	17654.522181343672	2
1	44504	17655.126501640969	3
1	44509	17656.031817499354	2
1	44516	17656.499123001075	1
1	44523	17657.444069458366	0
1	44565	17664.705128616804	1
1	44566	17665.638656346528	0
1	44665	17691.900633255278	1
1	44666	17692.387492501788	0
1	45132	17914.290809503412	1
1	45134	17914.461983872563	0
1	45165	17918.868613047833	1
1	45166	17918.988640485855	0
1	45282	17939.024556623371	1
1	45284	17939.392501371453	0
1	45865	18177.593157104395	1
1	45866	18177.855739845418	0
1	45962	18209.113555378547	1
1	45967	18209.588054948893	2
1	45969	18209.867552017428	1
1	45972	18210.190472754637	2
1	45976	18211.821608457754	1
1	45980	18212.483820926345	2
1	45981	18213.59810665448	1
1	45985	18214.535681911072	2
1	45986	18214.820497179474	1
1	45989	18214.828263117227	0
1	46314	18358.944142335165	1
1	46316	18359.192690189727	0
1	46319	18359.62429952093	1
1	46323	18360.150376358989	0
1	46326	18360.157535156352	1
1	46328	18360.472930432419	0
1	47107	18653.742706124375	1
1	47109	18654.097453969969	0
1	47475	18824.011249096927	1
1	47479	18825.824301427802	0
1	47490	18827.602156784096	1
1	47491	18829.915111453	0
1	47495	18830.788903020935	1
1	47496	18831.368756062509	0
1	47999	19092.655659947133	1
1	48004	19093.853277283606	0
1	48070	19122.254873443121	1
1	48071	19122.55484011401	0
1	48147	19144.485934053903	1
1	48151	19145.264493096563	0
1	48154	19145.476972244849	1
1	48156	19145.714720989249	0
1	48544	19277.794462753439	1
1	48546	19278.354849269615	0
1	48635	19324.247219950082	1
1	48636	19327.024620661374	0
1	49115	19496.100095959327	1
1	49116	19498.711586886249	0
1	49805	19754.067299433518	1
1	49806	19754.984490805325	0
1	50340	19983.389447517025	1
1	50341	19984.153458336378	0
1	50347	19984.768917136509	1
1	50350	19985.228092941931	2
1	50351	19985.277869330259	1
1	50354	19985.365126330472	0
1	50630	20109.084092594271	1
1	50631	20109.367477839411	0
1	51805	20541.555018059566	1
1	51806	20545.309364010524	0
1	51815	20546.611370443776	1
1	51819	20546.833653001591	0
1	51841	20549.556049360745	1
1	51843	20549.640000862897	0
1	52225	20774.339471938228	1
1	52226	20774.824737348034	0
1	52264	20779.798134346491	1
1	52266	20780.261744986826	0
1	52279	20781.659747123205	1
1	52284	20782.815242829709	0
1	52287	20783.337221051519	1
1	52291	20783.849309031514	0
1	52294	20784.000710502639	1
1	52296	20784.110787134108	0
1	52302	20785.18060077317	1
1	52304	20785.699915598728	0
1	52307	20785.807751955231	1
1	52312	20786.401212921133	2
1	52315	20786.955983690871	3
1	52316	20787.916846618779	2
1	52319	20788.176817239713	1
1	52327	20789.297552229675	2
1	52332	20790.072626025627	3
1	52334	20790.266152522232	2
1	52336	20790.343535847805	1
1	52338	20790.395176893732	0
1	52341	20790.971272360372	1
1	52347	20792.134776878428	2
1	52349	20792.225648836317	1
1	52351	20792.25141539396	0
1	52730	20960.182125258142	1
1	52731	20961.421763461405	0
1	52740	20962.672623794615	1
1	52741	20963.024678762483	0
1	53290	21179.724830699193	1
1	53291	21181.123723624617	0
1	53360	21202.323952836272	1
1	53364	21203.375409393294	0
1	53687	21340.054501781128	1
1	53689	21340.581807134361	0
1	53856	21367.363425726153	1
1	53858	21367.72354021038	0
1	53864	21369.063179989846	1
1	53866	21369.383534222777	0
1	53869	21369.803390251414	1
1	53875	21371.071469849895	2
1	53876	21372.87791205878	1
1	53879	21372.889650026957	0
1	53882	21373.573979304597	1
1	53889	21374.831573457717	0
1	53892	21374.999965608917	1
1	53894	21375.36971321531	0
1	53985	21394.44582740537	1
1	53986	21395.63318649661	0
1	54077	21432.290263494343	1
1	54079	21432.358936685841	0
1	54307	21536.246896339654	1
1	54309	21536.265459620764	0
1	54312	21536.714361380999	1
1	54314	21536.748948921215	0
1	54485	21608.226679327105	1
1	54486	21609.317535336015	0
1	54625	21684.069598484718	1
1	54626	21684.509133398702	0
1	54700	21701.294774309381	1
1	54701	21701.803246270462	0
1	54705	21702.296005534676	1
1	54711	21704.6819803986	0
1	54715	21705.505248050834	1
1	54716	21705.749315328554	0
1	55285	22003.719054315592	1
1	55286	22004.255832819941	0
1	55425	22065.308798405132	1
1	55426	22065.788161270936	0
1	56142	22387.412979780469	1
1	56151	22389.350508118399	0
1	56190	22395.11228308722	1
1	56191	22395.721470996176	0
1	56530	22541.553838588115	1
1	56531	22542.635065219611	0
1	56585	22573.477565528832	1
1	56586	22573.609432190545	0
1	56595	22574.916739557013	1
1	56596	22575.731079766626	0
1	56640	22589.824226270002	1
1	56641	22590.290345498726	0
1	56760	22630.439003545373	1
1	56761	22632.110371387529	0
1	56765	22632.987286834896	1
1	56766	22634.394025975274	0
1	56975	22728.46607726757	1
1	56976	22728.477607847844	0
1	57042	22740.972261170252	1
1	57047	22741.829456904624	2
1	57049	22742.164728027861	1
1	57052	22742.268043070054	2
1	57055	22742.840949667711	3
1	57059	22743.832645708454	2
1	57066	22744.410138438047	1
1	57076	22746.586358290589	0
1	57079	22746.658742431865	1
1	57081	22746.984621646475	0
1	58044	23210.686657145689	1
1	58049	23211.56223076308	0
1	58065	23213.768839778075	1
1	58066	23214.555050927894	0
1	58075	23217.297893991706	1
1	58076	23217.756928717529	0
1	58245	23297.66204664835	1
1	58246	23297.948571246643	0
1	58517	23394.732697894444	1
1	58519	23394.794473851745	0
1	58529	23396.364527309333	1
1	58531	23396.577188272557	0
1	58549	23399.576868968477	1
1	58551	23399.76549603074	0
1	58554	23400.357845196008	1
1	58557	23400.781718655695	2
1	58564	23401.510591838268	1
1	58569	23402.427661635128	0
1	58870	23554.04030397036	1
1	58871	23554.444816661661	0
1	59050	23660.061151436	1
1	59061	23661.790681012591	0
1	59064	23662.06089451235	1
1	59071	23663.347079045904	0
1	59074	23663.443434434163	1
1	59076	23663.494195827185	0
1	59096	23666.319161370502	1
1	59098	23666.418820869193	0
1	59114	23668.985677703109	1
1	59119	23669.79059332126	2
1	59121	23670.028540908648	1
1	59123	23670.35661877592	0
1	59126	23670.367210440768	1
1	59128	23670.68976711682	0
1	59190	23680.077607181307	1
1	59191	23680.705718625613	0
1	59220	23686.36227375396	1
1	59224	23686.432671438891	0
1	59227	23687.097971524642	1
1	59229	23687.150644835058	0
1	59405	23761.621542627789	1
1	59406	23762.366032805213	0
1	60415	24284.115128742483	1
1	60416	24284.247341103377	0
1	61167	24670.356707369195	1
1	61170	24670.85737777132	2
1	61179	24672.256077083678	1
1	61186	24673.197875900233	0
1	61612	24833.76641729189	1
1	61614	24834.017045620166	0
1	61770	24885.14063059508	1
1	61771	24885.145894527107	0
1	61810	24893.969898657229	1
1	61811	24893.983241752602	0
1	61827	24896.366920860272	1
1	61829	24896.376690326718	0
1	61970	24941.26245402199	1
1	61971	24941.288446039148	0
1	62200	25039.437976683468	1
1	62201	25039.888395566849	0
1	62694	25226.416044255975	1
1	62704	25228.217572651381	0
1	62712	25229.218825827283	1
1	62719	25229.997254510998	0
1	62765	25251.106773954198	1
1	62766	25251.193437007541	0
1	62832	25265.982267155085	1
1	62836	25267.164224797141	0
1	63145	25390.256848522249	1
1	63146	25390.443810341495	0
1	64795	26125.400121519618	1
1	64796	26126.084017279668	0
1	66165	26712.101165874813	1
1	66166	26712.857751151603	0
1	66190	26717.097890829851	1
1	66191	26717.33601009435	0
1	66315	26760.258847473765	1
1	66316	26760.881484873975	0
1	66420	26787.814503688727	1
1	66421	26790.736444421374	0
1	66505	26824.296664784792	1
1	66509	26824.917998964479	0
1	67132	27079.515312156773	1
1	67141	27080.881958615322	0
1	67610	27277.693301407267	1
1	67611	27277.960269387289	0
1	67630	27280.804149959505	1
1	67631	27280.962526447546	0
1	67990	27422.18892239097	1
1	67991	27422.242986274264	0
1	68000	27423.586735477285	1
1	68001	27423.778678097165	0
1	68160	27457.034356055209	1
1	68161	27457.572805713484	0
1	68325	27565.875853115418	1
1	68326	27567.372976323718	0
1	68800	27768.858235831809	1
1	68801	27770.034676415758	0
1	68805	27770.50300073559	1
1	68806	27772.106036504425	0
1	69080	27894.708196088697	1
1	69081	27894.733198696891	0
1	69625	28180.391230333104	1
1	69626	28181.100452448604	0
1	69660	28188.666485140989	1
1	69661	28188.729614141542	0
1	69665	28189.162408259889	1
1	69666	28189.560265382117	0
1	69670	28190.33859627514	1
1	69671	28190.551439385086	0
1	69830	28237.980180908476	1
1	69831	28239.153260615579	0
1	69935	28274.844706316877	1
1	69936	28275.115724299182	0
1	69960	28278.988368376981	1
1	69966	28279.992339854038	0
1	69970	28280.844148689557	1
1	69971	28281.055981927464	0
1	69975	28281.46932306551	1
1	69976	28281.946767731801	0
1	70315	28463.441353092536	1
1	70316	28464.24711409493	0
1	70322	28465.230747369515	1
1	70324	28465.638229094176	0
1	70782	28631.736424218444	1
1	70786	28632.922595853583	0
1	71322	28866.495178546684	1
1	71326	28867.24018070458	0
1	71440	28902.955125345561	1
1	71441	28903.865731384481	0
1	72165	29192.493367208483	1
1	72166	29193.870018756626	0
1	72312	29244.086517913387	1
1	72316	29246.295245355715	0
1	72374	29255.464014046908	1
1	72376	29256.438506659196	0
1	72379	29256.450379988168	1
1	72381	29256.526099912155	0
1	72387	29257.546340296966	1
1	72389	29257.709885968373	0
1	72440	29288.324252874707	1
1	72441	29288.944533384196	0
1	72687	29382.837764130679	1
1	72689	29383.098497160296	0
1	72875	29431.108998371243	1
1	72876	29431.257391227381	0
1	72880	29431.906201319042	1
1	72881	29432.451448651455	0
1	73035	29487.255048359712	1
1	73036	29489.427971509207	0
1	73040	29490.190197644817	1
1	73041	29490.461733238564	0
1	73225	29569.856203806705	1
1	73229	29570.471800928837	0
1	73790	29750.729433929974	1
1	73791	29751.010587772038	0
1	73867	29789.357984329145	1
1	73871	29789.993414504545	0
1	73892	29792.612778652364	1
1	73894	29792.640855641517	0
1	73925	29798.183138631236	1
1	73926	29798.511061199952	0
1	73965	29814.812264059764	1
1	73966	29814.96704252193	0
1	74050	29831.978549914347	1
1	74051	29832.446767693735	0
2	0	0	0
2	70	43.090183866866	1
2	71	43.370638839309	0
2	95	55.453050661723	1
2	96	55.466423155028	0
2	115	63.643786922492	1
2	116	63.769759834255	0
2	125	64.664302543455	1
2	126	65.184711163142	0
2	155	86.819009917949	1
2	156	86.907220729484	0
2	165	87.982784862186	1
2	166	88.087420984447	0
2	185	91.182195718481	1
2	188	91.820504370434	0
2	215	98.509802492062	1
2	216	98.909318826871	0
2	232	100.724080251859	1
2	233	100.900117358623	0
2	315	114.135831787805	1
2	316	114.433199521192	0
2	325	115.495421241865	1
2	326	116.098677189081	0
2	390	145.616217902694	1
2	391	146.460781288856	0
2	400	147.581978401414	1
2	401	147.857065203797	0
2	415	150.212744494504	1
2	416	151.122481328053	0
2	490	167.224367896119	1
2	491	167.578774242303	0
2	720	279.473625557023	1
2	721	280.19811693337	0
2	880	357.276338409672	1
2	881	357.714397433693	0
2	890	358.640319154832	1
2	891	359.506461882	0
2	925	367.062965388192	1
2	926	367.416058438647	0
2	970	394.439174209422	1
2	971	395.335462369163	0
2	975	395.939647009653	1
2	976	396.011375896398	0
2	985	396.47017481717	1
2	986	397.119842258001	0
2	1020	404.321202402955	1
2	1021	404.488581791771	0
2	1070	427.985669061197	1
2	1071	428.465917031554	0
2	1200	508.180383153485	1
2	1201	508.251465063933	0
2	1270	562.462371524603	1
2	1271	563.042558376978	0
2	1287	565.320680548186	1
2	1288	565.745029978522	0
2	1297	566.550941307598	1
2	1298	567.252559711806	0
2	1305	568.260786157167	1
2	1306	568.423754319104	0
2	1320	570.951737244019	1
2	1321	571.522170203269	0
2	1340	574.764678109664	1
2	1343	575.611571560852	0
2	1390	590.58202891444	1
2	1391	590.781518975949	0
2	1399	591.382337842552	1
2	1400	591.718750506757	0
2	1404	592.077571712399	1
2	1405	592.273971896969	0
2	1412	593.150205993254	1
2	1413	593.534536147794	0
2	1420	594.340641715299	1
2	1421	595.079572854961	0
2	1527	656.093936263584	1
2	1528	656.099439183996	0
2	1620	699.183547376099	1
2	1621	699.476451133658	0
2	1635	706.885022680302	1
2	1636	707.733884158763	0
2	1662	713.078337885541	1
2	1663	713.14557598192	0
2	1672	714.31994682204	1
2	1673	714.528138955642	0
2	1682	715.503436994388	1
2	1683	715.625642461801	0
2	1705	720.829868484527	1
2	1706	721.815503387043	0
2	1720	724.216153033488	1
2	1721	724.415984643968	0
2	1725	724.622466025943	1
2	1726	724.986384631526	0
2	1750	734.324668972038	1
2	1751	734.871926185312	0
2	1785	766.14722113521	1
2	1786	766.228725682759	0
2	1815	769.368568419607	1
2	1816	769.971401304801	0
2	1860	816.509690786859	1
2	1861	816.736683400708	0
2	1870	817.681978735082	1
2	1871	818.094832685997	0
2	1890	826.358607398808	1
2	1891	826.695931995612	0
2	1895	827.141077520257	1
2	1896	827.170238646957	0
2	1902	827.947518869488	1
2	1903	827.99849876901	0
2	1907	828.202270173098	1
2	1908	828.411682950471	0
2	1912	828.599526163322	1
2	1913	829.180399567679	0
2	1945	835.476739884849	1
2	1948	835.713658002479	0
2	1955	836.963345166051	1
2	1956	837.276849520481	0
2	1965	838.153061621517	1
2	1966	838.614930701624	0
2	2025	858.287436786518	1
2	2026	858.92977898422	0
2	2030	859.257882581264	1
2	2031	859.876497280163	0
2	2040	860.96896958063	1
2	2041	861.327226100987	0
2	2050	862.570576620321	1
2	2051	862.868541054581	0
2	2100	887.558258317513	1
2	2101	888.212915207622	0
2	2105	888.857525536098	1
2	2106	889.124027431048	0
2	2110	889.230175414158	1
2	2113	889.552111243354	0
2	2150	922.369228801043	1
2	2152	922.50304783755	2
2	2153	922.584446271893	1
2	2158	923.13305728283	0
2	2162	923.475523745792	1
2	2163	924.048323763686	0
2	2205	941.103854158024	1
2	2206	941.331191252525	0
2	2215	941.939655247796	1
2	2216	942.714507897086	0
2	2235	946.396367490014	1
2	2236	947.201453817853	0
2	2245	947.842261850426	1
2	2246	948.23285852324	0
2	2250	948.441830220579	1
2	2251	948.697429146737	0
2	2335	988.62584602667	1
2	2336	988.914620050901	0
2	2365	992.569961247489	1
2	2366	993.062510201376	0
2	2477	1051.198717724788	1
2	2478	1051.701676852975	0
2	2487	1052.478893319562	1
2	2488	1053.22215072482	0
2	2505	1055.639772180468	1
2	2506	1056.130259454794	0
2	2595	1079.545286253147	1
2	2596	1079.698486483009	0
2	2665	1110.834392510188	1
2	2666	1111.258745016091	0
2	2695	1125.568318472249	1
2	2696	1125.917681703678	0
2	2705	1126.667961415853	1
2	2706	1127.139345407494	0
2	2715	1129.228617875082	1
2	2716	1129.777344174151	0
2	2725	1130.91915344731	1
2	2727	1131.244925832032	2
2	2728	1131.269974540201	1
2	2733	1132.068953359713	0
2	2877	1184.575155628417	1
2	2878	1185.082453627728	0
2	2890	1186.427183411703	1
2	2891	1186.862977506529	0
2	2900	1187.701280719461	1
2	2901	1188.375787132216	0
2	2985	1225.991629629155	1
2	2986	1226.693882132279	0
2	2990	1226.770317023521	1
2	2991	1227.300964796128	0
2	3115	1312.503788638221	1
2	3116	1312.613182387372	0
2	3170	1358.357111858807	1
2	3171	1358.382817359909	0
2	3192	1362.724396793511	1
2	3193	1363.393556076432	0
2	3200	1364.030528647259	1
2	3201	1364.719221928673	0
2	3210	1370.162135282276	1
2	3211	1370.582765327295	0
2	3225	1374.747801558683	1
2	3226	1374.834340856912	0
2	3230	1375.465836342637	1
2	3231	1375.6173749213	0
2	3255	1379.835316147472	1
2	3256	1380.371045152346	0
2	3267	1380.9526786028	1
2	3268	1381.445920784275	0
2	3279	1382.452437989874	1
2	3280	1383.052133262545	0
2	3289	1384.000858612394	1
2	3290	1384.719127224959	0
2	3300	1386.884123293218	1
2	3301	1387.178481544103	0
2	3505	1495.263789993687	1
2	3506	1495.603250900764	0
2	3515	1496.609630351027	1
2	3520	1496.872746671518	0
2	3527	1497.83013135951	1
2	3528	1497.957124883836	0
2	3539	1499.15191147765	1
2	3541	1499.267107803054	2
2	3542	1499.715212986726	1
2	3545	1500.3179175086	0
2	3665	1573.06830150876	1
2	3668	1574.020787161841	0
2	3677	1574.673773360736	1
2	3679	1574.774005459348	2
2	3680	1575.256045010473	1
2	3683	1575.875932974342	0
2	3690	1576.681270676676	1
2	3691	1577.189413077591	0
2	3700	1578.858237340049	1
2	3701	1579.161943270147	0
2	3820	1626.906475672364	1
2	3821	1627.28729984108	0
2	3922	1656.219118642273	1
2	3925	1656.968602753047	0
2	3935	1658.017230835044	1
2	3936	1658.614800929081	0
2	3960	1662.443636324191	1
2	3961	1662.608296407135	0
2	3970	1663.630054838903	1
2	3971	1664.469892052961	0
2	3987	1670.189858600944	1
2	3988	1670.301861918076	0
2	4030	1679.773862880447	1
2	4031	1680.584435546228	0
2	4035	1680.885017337688	1
2	4036	1681.02048232259	0
2	4050	1684.26442208325	1
2	4051	1684.380257721437	0
2	4055	1684.398645889061	1
2	4056	1684.860761903372	0
2	4110	1708.810857552068	1
2	4113	1709.025385682088	0
2	4120	1709.704003975645	1
2	4123	1710.018655337337	0
2	4130	1711.45723706536	1
2	4131	1711.801395918605	0
2	4165	1733.174347381445	1
2	4166	1733.318829301987	0
2	4205	1763.132141543165	1
2	4206	1763.724908718488	0
2	4215	1764.477994109794	1
2	4218	1765.131145151353	0
2	4229	1766.38273668752	1
2	4230	1766.850154979036	0
2	4320	1815.574339925113	1
2	4321	1815.960357366279	0
2	4340	1834.121382113218	1
2	4341	1834.440088726334	0
2	4400	1876.713614417298	1
2	4401	1877.223553896038	0
2	4410	1879.273181084568	1
2	4411	1879.774721874658	0
2	4595	1960.306211287813	1
2	4597	1960.526273716535	2
2	4598	1960.897447582197	1
2	4602	1961.327999434316	2
2	4603	1961.413448368714	1
2	4608	1962.11736737923	0
2	4620	1963.778359874411	1
2	4621	1964.647504596088	0
2	4780	2049.842712831825	1
2	4781	2050.076826520342	0
2	4785	2050.187936125942	1
2	4786	2050.590065846111	0
2	4795	2051.762808274268	1
2	4796	2052.133010762169	0
2	4815	2061.811379887408	1
2	4816	2062.239056841833	0
2	4897	2115.175463492073	1
2	4898	2115.524256783763	0
2	4905	2116.169019095754	1
2	4906	2116.523460761915	0
2	4920	2118.138461967195	1
2	4921	2118.691054948263	0
2	4930	2119.49612037712	1
2	4931	2119.803444927076	0
2	4960	2128.653813492454	1
2	4961	2129.222060895975	0
2	4985	2135.929389439089	1
2	4986	2136.416039840873	0
2	5190	2254.627209690609	1
2	5193	2255.105778112139	0
2	5235	2265.184782800532	1
2	5236	2265.668330498932	0
2	5245	2266.529791804201	1
2	5248	2267.251916887479	0
2	5295	2285.571303118216	1
2	5298	2286.14125495647	0
2	5370	2317.423623546762	1
2	5371	2318.340713349725	0
2	5380	2319.582363311125	1
2	5381	2319.962901163515	0
2	5480	2352.268283379393	1
2	5481	2352.565136119017	0
2	5485	2352.707102940572	1
2	5486	2353.496449702505	0
2	5495	2354.578931364476	1
2	5496	2354.86576891994	0
2	5500	2355.407986291828	1
2	5501	2355.652407206184	0
2	5510	2356.491130001905	1
2	5511	2357.043382002002	0
2	5527	2360.986148344975	1
2	5528	2361.637537955533	0
2	5539	2362.955391426847	1
2	5540	2363.345843060635	0
2	5550	2364.659309016987	1
2	5551	2365.001180942257	0
2	5570	2368.142898797732	1
2	5571	2368.928490854114	0
2	5585	2375.880825751987	1
2	5586	2376.151610670508	0
2	5595	2380.89129710374	1
2	5596	2381.253291137669	0
2	5655	2399.735682387154	1
2	5656	2399.851037023055	0
2	5670	2401.626151748793	1
2	5671	2402.383403717411	0
2	5675	2402.662083612292	1
2	5676	2403.127799937745	0
2	5895	2494.689075066446	1
2	5896	2494.76517466077	0
2	5912	2496.349770971274	1
2	5913	2496.567604821593	0
2	6020	2525.103552721565	1
2	6021	2525.555938253128	0
2	6025	2526.153034284376	1
2	6026	2526.380954412553	0
2	6030	2526.392837566995	1
2	6033	2526.827026158846	0
2	6037	2526.958166725035	1
2	6038	2527.771990014468	0
2	6042	2527.982380274302	1
2	6043	2528.765462797223	0
2	6047	2529.240974779354	1
2	6048	2529.759177846177	0
2	6052	2530.172774858138	1
2	6055	2530.711015829113	0
2	6059	2531.207928027423	1
2	6060	2531.58372549633	0
2	6115	2544.16485693304	1
2	6116	2544.570194205975	0
2	6130	2546.566749974081	1
2	6131	2547.218660893104	0
2	6150	2555.658379483622	1
2	6151	2556.233358942385	0
2	6175	2565.004701406708	1
2	6176	2565.164485046854	0
2	6180	2565.474838678389	1
2	6181	2566.156946037784	0
2	6200	2574.233739792412	1
2	6201	2574.254867294611	0
2	6205	2574.311417402309	1
2	6208	2574.894834823202	0
2	6215	2575.707663366891	1
2	6216	2575.997661941073	0
2	6240	2581.016950559328	1
2	6241	2581.629095255502	0
2	6632	2804.508822505346	1
2	6633	2804.803425421835	0
2	6675	2816.314976363051	1
2	6676	2816.753250178502	0
2	6680	2816.849805708117	1
2	6681	2817.44191135824	0
2	6685	2818.279106560164	1
2	6686	2818.293662385729	0
2	6690	2818.667521169612	1
2	6691	2819.248436076886	0
2	6700	2820.720598440762	1
2	6702	2820.858534333574	2
2	6703	2820.87373187347	1
2	6706	2821.739532078483	0
2	6760	2865.925447701271	1
2	6761	2866.44911050526	0
2	6805	2876.960918498073	1
2	6806	2877.392350359002	0
2	6815	2878.536662547739	1
2	6816	2879.17802102605	0
2	6855	2896.916621939818	1
2	6856	2897.250874822971	0
2	6860	2897.613270359854	1
2	6861	2897.89504266294	0
2	6865	2897.91325490075	1
2	6866	2898.313051647798	0
2	6870	2898.359528187175	1
2	6871	2898.828780070239	0
2	6885	2904.758325990454	1
2	6886	2905.524782168634	0
2	6895	2906.887252782018	1
2	6896	2907.007240779431	0
2	6900	2907.255765836491	1
2	6901	2907.902757765551	0
2	6905	2908.488359959509	1
2	6906	2908.78893222512	0
2	6915	2910.309180493739	1
2	6916	2910.951440280988	0
2	6975	2946.250385925618	1
2	6976	2946.680527930431	0
2	7037	2986.554560049107	1
2	7039	2986.673701992364	2
2	7040	2986.824682530222	1
2	7045	2987.251039488308	0
2	7052	2988.001140837419	1
2	7053	2988.490194695183	0
2	7095	2997.128962845302	1
2	7096	2997.780953490738	0
2	7110	3000.032251912344	1
2	7111	3000.045268812911	0
2	7325	3105.327247166957	1
2	7326	3105.654762118949	0
2	7330	3106.019948311205	1
2	7331	3106.359343401516	0
2	7335	3106.541557888975	1
2	7336	3107.025055471702	0
2	7345	3108.872470444266	1
2	7346	3108.879433912821	0
2	7390	3125.607635595413	1
2	7391	3125.675620668589	0
2	7395	3126.288309108487	1
2	7396	3126.536348762291	0
2	7575	3201.452005800494	1
2	7576	3202.041761218418	0
2	7585	3203.027881572895	1
2	7586	3203.48080334094	0
2	7645	3238.836127763416	1
2	7646	3239.054398381713	0
2	7650	3239.564076623679	1
2	7651	3239.953060937117	0
2	7655	3240.056147471223	1
2	7656	3240.613690286738	0
2	7670	3247.583617814652	1
2	7671	3248.220571483952	0
2	7675	3248.596358441517	1
2	7676	3248.710626286176	0
2	7725	3285.753415526704	1
2	7726	3286.302881176866	0
2	7735	3287.489591418357	1
2	7736	3287.888851559305	0
2	7765	3297.12867832835	1
2	7766	3297.815022047039	0
2	7810	3328.8800713504	1
2	7811	3329.121014101976	0
2	7840	3384.102786407942	1
2	7841	3384.99700832923	0
2	7845	3385.038780909864	1
2	7846	3385.487372249896	0
2	7850	3385.847765737566	1
2	7851	3386.260863173306	0
2	7950	3421.313026408339	1
2	7951	3421.480914540623	0
2	7955	3422.010731945418	1
2	7956	3422.267942375957	0
2	8065	3481.424652834762	1
2	8066	3481.74805661136	0
2	8070	3481.989790146848	1
2	8071	3482.247049973474	0
2	8155	3535.005005103631	1
2	8156	3535.665649768714	0
2	8160	3535.751939501725	1
2	8161	3536.117781173488	0
2	8165	3536.484689364607	1
2	8166	3537.012962746298	0
2	8170	3537.124815391913	1
2	8171	3537.941892048534	0
2	8175	3538.299867500085	1
2	8176	3538.547732207974	0
2	8185	3539.243252012408	1
2	8186	3539.637869071131	0
2	8190	3539.983397290313	1
2	8191	3540.369376301355	0
2	8195	3540.455173003322	1
2	8196	3541.14910749426	0
2	8205	3542.696009031691	1
2	8206	3543.310151153331	0
2	8210	3543.959689792875	1
2	8211	3544.180494442622	0
2	8290	3595.389803752177	1
2	8291	3595.509977918084	0
2	8317	3625.193194304411	1
2	8318	3625.701676120673	0
2	8325	3626.593572461792	1
2	8328	3627.34825205474	0
2	8350	3630.356530128177	1
2	8351	3631.050266677111	0
2	8445	3659.629842018311	1
2	8446	3659.837139910458	0
2	8450	3660.478788131867	1
2	8451	3660.717498408396	0
2	8455	3660.899177953436	1
2	8456	3661.453921297237	0
2	8460	3661.851016933434	1
2	8461	3661.910117718016	0
2	8545	3726.846267693784	1
2	8546	3727.016844157531	0
2	8595	3734.094585917163	1
2	8596	3734.359810795467	0
2	8655	3756.480001190143	1
2	8656	3756.874819942225	0
2	8660	3757.135020293071	1
2	8662	3757.346233198484	2
2	8663	3757.67931971097	1
2	8666	3758.382107428309	0
2	8670	3758.390672173976	1
2	8672	3758.743167197541	2
2	8673	3758.937518777034	1
2	8677	3759.606962058745	2
2	8680	3759.777661045349	1
2	8683	3760.641978821519	0
2	8795	3822.80663703135	1
2	8796	3823.134581201843	0
2	8805	3824.479912155307	1
2	8806	3824.670168858248	0
2	8830	3830.364220833515	1
2	8831	3830.572245796041	0
2	8845	3854.787117298179	1
2	8846	3855.279466962057	0
2	8852	3856.034138529972	1
2	8853	3856.202245258295	0
2	8860	3856.730265686503	1
2	8861	3857.306885299541	0
2	8895	3870.295887816967	1
2	8896	3870.588665718494	0
2	8927	3881.826202638622	1
2	8928	3882.369583370337	0
2	8932	3882.456137208293	1
2	8933	3883.113073293898	0
2	9065	3968.898754347135	1
2	9066	3968.979447635248	0
2	9115	3990.649444605331	1
2	9116	3991.30528437301	0
2	9155	3996.949202126773	1
2	9156	3997.866244938435	0
2	9217	4018.698694790555	1
2	9218	4019.073357028154	0
2	9235	4023.125391040011	1
2	9236	4023.742832080928	0
2	9280	4034.0227544229	1
2	9281	4034.742856715404	0
2	9335	4071.119029983675	1
2	9336	4071.89938887035	0
2	9370	4086.286960029266	1
2	9371	4087.136682720732	0
2	9380	4088.120763254255	1
2	9383	4088.717446538626	0
2	9390	4089.582326250788	1
2	9391	4089.963259789587	0
2	9400	4101.388530294562	1
2	9401	4102.118769965615	0
2	9420	4106.360713156035	1
2	9421	4106.967933377557	0
2	9440	4109.112460024889	1
2	9443	4110.007380651901	0
2	9495	4128.304291717285	1
2	9497	4128.483435106435	2
2	9498	4128.947150836986	1
2	9501	4129.536952072436	0
2	9530	4138.600999574202	1
2	9531	4139.37395909624	0
2	9645	4219.909733421194	1
2	9646	4220.397699832361	0
2	9660	4222.859559534331	1
2	9661	4223.714048981179	0
2	9670	4224.852946713249	1
2	9671	4225.128827571335	0
2	9692	4232.064913300497	1
2	9693	4232.24845884508	0
2	9697	4232.258921080822	1
2	9698	4232.664653019379	0
2	9704	4232.921979492318	1
2	9705	4233.20822304646	0
2	9712	4233.652655870274	1
2	9713	4234.215511814323	0
2	9745	4241.616102185426	1
2	9746	4241.738241870273	0
2	9775	4260.343568054953	1
2	9776	4261.060107881414	0
2	9785	4262.157810225221	1
2	9786	4262.836502191588	0
2	9800	4264.107578813439	1
2	9801	4264.777116462993	0
2	9810	4265.960117213228	1
2	9811	4266.018009638073	0
2	9825	4267.46167111397	1
2	9826	4267.891719701033	0
2	9835	4268.733204265912	1
2	9836	4269.545217659123	0
2	9880	4302.996640438231	1
2	9881	4303.440400845284	0
2	9950	4327.000408747374	1
2	9951	4327.110621095172	0
2	9965	4330.307781069051	1
2	9966	4331.015052434884	0
2	10080	4377.480042283697	1
2	10081	4378.154111731598	0
2	10085	4378.304057258835	1
2	10086	4378.57399827981	0
2	10090	4378.924787218016	1
2	10092	4379.062748418663	2
2	10093	4379.168981542239	1
2	10096	4379.986802158399	0
2	10195	4411.571319155728	1
2	10200	4411.943233949444	0
2	10212	4413.721588909639	1
2	10215	4414.177044267845	0
2	10285	4436.672293000225	1
2	10288	4437.524061574031	0
2	10295	4438.427273910406	1
2	10296	4439.150221305888	0
2	10317	4451.931781914658	1
2	10319	4452.092520745097	2
2	10322	4452.312664705429	1
2	10326	4452.379806337921	2
2	10329	4453.225270264091	1
2	10332	4454.065318997351	0
2	10336	4454.51609331763	1
2	10337	4454.734859569145	0
2	10344	4455.543096429874	1
2	10346	4456.006406177859	2
2	10347	4456.460716076482	1
2	10350	4457.123684815837	0
2	10354	4457.164123884781	1
2	10355	4457.984249615118	0
2	10359	4458.24987075879	1
2	10360	4458.889017654404	0
2	10367	4460.334470580681	1
2	10368	4460.697439903354	0
2	10380	4462.016333703862	1
2	10381	4462.735788490677	0
2	10390	4463.538573624322	1
2	10391	4463.857971326362	0
2	10445	4487.655561942538	1
2	10446	4488.062441648341	0
2	10485	4493.746221317455	1
2	10488	4494.363390291747	0
2	10565	4522.411579266032	1
2	10566	4522.769413098736	0
2	10575	4523.504172211192	1
2	10577	4524.256500594969	2
2	10578	4524.285572398636	1
2	10581	4524.88088897904	0
2	10585	4525.078990048862	1
2	10588	4525.478107445823	0
2	10592	4525.694453221021	1
2	10594	4525.810277554656	2
2	10595	4526.010380521646	1
2	10599	4526.11361440204	2
2	10600	4526.730454819041	1
2	10604	4526.761569655027	2
2	10605	4527.217380480232	1
2	10608	4528.056281295089	0
2	10612	4528.224099724341	1
2	10613	4528.557631828446	0
2	10617	4529.03468755294	1
2	10618	4529.313791693371	0
2	10625	4529.851616537193	1
2	10626	4530.25641439119	0
2	10655	4535.314354766169	1
2	10656	4536.10005528718	0
2	10840	4637.888649094099	1
2	10841	4638.192294081026	0
2	10865	4650.176719596647	1
2	10866	4650.709809383556	0
2	10880	4660.182832021825	1
2	10881	4660.330272225219	0
2	10895	4663.367614580149	1
2	10896	4663.853128691944	0
2	10970	4696.894668947517	1
2	10971	4696.953109663052	0
2	10980	4698.475264604665	1
2	10981	4698.94827090866	0
2	11035	4720.380359506863	1
2	11036	4720.799132166712	0
2	11110	4756.466374643326	1
2	11111	4756.545418542971	0
2	11140	4760.991417262063	1
2	11141	4761.62463412662	0
2	11150	4763.187316294542	1
2	11151	4763.206095937686	0
2	11230	4786.965159918426	1
2	11235	4787.738596948798	0
2	11251	4788.94733567481	1
2	11252	4789.364964821286	0
2	11284	4794.824152438898	1
2	11285	4794.921807726103	0
2	11296	4796.085248262515	1
2	11297	4796.264391775153	0
2	11303	4796.530830140736	1
2	11304	4797.114327487073	0
2	11308	4797.417023748205	1
2	11309	4798.08567666123	0
2	11440	4843.690164832668	1
2	11441	4844.264418176414	0
2	11512	4856.506554929569	1
2	11513	4856.570059408932	0
2	11520	4857.207060723345	1
2	11521	4857.951105128401	0
2	11530	4858.775352684391	1
2	11531	4859.581916876772	0
2	11660	4931.546794856572	1
2	11661	4932.460162604016	0
2	11665	4932.989688872561	1
2	11666	4933.323701861475	0
2	11670	4933.415542805123	1
2	11671	4933.914678414373	0
2	11677	4934.326522600736	1
2	11678	4934.476830184667	0
2	11682	4934.621907211622	1
2	11683	4935.006235523357	0
2	11687	4935.283850773813	1
2	11688	4935.775858882417	0
2	11699	4936.916723671968	1
2	11700	4937.496812621106	0
2	11707	4938.677758857818	1
2	11710	4938.958287144054	0
2	11717	4939.567937375637	1
2	11718	4939.884987420609	0
2	11731	4941.361607089091	1
2	11732	4941.403722640008	0
2	11739	4942.479753752988	1
2	11740	4942.978484281779	0
2	11755	4949.142218695561	1
2	11756	4949.543696262296	0
2	11835	4970.235140888182	1
2	11838	4970.693928370734	0
2	11875	4977.947834088231	1
2	11876	4978.650329586764	0
2	11940	5000.301825321834	1
2	11941	5000.806408310343	0
2	12025	5039.051057105114	1
2	12027	5039.393465380529	2
2	12028	5039.430126557706	1
2	12031	5040.393383468429	0
2	12120	5083.242261628453	1
2	12121	5083.807987531549	0
2	12167	5110.129957386527	1
2	12168	5110.475749308977	0
2	12172	5110.782163833599	1
2	12173	5111.010165211081	0
2	12177	5111.353335417861	1
2	12178	5111.742393706588	0
2	12185	5112.513330384917	1
2	12187	5112.670756179159	2
2	12188	5113.255010723964	1
2	12191	5113.972111166258	0
2	12197	5114.110733886718	1
2	12198	5114.621112983896	0
2	12202	5114.786381413661	1
2	12203	5115.375471367863	0
2	12207	5115.949599368337	1
2	12208	5115.999388941879	0
2	12212	5116.061698959964	1
2	12213	5116.527711529367	0
2	12220	5117.17776181775	1
2	12222	5117.22545535019	2
2	12223	5117.655853726797	1
2	12226	5118.255067566538	0
2	12230	5118.710714579685	1
2	12231	5119.050302865065	0
2	12285	5146.49945446199	1
2	12286	5146.721197972131	0
2	12322	5155.521141056852	1
2	12323	5155.909034773886	0
2	12327	5156.370748332577	1
2	12328	5156.78335477723	0
2	12332	5156.975502841501	1
2	12333	5157.566005024912	0
2	12450	5202.480629312439	1
2	12453	5202.894030045101	0
2	12457	5203.009742658193	1
2	12458	5203.319673441153	0
2	12465	5204.269768715406	1
2	12466	5204.520767466061	0
2	12540	5246.913065577955	1
2	12541	5247.517988368417	0
2	12590	5273.874003570721	1
2	12591	5273.987711931128	0
2	12595	5274.729344031674	1
2	12596	5274.769323028592	0
2	12615	5276.596781998765	1
2	12616	5277.425908785321	0
2	12640	5282.861768179199	1
2	12641	5282.887398857782	0
2	12752	5330.124241939019	1
2	12753	5330.243428379541	0
2	12930	5402.105486458857	1
2	12931	5402.299649949529	0
2	12935	5402.795530033035	1
2	12936	5403.032354987663	0
2	12945	5404.307140556924	1
2	12946	5404.371275185006	0
2	13245	5514.984332645057	1
2	13248	5515.798218843126	0
2	13264	5517.533129085783	1
2	13265	5517.706860213046	0
2	13272	5518.60851971819	1
2	13273	5519.151140231704	0
2	13285	5520.887067414859	1
2	13288	5521.42712296914	0
2	13390	5565.72978793011	1
2	13391	5566.429127632571	0
2	13410	5577.182463554607	1
2	13411	5577.901193272569	0
2	13415	5578.117449424656	1
2	13416	5578.853348621181	0
2	13420	5578.920116290169	1
2	13421	5579.461519471197	0
2	13445	5584.465230869347	1
2	13446	5584.563891432399	0
2	13450	5584.589160882344	1
2	13451	5585.182427590724	0
2	13510	5602.815367198315	1
2	13511	5603.617920417518	0
2	13515	5604.000694273254	1
2	13516	5604.561134159279	0
2	13530	5610.769608867748	1
2	13531	5611.105859200144	0
2	13535	5611.117099972919	1
2	13537	5611.896448760555	2
2	13538	5612.009149721684	1
2	13541	5612.697659419337	0
2	13550	5614.067875176993	1
2	13551	5614.309815011313	0
2	13580	5620.498740321758	1
2	13581	5620.86801023617	0
2	13590	5621.874822590072	1
2	13591	5622.470886402378	0
2	13600	5623.280131054896	1
2	13601	5623.891489068825	0
2	13640	5631.930010593743	1
2	13641	5632.848461561483	0
2	13647	5632.920130036451	1
2	13649	5633.26551528639	2
2	13650	5633.367821967761	1
2	13654	5633.480191807445	2
2	13655	5634.267150496944	1
2	13658	5635.042061420922	0
2	13662	5635.088412742331	1
2	13663	5636.032790961276	0
2	13667	5636.461481629076	1
2	13668	5637.009744586163	0
2	13710	5657.807626435893	1
2	13713	5658.022869403861	0
2	13720	5658.756039089159	1
2	13721	5659.075441820328	0
2	13725	5659.353243848404	1
2	13726	5659.602849588324	0
2	13730	5659.709376648681	1
2	13731	5660.526387601685	0
2	13735	5660.552227186614	1
2	13736	5661.205354063925	0
2	13740	5661.517949417999	1
2	13741	5661.99816460499	0
2	13755	5665.877478071965	1
2	13756	5666.670980264518	0
2	13817	5684.811603925116	1
2	13818	5685.109457307652	0
2	13825	5686.222094059768	1
2	13826	5686.595883805555	0
2	13837	5687.898563654864	1
2	13838	5687.981652550742	0
2	13852	5689.716334823987	1
2	13853	5690.207874000557	0
2	13940	5712.166347580076	1
2	13941	5712.700535428336	0
2	13975	5730.211861450893	1
2	13976	5730.936586019064	0
2	13980	5731.119128998391	1
2	13981	5731.818855047638	0
2	13985	5732.035357404266	1
2	13986	5732.674236360651	0
2	14100	5821.163040350949	1
2	14101	5821.289292748636	0
2	14105	5821.32289477861	1
2	14106	5822.088273246205	0
2	14115	5823.16186059051	1
2	14116	5823.924306638792	0
2	14120	5823.924879911874	1
2	14121	5824.919735587176	0
2	14155	5834.920121381511	1
2	14156	5835.275171458457	0
2	14270	5895.004166181357	1
2	14271	5895.602331514374	0
2	14352	5931.496914162319	1
2	14353	5932.288073968735	0
2	14390	5954.75359395445	1
2	14391	5955.070391174738	0
2	14395	5955.121076386197	1
2	14396	5956.014905101114	0
2	14400	5956.338642602353	1
2	14401	5956.961520289171	0
2	14405	5957.123779862064	1
2	14406	5957.720372676484	0
2	14410	5957.750024613555	1
2	14411	5958.163721312729	0
2	14465	5984.35723840234	1
2	14466	5984.627295623615	0
2	14580	6047.173053360125	1
2	14581	6047.802597311185	0
2	14630	6066.764685586645	1
2	14631	6067.008322274058	0
2	14635	6067.359810152333	1
2	14636	6067.550083796845	0
2	14700	6112.986172849937	1
2	14701	6113.657200492711	0
2	14735	6126.399186749199	1
2	14738	6126.779519180254	0
2	14742	6126.807224795396	1
2	14743	6127.768837167182	0
2	14747	6127.831017918049	1
2	14750	6128.653295064391	0
2	14754	6129.455527156176	1
2	14755	6129.522001990489	0
2	14759	6129.649063839647	1
2	14760	6130.239583897683	0
2	14766	6131.111949664754	1
2	14767	6131.199793770489	0
2	14771	6131.661356764724	1
2	14772	6131.888291474058	0
2	14779	6132.576286208852	1
2	14780	6133.254448155173	0
2	14787	6134.104704792647	1
2	14788	6134.282025123107	0
2	14860	6155.171788679316	1
2	14863	6155.993134521898	0
2	14867	6156.045875525054	1
2	14868	6156.860377862789	0
2	14872	6156.870378196491	1
2	14873	6157.58096791517	0
2	14877	6157.721696655094	1
2	14878	6158.472287557526	0
2	14882	6158.779803738703	1
2	14883	6159.231519759326	0
2	14890	6160.166563612426	1
2	14891	6160.427080573394	0
2	14972	6203.316172274407	1
2	14973	6203.319327472659	0
2	15020	6216.949971183233	1
2	15021	6217.174498238308	0
2	15025	6217.434549359422	1
2	15026	6217.743745942866	0
2	15075	6269.447098764665	1
2	15076	6269.726329133137	0
2	15085	6270.794565413729	1
2	15086	6271.702754466742	0
2	15135	6289.296451118237	1
2	15136	6289.54931356398	0
2	15145	6290.48244359692	1
2	15146	6291.270078910595	0
2	15270	6347.267142314856	1
2	15271	6347.774844576316	0
2	15310	6362.906656651887	1
2	15311	6363.074602385275	0
2	15370	6403.374410382486	1
2	15371	6404.065422776944	0
2	15385	6406.234841580725	1
2	15386	6406.326763900927	0
2	15600	6516.51001563428	1
2	15601	6516.82040628502	0
2	15605	6517.24458013931	1
2	15606	6517.554146341792	0
2	15610	6517.800349499056	1
2	15611	6518.048354784677	0
2	15622	6518.667606234092	1
2	15623	6519.119749576643	0
2	15645	6524.829226522562	1
2	15646	6525.54719837276	0
2	15695	6539.610887736083	1
2	15696	6539.82622956505	0
2	15715	6542.671197431685	1
2	15716	6542.687814733569	0
2	15725	6543.964031036898	1
2	15726	6544.349280186875	0
2	15730	6544.628735408267	1
2	15731	6545.332781307066	0
2	15735	6545.524003387767	1
2	15736	6545.779621788712	0
2	15740	6545.79278078192	1
2	15741	6546.708150661589	0
2	15745	6547.434846653468	1
2	15746	6547.448542538184	0
2	15752	6547.81256618636	1
2	15753	6548.164264742882	0
2	15760	6549.149303437579	1
2	15761	6549.378690395868	0
2	15830	6598.153769269092	1
2	15831	6598.836867186556	0
2	15870	6606.775225950023	1
2	15871	6607.379512836449	0
2	15880	6608.606379267377	1
2	15881	6609.232077620278	0
2	15890	6610.961111688475	1
2	15892	6611.134914610325	2
2	15893	6611.460575393046	1
2	15898	6612.051193890459	0
2	15960	6627.812390031835	1
2	15961	6628.11438262577	0
2	16010	6654.088173130422	1
2	16011	6654.153709188903	0
2	16040	6672.306300763347	1
2	16041	6672.551604988256	0
2	16185	6773.353516141917	1
2	16186	6774.020339943867	0
2	16195	6774.703809171874	1
2	16196	6775.584218142098	0
2	16207	6777.19328211527	1
2	16208	6777.271529139929	0
2	16215	6777.812027893298	1
2	16218	6778.677335887194	0
2	16225	6779.863711923662	1
2	16226	6780.119869303448	0
2	16239	6781.566826660381	1
2	16240	6782.120657314542	0
2	16252	6783.691302562447	1
2	16253	6783.929452844099	0
2	16260	6785.006498466409	1
2	16261	6785.28905386887	0
2	16270	6785.841062470967	1
2	16271	6786.438719430189	0
2	16277	6787.018379625063	1
2	16279	6787.141498867183	2
2	16280	6787.288574049012	1
2	16283	6787.69864727817	0
2	16287	6787.955130902939	1
2	16288	6788.662175281155	0
2	16320	6795.991592654837	1
2	16321	6796.107900612862	0
2	16370	6810.448953795885	1
2	16371	6810.887564521426	0
2	16400	6818.630537713275	1
2	16401	6818.794223576061	0
2	16430	6836.993626760996	1
2	16433	6837.856085060227	0
2	16475	6862.714219295275	1
2	16478	6863.496101798583	0
2	16489	6864.855366397341	1
2	16490	6865.106534572505	0
2	16600	6927.957269078526	1
2	16601	6928.46109747892	0
2	16610	6929.190101658278	1
2	16611	6929.851920489927	0
2	16622	6930.553193852091	1
2	16623	6931.258706408187	0
2	16655	6939.165990648583	1
2	16657	6939.290612684927	2
2	16658	6939.586514234342	1
2	16662	6939.646788555019	2
2	16663	6940.405990806254	1
2	16667	6940.589825909848	2
2	16668	6941.138487689462	1
2	16671	6941.989257025797	0
2	16785	7004.406709369728	1
2	16786	7005.038601503059	0
2	16805	7008.73855675916	1
2	16806	7008.870102332314	0
2	16810	7009.026986139611	1
2	16815	7009.641095141802	0
2	16819	7009.871388490241	1
2	16820	7010.176774150195	0
2	16824	7010.425535362842	1
2	16825	7010.661859377908	0
2	16834	7011.503301892068	1
2	16835	7012.102789344886	0
2	16842	7013.272293363352	1
2	16843	7013.546773983739	0
2	16865	7018.261096055376	1
2	16866	7018.785571412455	0
2	16890	7024.980879024475	1
2	16891	7025.474784839154	0
2	17015	7068.598076991231	1
2	17016	7068.80561955531	0
2	17020	7069.218400249707	1
2	17021	7069.72158550864	0
2	17085	7100.182836095824	1
2	17086	7100.524687423517	0
2	17090	7100.556738285196	1
2	17091	7101.338717504597	0
2	17135	7108.715048915111	1
2	17137	7108.855859034585	2
2	17138	7108.967123890262	1
2	17141	7109.491856534047	0
2	17145	7109.527544036281	1
2	17146	7110.473161001749	0
2	17260	7180.926987291186	1
2	17261	7181.380987765438	0
2	17285	7187.260488274802	1
2	17288	7187.867902597694	0
2	17395	7218.041131407426	1
2	17396	7218.090267422513	0
2	17407	7219.548253507564	1
2	17408	7219.877734179419	0
2	17415	7221.075974657437	1
2	17418	7221.310530535734	0
2	17422	7221.531946054229	1
2	17423	7221.719450279508	0
2	17427	7222.09819872485	1
2	17429	7222.447028624722	2
2	17430	7222.451867400386	1
2	17434	7222.685318902712	2
2	17435	7223.385543937652	1
2	17440	7223.926474604706	0
2	17444	7224.376163296939	1
2	17446	7224.436710254965	2
2	17447	7224.867803697751	1
2	17450	7225.731813094483	0
2	17454	7225.934010227257	1
2	17455	7226.14918110864	0
2	17459	7226.16748321775	1
2	17460	7226.70259449817	0
2	17464	7226.890530402796	1
2	17465	7227.191341185521	0
2	17474	7228.187342964505	1
2	17475	7228.342277774166	0
2	17479	7228.472258624162	1
2	17482	7229.267407352242	0
2	17565	7273.614795055728	1
2	17566	7274.003580151338	0
2	17575	7274.986358265582	1
2	17576	7275.326239316564	0
2	17585	7283.099635610728	1
2	17586	7283.465905814153	0
2	17705	7331.24050020756	1
2	17706	7331.350588613984	0
2	17735	7334.787820686573	1
2	17738	7335.271193908018	0
2	17750	7336.763879055272	1
2	17751	7337.249224833029	0
2	17762	7338.711436176632	1
2	17765	7339.082226606837	0
2	17774	7339.840080002067	1
2	17777	7340.108396833815	0
2	17787	7341.496911750053	1
2	17788	7341.725821008865	0
2	17880	7374.004903951817	1
2	17881	7374.658953673508	0
2	17890	7375.358337518611	1
2	17893	7375.833948118262	0
2	17905	7378.59902172409	1
2	17907	7378.807319642648	2
2	17908	7379.002597460311	1
2	17911	7379.518386728803	0
2	17960	7416.272902670495	1
2	17961	7416.318758870825	0
2	17965	7416.574657826783	1
2	17967	7416.836679072576	2
2	17968	7417.226508500311	1
2	17972	7417.304607104579	2
2	17973	7417.747018776578	1
2	17977	7418.144164610692	2
2	17978	7418.528946885723	1
2	17981	7419.309278970561	0
2	18025	7447.568410796875	1
2	18026	7447.684088503785	0
2	18100	7491.166555612323	1
2	18101	7491.458122706343	0
2	18115	7493.277884664273	1
2	18116	7494.13782809639	0
2	18140	7500.370520856892	1
2	18143	7500.76385748672	0
2	18150	7501.892016979095	1
2	18151	7502.08635963529	0
2	18195	7528.940083214156	1
2	18196	7529.386283585678	0
2	18200	7529.671117331279	1
2	18202	7529.742460026125	2
2	18203	7529.87587120339	1
2	18207	7530.004269797564	2
2	18208	7530.395723282329	1
2	18211	7531.245039034884	0
2	18217	7531.640532710003	1
2	18218	7531.805847099347	0
2	18225	7532.894068996589	1
2	18227	7533.064740163718	2
2	18228	7533.268911202036	1
2	18233	7534.181363630032	0
2	18237	7534.423640004857	1
2	18238	7534.635418378858	0
2	18275	7559.240749437665	1
2	18276	7559.501848456369	0
2	18290	7560.969186548898	1
2	18291	7561.766597415879	0
2	18340	7576.029773989287	1
2	18341	7576.377474767961	0
2	18350	7577.402389067365	1
2	18351	7577.902519896989	0
2	18365	7583.251443954189	1
2	18366	7583.592928765294	0
2	18525	7628.949516977959	1
2	18526	7629.868136916086	0
2	18620	7668.379397859152	1
2	18621	7669.048182706593	0
2	18715	7703.715727867532	1
2	18716	7704.278863006392	0
2	18720	7704.421667428764	1
2	18721	7705.139258053554	0
2	18725	7705.935580148716	1
2	18726	7705.970550935231	0
2	18785	7731.794572526692	1
2	18786	7732.310591364311	0
2	18870	7771.783417545512	1
2	18871	7772.341901299871	0
2	18880	7773.680415888792	1
2	18881	7774.169531569707	0
2	18885	7774.280418310052	1
2	18888	7774.609994728521	0
2	18895	7775.308981592963	1
2	18897	7775.600625930524	2
2	18898	7775.700745347824	1
2	18902	7775.859871137103	2
2	18905	7776.449565877795	1
2	18909	7776.857839966479	2
2	18910	7777.433017525619	1
2	18913	7778.100629382657	0
2	18917	7778.393824240905	1
2	18918	7778.730116585206	0
2	18925	7779.717706599053	1
2	18926	7780.557948207187	0
2	18935	7781.933570121832	1
2	18936	7782.456936524451	0
2	18985	7793.743282160062	1
2	18986	7794.263226397509	0
2	18995	7795.711397816358	1
2	18998	7796.177297177808	0
2	19052	7808.775397805239	1
2	19053	7809.282538810475	0
2	19060	7810.023979580156	1
2	19061	7810.41206770773	0
2	19125	7822.097570488261	1
2	19126	7822.37173118056	0
2	19135	7823.579388254389	1
2	19136	7823.796938862513	0
2	19145	7825.183652681528	1
2	19146	7825.407875143505	0
2	19162	7827.90738722582	1
2	19163	7828.050367509348	0
2	19200	7834.987601089784	1
2	19201	7835.453134447016	0
2	19205	7835.650134321031	1
2	19208	7836.021548356168	0
2	19212	7836.302185039237	1
2	19213	7836.448080650257	0
2	19217	7836.458576302124	1
2	19218	7837.215440069284	0
2	19225	7838.468468586033	1
2	19226	7838.549992237851	0
2	19237	7839.741316763226	1
2	19238	7840.23972717417	0
2	19245	7841.29052671926	1
2	19246	7841.631741533433	0
2	19290	7853.586547841965	1
2	19291	7854.219357642515	0
2	19510	7994.758904808013	1
2	19512	7994.987755757569	2
2	19513	7995.118210133271	1
2	19516	7995.837262734644	0
2	19575	8023.430095633252	1
2	19576	8023.746725094421	0
2	19585	8025.130493647679	1
2	19586	8025.249830818978	0
2	19597	8026.41658457235	1
2	19598	8027.017795333882	0
2	19607	8027.854718551708	1
2	19612	8028.612040310875	0
2	19619	8029.852753036222	1
2	19620	8030.371051495578	0
2	19710	8053.047603638284	1
2	19711	8053.650517565966	0
2	19725	8055.754700972184	1
2	19726	8056.361128466916	0
2	19800	8110.604603126482	1
2	19801	8110.646358716535	0
2	19805	8110.751064016651	1
2	19806	8111.064744798467	0
2	19810	8111.089899884861	1
2	19811	8111.717290817667	0
2	19870	8128.04268872002	1
2	19871	8128.201420206101	0
2	19900	8138.66165246567	1
2	19901	8138.768672921512	0
2	19910	8139.573070137445	1
2	19913	8140.24669534122	0
2	19920	8141.145492361961	1
2	19922	8141.272007742881	2
2	19925	8141.586734555479	1
2	19928	8142.479362198574	0
2	19932	8142.540981488249	1
2	19933	8143.068201252728	0
2	19940	8143.95932191136	1
2	19941	8144.331545550752	0
2	20030	8189.612214936974	1
2	20031	8190.018606894747	0
2	20045	8192.152920905167	1
2	20046	8192.532513987936	0
2	20090	8204.273547532404	1
2	20091	8204.769918681434	0
2	20170	8224.093089947872	1
2	20171	8224.38169266938	0
2	20185	8229.687762572202	1
2	20186	8229.997431405905	0
2	20200	8232.211955818343	1
2	20201	8232.295096983372	0
2	20320	8276.198558096261	1
2	20321	8276.316408858857	0
2	20455	8326.601622332249	1
2	20456	8326.818044284812	0
2	20467	8327.81268238694	1
2	20468	8328.222792214702	0
2	20477	8329.269597787067	1
2	20479	8329.462834894551	2
2	20480	8329.963944395713	1
2	20483	8330.492368743557	0
2	20487	8330.568016115803	1
2	20488	8331.29945402405	0
2	20510	8338.186061062104	1
2	20513	8338.442042834662	0
2	20517	8338.615597955294	1
2	20518	8339.425904616831	0
2	20522	8339.527365854671	1
2	20523	8340.103503393592	0
2	20527	8340.209657651976	1
2	20528	8341.049173286255	0
2	20650	8408.90474304685	1
2	20651	8409.439219473049	0
2	20782	8508.824311262424	1
2	20785	8509.300628205914	0
2	20792	8510.346873853032	1
2	20793	8510.811568036735	0
2	20802	8511.681414059814	1
2	20803	8512.150869862003	0
2	20810	8513.04603734758	1
2	20811	8513.210410066288	0
2	20815	8513.612329493871	1
2	20817	8513.842622718579	2
2	20818	8514.173627318315	1
2	20821	8514.616998776387	0
2	20945	8581.257818210479	1
2	20946	8581.308821526608	0
2	21005	8602.561804295599	1
2	21006	8602.843619941425	0
2	21135	8662.029237312569	1
2	21136	8662.370655226781	0
2	21217	8697.315965212552	1
2	21218	8697.498981250177	0
2	21285	8734.166997726275	1
2	21286	8734.888427177524	0
2	21300	8737.654903597321	1
2	21301	8737.80328503603	0
2	21305	8738.205420407711	1
2	21306	8738.547175248972	0
2	21315	8739.132093519044	1
2	21318	8739.548902969974	0
2	21324	8740.144090356624	1
2	21325	8740.366392087311	0
2	21329	8740.455465029747	1
2	21330	8741.19720864443	0
2	21395	8763.699014568408	1
2	21397	8764.012221491975	2
2	21398	8764.101057858506	1
2	21401	8764.922064842025	0
2	21485	8811.269762499373	1
2	21486	8811.291341364321	0
2	21520	8827.37154935495	1
2	21521	8827.879210454949	0
2	21530	8829.219919862066	1
2	21531	8829.450005526632	0
2	21600	8865.068001134274	1
2	21601	8865.430059676204	0
2	21615	8867.121164848179	1
2	21616	8867.304514620411	0
2	21652	8880.725026418484	1
2	21653	8880.957070515223	0
2	21657	8881.016430664484	1
2	21658	8881.692687615531	0
2	21665	8882.988446263497	1
2	21666	8883.448362420558	0
2	21730	8914.697142535533	1
2	21731	8914.77402535781	0
2	21735	8915.199158173257	1
2	21736	8915.494251180875	0
2	21785	8944.60999030699	1
2	21786	8945.089682546802	0
2	21850	8974.992419133162	1
2	21851	8975.124627626857	0
2	21865	8977.66683939248	1
2	21866	8977.904821444974	0
2	21879	8978.575710967032	1
2	21880	8979.066509236368	0
2	21887	8980.000649166661	1
2	21888	8980.380325013046	0
2	21895	8981.564693276438	1
2	21896	8981.579288257305	0
2	21905	8982.25801731896	1
2	21906	8982.743626060309	0
2	21935	8997.41826374468	1
2	21936	8998.125609957218	0
2	21982	9017.09997402863	1
2	21983	9017.304305799633	0
2	22035	9041.996939945164	1
2	22036	9042.304452920583	0
2	22045	9043.213837718354	1
2	22046	9044.029584404192	0
2	22075	9076.743449927923	1
2	22076	9077.010716559375	0
2	22080	9077.383716263002	1
2	22081	9077.96852824647	0
2	22085	9078.433137528451	1
2	22086	9078.615974834943	0
2	22090	9078.820321042918	1
2	22091	9079.035459583774	0
2	22095	9079.089156693259	1
2	22096	9079.960545607526	0
2	22120	9086.287215444339	1
2	22123	9086.626217124358	0
2	22132	9087.462003485185	1
2	22133	9087.619510032542	0
2	22137	9087.760530932595	1
2	22138	9088.486823345421	0
2	22219	9124.279898214865	1
2	22220	9124.467676210612	0
2	22224	9124.618470901212	1
2	22225	9125.251351215945	0
2	22312	9158.258555226023	1
2	22313	9158.918075232934	0
2	22452	9231.384195755426	1
2	22455	9231.983992394978	0
2	22515	9255.025673929955	1
2	22517	9255.103261015742	2
2	22518	9255.633119357496	1
2	22521	9256.300795922826	0
2	22565	9276.605634613772	1
2	22571	9277.138097775683	2
2	22572	9277.139853775349	1
2	22576	9277.50171934946	2
2	22577	9277.981112574354	1
2	22581	9278.376724012056	2
2	22582	9278.655099890508	1
2	22585	9279.065226485009	0
2	22589	9279.17591986381	1
2	22590	9279.969055176002	0
2	22602	9281.59649639242	1
2	22603	9282.282131806563	0
2	22620	9292.569337649735	1
2	22621	9292.653180571222	0
2	22770	9373.880671531403	1
2	22771	9373.921404723002	0
2	22780	9374.811490838293	1
2	22781	9375.530107577861	0
2	22790	9376.679732720376	1
2	22791	9377.027718552057	0
2	22820	9381.624361842074	1
2	22821	9381.988959775073	0
2	22830	9383.193146023701	1
2	22831	9383.748787929525	0
2	22920	9409.736979717303	1
2	22921	9410.238646883292	0
2	22952	9417.481889226775	1
2	22953	9417.637790790132	0
2	23030	9445.730808952571	1
2	23031	9446.319807706651	0
2	23040	9447.647566960373	1
2	23041	9447.83715750624	0
2	23052	9448.973353645558	1
2	23053	9449.484247572279	0
2	23110	9476.845359586881	1
2	23112	9477.010128365587	2
2	23113	9477.331700260145	1
2	23118	9477.91223628302	0
2	23147	9495.11314271684	1
2	23148	9495.686131354943	0
2	23157	9496.796423970062	1
2	23158	9497.020565886572	0
2	23170	9499.586983092252	1
2	23171	9499.890034706918	0
2	23277	9549.519092002132	1
2	23278	9549.781226571819	0
2	23295	9553.644068105344	1
2	23296	9553.752446837532	0
2	23305	9554.352493618348	1
2	23308	9555.037121713156	0
2	23410	9639.54362927731	1
2	23413	9640.294844454131	0
2	23417	9640.934474446099	1
2	23418	9641.097713658982	0
2	23425	9642.069321336038	1
2	23426	9642.591416701465	0
2	23445	9662.248416431192	1
2	23446	9662.38451857804	0
2	23450	9662.952029098026	1
2	23451	9663.376388440278	0
2	23500	9692.644641886922	1
2	23501	9693.245541094157	0
2	23510	9694.025439560156	1
2	23511	9694.586606464029	0
2	23520	9695.5404314816	1
2	23521	9696.132018946583	0
2	23530	9697.429839186845	1
2	23531	9698.097764494606	0
2	23575	9721.136647743363	1
2	23577	9721.256748482001	2
2	23578	9721.626767980561	1
2	23583	9722.054696542558	0
2	23590	9723.037069882331	1
2	23591	9723.251345302372	0
2	23610	9727.271097569389	1
2	23611	9728.066574164601	0
2	23625	9729.762996212096	1
2	23626	9730.645851092633	0
2	23910	9838.688931875629	1
2	23913	9839.114308062943	0
2	23920	9839.85297471164	1
2	23922	9840.029177522453	2
2	23925	9840.789219066224	1
2	23930	9841.419600504546	0
2	23934	9841.770447298357	1
2	23935	9842.185807420129	0
2	23942	9843.411305286259	1
2	23943	9843.99415938696	0
2	23947	9844.311272453956	1
2	23948	9844.467443457852	0
2	23955	9845.815292142147	1
2	23956	9846.184262162727	0
2	23960	9846.652609516443	1
2	23961	9847.046093863901	0
2	24005	9864.06202267416	1
2	24006	9864.84077669355	0
2	24055	9875.787688091074	1
2	24056	9876.400482118676	0
2	24067	9877.369761433196	1
2	24068	9877.874491784104	0
2	24094	9881.448696303023	1
2	24095	9881.929807043575	0
2	24104	9882.71396716658	1
2	24105	9883.38733300463	0
2	24115	9884.844339874089	1
2	24117	9885.075537869356	2
2	24118	9885.251359740819	1
2	24123	9886.138801244355	0
2	24155	9907.382272409364	1
2	24156	9907.90724302139	0
2	24190	9919.562745077739	1
2	24192	9919.585756133858	2
2	24193	9919.899746557917	1
2	24196	9920.586946330206	0
2	24345	9972.294304777609	1
2	24346	9973.018422981266	0
2	24355	9974.26006655448	1
2	24356	9974.447322180083	0
2	24362	9974.459368569162	1
2	24364	9974.782253047114	2
2	24365	9975.089724242788	1
2	24368	9975.490798116436	0
2	24375	9976.772562421544	1
2	24376	9976.843855884771	0
2	24427	9986.905065758198	1
2	24430	9987.716402062907	0
2	24437	9988.699163327647	1
2	24438	9989.499135867826	0
2	24445	9990.072237717217	1
2	24446	9990.719421978335	0
2	24462	9992.70654854387	1
2	24463	9993.324645221281	0
2	24467	9993.374454117809	1
2	24468	9994.216308722693	0
2	24654	10042.597724919506	1
2	24655	10043.480951638851	0
2	24670	10045.743213822942	1
2	24671	10046.185459010727	0
2	24692	10048.854252966329	1
2	24697	10049.168609568947	0
2	24780	10105.010416809361	1
2	24781	10105.06936253195	0
2	24810	10123.355544080891	1
2	24811	10123.950858629959	0
2	24820	10124.892931104597	1
2	24821	10125.592500979591	0
2	24840	10128.248960441629	1
2	24841	10128.64828838971	0
2	24855	10132.083979765357	1
2	24856	10132.717406550118	0
2	24900	10165.875947472104	1
2	24901	10166.175971071241	0
2	24905	10166.298864250504	1
2	24906	10167.126720888406	0
2	24910	10167.226724150962	1
2	24911	10167.597626653505	0
2	25012	10200.149720918286	1
2	25013	10200.381338621395	0
2	25060	10208.953391798257	1
2	25061	10209.245306843984	0
2	25065	10209.311791799836	1
2	25066	10209.869767112703	0
2	25150	10244.245314182543	1
2	25151	10244.683123381584	0
2	25167	10247.821268532173	1
2	25168	10248.17939374227	0
2	25175	10248.609323685205	1
2	25176	10249.479398832134	0
2	25200	10257.136138555014	1
2	25201	10257.393855884346	0
2	25340	10307.342661572057	1
2	25341	10307.836751357738	0
2	25352	10309.470345760038	1
2	25353	10309.690770499137	0
2	25364	10310.839785682335	1
2	25365	10311.037278653084	0
2	25455	10348.91176243965	1
2	25456	10349.477765165774	0
2	25545	10369.110972833607	1
2	25546	10369.32391341753	0
2	25557	10370.282442276871	1
2	25558	10370.770547574578	0
2	25705	10439.254277369889	1
2	25706	10439.913600010825	0
2	25715	10440.922723630311	1
2	25716	10441.425347507516	0
2	25750	10458.00777003489	1
2	25751	10458.805967479738	0
2	25767	10461.479827168468	1
2	25768	10461.719297132128	0
2	25795	10468.500399511685	1
2	25798	10469.398400505493	0
2	25820	10473.347333919132	1
2	25821	10473.785370008306	0
2	25830	10474.539898946072	1
2	25831	10474.761574460458	0
2	25840	10476.144746670436	1
2	25841	10476.654694160728	0
2	25934	10506.511594160753	1
2	25935	10506.576143005802	0
2	25941	10507.462215255116	1
2	25942	10507.495501658073	0
2	25949	10508.057630057821	1
2	25950	10508.378300490914	0
2	25990	10515.920127473066	1
2	25991	10516.205077023157	0
2	26000	10517.110899132496	1
2	26001	10517.461455113073	0
2	26015	10518.792530957709	1
2	26016	10518.972366756645	0
2	26035	10535.905425692824	1
2	26036	10536.375240605362	0
2	26050	10537.395414807063	1
2	26051	10537.811244340744	0
2	26057	10538.137745289623	1
2	26058	10538.58317414321	0
2	26064	10538.857824328371	1
2	26065	10539.177736878851	0
2	26072	10539.685790457046	1
2	26073	10540.34448493136	0
2	26080	10541.27362833088	1
2	26083	10541.598053410686	0
2	26115	10546.726967402716	1
2	26116	10547.394478483208	0
2	26140	10571.199028372636	1
2	26141	10571.565593802875	0
2	26160	10574.772644976955	1
2	26161	10575.338677893955	0
2	26242	10609.132995007047	1
2	26243	10609.261310275654	0
2	26259	10611.274285581558	1
2	26261	10611.454761884791	2
2	26262	10611.802166851853	1
2	26265	10612.417420818667	0
2	26274	10613.170697239422	1
2	26276	10613.354173393234	2
2	26278	10613.517930097207	3
2	26279	10613.608707939471	2
2	26282	10614.201263098522	1
2	26285	10614.86710170108	0
2	26291	10615.10607797222	1
2	26292	10615.523813698824	0
2	26296	10615.657227557278	1
2	26297	10616.113699532404	0
2	26320	10619.936791902017	1
2	26321	10620.145770587598	0
2	26352	10629.706635057163	1
2	26354	10629.784690918913	2
2	26355	10630.298269282902	1
2	26358	10631.159348768616	0
2	26365	10632.627477177564	1
2	26366	10632.899195836173	0
2	26410	10648.081702847095	1
2	26412	10648.124284443777	2
2	26413	10648.619239880029	1
2	26416	10649.079958020873	0
2	26420	10649.385847333016	1
2	26421	10649.691424629628	0
2	26435	10656.291641271084	1
2	26437	10656.530474543752	2
2	26438	10656.842729335302	1
2	26441	10657.317692442495	0
2	26470	10670.711161701783	1
2	26471	10670.885704455154	0
2	26485	10673.791431928859	1
2	26486	10674.384236631502	0
2	26640	10782.771353671688	1
2	26641	10782.8263225654	0
2	26740	10815.691568382702	1
2	26741	10815.921601009492	0
2	26750	10816.461509324161	1
2	26751	10816.98140226885	0
2	26757	10817.665644912317	1
2	26758	10817.871248046153	0
2	26762	10818.08694246201	1
2	26765	10818.308636054287	0
2	26835	10857.165008973898	1
2	26836	10857.718816414325	0
2	26860	10861.450259049094	1
2	26861	10861.849304280566	0
2	26865	10861.909194713039	1
2	26866	10862.697677890859	0
2	26890	10866.393212016276	1
2	26891	10866.64091119931	0
2	26962	10888.178619506841	1
2	26963	10888.800566175537	0
2	26974	10889.544681830693	1
2	26975	10890.233204582011	0
2	26985	10891.925534655992	1
2	26988	10892.68508017599	0
2	27070	10951.491154866637	1
2	27071	10952.183822486278	0
2	27077	10952.733460330685	1
2	27078	10952.808283885017	0
2	27082	10952.944868696974	1
2	27083	10953.301835757501	0
2	27087	10953.307431744966	1
2	27090	10954.004631327286	0
2	27097	10954.562395819235	1
2	27099	10954.742210692221	2
2	27102	10955.326885847336	1
2	27107	10956.233238653474	0
2	27111	10956.718773991913	1
2	27114	10957.233221223167	0
2	27118	10957.257381923071	1
2	27119	10958.156597083862	0
2	27123	10958.374063222051	1
2	27124	10959.056161959524	0
[...]
6	63185	25409.457209137421	0.967982190195
6	63190	25411.396611158371	0.681912945257
6	63200	25414.730083402001	1.117212755982
6	63205	25416.094980843782	2.823826245368
6	63235	25432.872798741062	0.767760970024
6	63247	25440.404959820967	0.990204086807
6	63250	25440.873120302671	1.065711801221
6	63270	25456.11137722583	1.553318687676
6	63275	25462.653452889869	0.961200844264
6	63280	25464.005005051508	0.46531880293
6	63335	25502.196853092491	1.260773703158
6	63375	25509.834028769416	5.743356411983
6	63390	25518.705611854772	2.173132962458
6	63410	25526.96165448598	3.270481216466
6	63455	25535.271546255262	1.182315210679
6	63470	25545.459469774346	3.310636236945
6	63477	25548.524230920937	0.556274804752
6	63490	25550.4858648279	2.309032881148
6	63545	25582.670595297917	9.833603898431
6	63560	25585.937029303602	2.769284684189
6	63650	25632.967590296977	2.161410980858
6	63665	25636.135602587406	1.979366445842
6	63705	25652.582183620948	1.452805295879
6	63720	25664.488235681109	0.740212096367
6	63737	25669.834348992904	1.517763144069
6	63750	25673.359769202093	3.946254971374
6	63760	25677.307730857304	0.850590531062
6	63782	25691.303283031851	0.457911718171
6	63795	25693.075369951229	1.042969447686
6	63800	25695.542482244614	0.438659431087
6	63810	25697.953877621362	1.382050310151
6	63880	25717.952350004289	9.232833958304
6	63905	25723.814630655552	3.96192998516
6	63930	25730.09154636413	5.72893476282
6	63945	25736.286701334511	2.096057233748
6	63965	25743.351416088575	1.601948356608
6	63970	25744.551471953624	0.429793830216
6	63980	25756.066485306927	0.653556501633
6	63990	25767.362836010082	0.469347554212
6	63995	25769.225576171162	0.422746599698
6	64000	25772.323697686743	0.856458663056
6	64019	25775.964227923803	0.675661372759
6	64022	25776.882785501244	2.440880141829
6	64055	25791.759658273824	0.73276283876
6	64135	25840.465717313808	4.512893180352
6	64145	25849.58910028546	1.885896412521
6	64150	25854.349872444144	0.738552945293
6	64245	25897.783466398843	0.9241567255
6	64260	25905.996425666956	0.745968803111
6	64285	25924.833230998198	1.849074005905
6	64295	25927.319176650934	1.416495330086
6	64300	25931.18210424119	0.493510360131
6	64315	25944.860511923139	0.63778372095
6	64325	25947.054250916924	0.830747017916
6	64330	25954.538651381746	0.531889486266
6	64365	25964.199799015344	0.980733022738
6	64375	25966.399371241411	5.094855479133
6	64387	25976.495617447667	1.317777639627
6	64397	25977.900169870364	0.658979170487
6	64400	25978.433112072539	2.335826006976
6	64425	25989.204599634252	0.755353372451
6	64435	25994.685353700428	1.65593096584
6	64455	26002.640279706622	2.978671727626
6	64460	26003.900948511365	0.934753572429
6	64470	26005.711750690875	1.591163314911
6	64505	26018.780407800359	3.748591150851
6	64510	26019.998021794623	0.543119305465
6	64537	26036.222866420893	0.819689188525
6	64555	26040.926820097234	0.870243496588
6	64587	26046.056401246428	4.441833875714
6	64610	26050.257222882746	4.649615276485
6	64654	26063.156429788247	0.555480331942
6	64680	26072.328986944932	0.544334450783
6	64685	26075.950775996568	0.805285530677
6	64690	26079.872859206505	0.517404959397
6	64695	26086.08964596442	0.530071187718
6	64715	26097.841098967424	0.475961131882
6	64740	26107.028929875124	2.816053641095
6	64745	26107.773800740868	0.62828506357
6	64760	26110.840872012042	2.66230345049
6	64765	26113.382420181811	0.988064778131
6	64785	26117.511093110149	3.741143394178
6	64817	26128.708536634037	1.412844709383
6	64829	26130.232537276439	1.346844552157
6	64832	26131.231980960864	2.869224675089
6	64835	26131.961534427573	2.239763898399
6	64875	26167.025444704726	0.728594553657
6	64900	26174.278820593693	3.90331662898
6	64905	26176.378168673107	0.86071734475
6	64922	26189.504629048666	1.50568238505
6	64957	26204.969156895103	3.038732164559
6	64980	26217.046388842519	1.431530342224
6	65041	26226.318897455169	4.704182368023
6	65044	26227.267856206589	8.079508405827
6	65069	26231.33021595836	8.501776578865
6	65072	26232.274080167379	13.674959548626
6	65100	26244.873649458853	0.593976861844
6	65110	26253.25893324346	0.426210155478
6	65125	26268.449499029334	0.855453902949
6	65144	26277.826994618629	2.132375597208
6	65167	26288.045703905238	0.952645221967
6	65177	26289.327317013149	3.453025830857
6	65222	26298.653399023212	0.722151774867
6	65235	26306.388596453513	0.74821097618
6	65249	26310.268151541296	1.088521710632
6	65252	26310.726960750073	2.182241310272
6	65275	26336.208201429739	2.778833745112
6	65307	26343.733572274781	5.745865963337
6	65317	26345.153754094112	1.418441953862
6	65377	26362.28981330732	4.734718693974
6	65405	26368.404122189067	10.696398049236
6	65440	26387.9890258761	0.874681621697
6	65450	26407.696882535516	3.417542489009
6	65502	26433.98913519039	5.23225068153
6	65540	26442.31469264741	0.515233035898
6	65565	26449.051257072775	4.950838978241
6	65585	26461.374715652634	3.832429045169
6	65595	26465.476629436619	2.147338790446
6	65644	26480.695657086591	4.10663367996
6	65647	26481.282500901199	2.656814603487
6	65665	26486.53144774286	1.044394336569
6	65710	26510.562755825197	4.292093636876
6	65720	26517.405265025547	0.801561523601
6	65745	26530.237808974674	2.168817326496
6	65757	26535.134195018843	1.429684504483
6	65762	26535.800845030699	2.169858610583
6	65767	26536.740815381337	1.19000004334
6	65825	26568.85923901063	4.627034629168
6	65830	26573.006385531805	0.944070890965
6	65835	26578.689187116619	0.743868194241
6	65845	26597.911405348262	0.691135699507
6	65850	26599.310069460223	0.760924871126
6	65875	26612.367009646634	0.741690258821
6	65880	26616.93115271389	0.469395773625
6	65885	26621.511770767194	0.579544583289
6	65942	26633.676914235505	1.159781737674
6	65964	26636.408150436643	8.866949200554
6	65967	26636.91988077048	1.958755519691
6	65985	26644.935771908792	2.011395643149
6	66002	26649.981726972688	1.252280589698
6	66015	26651.844596017174	3.102952037404
6	66060	26664.431658285414	1.52902420123
6	66129	26704.063036915079	2.020330680208
6	66145	26706.696668398245	7.255498037583
6	66177	26714.004256170066	0.857025246719
6	66205	26719.049319081464	0.822313419199
6	66225	26722.562755700257	2.654865710281
6	66245	26725.65052831841	2.618214660292
6	66255	26731.130802706699	1.673203105599
6	66302	26757.930222877308	4.752008834498
6	66339	26764.052370841249	1.040469532616
6	66344	26764.710138873995	0.887662426691
6	66385	26772.923480331627	0.526656713709
6	66390	26774.161448986896	0.939745335095
6	66549	26831.732601163206	3.610052535621
6	66564	26833.711169346417	2.053942221629
6	66567	26834.473633682583	2.744687249784
6	66584	26836.403943994919	1.42193562299
6	66620	26842.685933212158	7.185030787844
6	66670	26861.628415433622	1.99154398595
6	66695	26867.004716729944	0.90005984786
6	66715	26898.929578908509	0.428690314945
6	66725	26900.617482785772	1.355656097841
6	66770	26930.868174795871	5.273553171435
6	66780	26942.105539937014	1.885959064002
6	66789	26944.022701030179	0.751338205999
6	66792	26944.715242853249	1.248034485776
6	66810	26957.349117733263	0.644283541106
6	66815	26959.122660209373	0.952681983449
6	66844	26964.692250649838	4.019037131315
6	66870	26974.08953256456	1.873187271289
6	66885	26977.829716966516	2.768819466177
6	66900	26981.567686231455	2.921943892853
6	66905	26992.736009833514	0.417028545821
6	66935	27009.176711207235	0.725800775364
6	66957	27016.542116988903	5.741914558206
6	66970	27019.604418124891	3.757651686488
6	66987	27023.614328002511	1.682353341021
6	67025	27038.478506533799	0.534278149996
6	67082	27064.841709751162	1.767859193279
6	67140	27080.855064733552	1.195189872429
6	67195	27098.735741087846	2.620504494101
6	67225	27116.247615509782	1.551592430233
6	67277	27144.172528094585	7.018091200332
6	67320	27156.204554851507	5.129683603472
6	67347	27170.170119561558	1.219518170441
6	67380	27178.882596117103	3.591514722017
6	67415	27197.418147141547	0.732493408211
6	67430	27203.217642067396	0.868345588678
6	67437	27205.888874830808	0.844809993589
6	67455	27214.245413349199	0.796165621327
6	67484	27219.441317282412	4.928693310723
6	67492	27220.817899864474	1.773977361546
6	67495	27221.709021342154	6.279687600306
6	67505	27229.442171552418	0.789517873013
6	67515	27234.788022051586	2.414887205206
6	67535	27242.942967592898	3.553720224046
6	67550	27258.05996769012	3.16184977094
6	67557	27262.177677207727	0.490494287759
6	67565	27266.080291466008	0.631707783416
6	67570	27268.176139713655	0.465271378262
6	67580	27271.663184306447	2.01757153303
6	67599	27275.415276883514	0.687292550268
6	67627	27280.343208848302	1.435956813747
6	67694	27291.094090292671	3.568967217952
6	67710	27294.625437767462	7.910593772991
6	67742	27299.336170388408	2.884445319669
6	67755	27304.090986409396	0.64450593479
6	67780	27308.751750536331	0.638292053901
6	67785	27316.726316353312	0.423934373772
6	67807	27335.562173090177	0.654337259009
6	67817	27338.096644784688	0.505389042711
6	67835	27347.591877149003	2.468886021314
6	67857	27353.948332931288	0.969661756232
6	67917	27367.863325903336	1.058652462448
6	67955	27385.416216364129	0.62479662667
6	68025	27433.162563371423	2.455603877659
6	68035	27438.269044438691	1.89683693497
6	68094	27446.841750036652	3.961515250505
6	68151	27454.914134563074	4.426876935839
6	68154	27455.650911749933	10.232289676016
6	68215	27503.252071813662	0.976275087474
6	68220	27507.025598152893	0.477943913685
6	68240	27512.23382877718	2.943171163748
6	68247	27514.095427463701	0.976382236136
6	68255	27522.58967234129	0.437153548561
6	68280	27537.584927308698	1.215208817034
6	68295	27544.450869419395	0.562048775842
6	68322	27565.083515230571	0.598884534495
6	68395	27579.820293416134	2.17577488805
6	68412	27583.06999899864	1.422466099656
6	68435	27600.5476214944	0.953004962066
6	68445	27605.566465954915	2.074508133806
6	68465	27610.153994440267	0.998097645336
6	68475	27621.352239866505	2.078272278008
6	68495	27626.30493748907	2.323444864543
6	68510	27636.82977810878	0.828850335861
6	68525	27642.171610036231	0.987034544584
6	68530	27650.721791443882	0.577233617567
6	68540	27657.593719875964	0.509340742091
6	68545	27662.620483347575	0.487009183923
6	68550	27664.236198013132	0.848341045482
6	68580	27676.76363503211	2.627508857865
6	68600	27689.372582541152	1.473164750107
6	68625	27694.92814419903	4.160147420775
6	68644	27708.508847679152	1.115530520199
6	68647	27709.329076871649	2.400696495361
6	68720	27728.619375131857	0.713692605495
6	68735	27736.44216499007	1.530695688004
6	68745	27746.291814755256	0.509183324507
6	68755	27751.283294027844	0.541146619804
6	68777	27756.007105792482	2.033110428553
6	68790	27758.24555488805	4.916952384969
6	68839	27775.71445405122	1.914262105782
6	68850	27780.057373075523	0.938530946942
6	68924	27821.004620655299	2.18094204206
6	68990	27845.466013443199	0.896842312114
6	69000	27849.915623404744	1.574346418293
6	69010	27855.551018094286	1.865161713592
6	69027	27862.449961513158	1.335059537971
6	69040	27880.181163068182	0.659081065143
6	69047	27881.059174374899	0.738520029141
6	69050	27881.743605490856	1.296687194717
6	69070	27887.224388535433	2.267950905734
6	69145	27909.273602041919	7.14683769301
6	69150	27912.6648672406	0.72908390481
6	69172	27925.202032891885	1.084616200868
6	69180	27929.497656134959	0.967496141093
6	69230	27970.166577332693	2.65777170354
6	69235	27973.053979594866	0.965324207954
6	69270	27981.876863730266	2.002392891376
6	69325	28013.194014292601	1.585990317939
6	69330	28015.307224912431	0.976445423951
6	69350	28027.743334763311	2.782945265965
6	69355	28034.39581677004	0.950601499947
6	69370	28041.985632474485	3.519516276642
6	69377	28054.95618378933	0.712218331965
6	69380	28055.792255563507	1.174655083706
6	69395	28064.882547804827	1.78023601126
6	69415	28084.118702140079	0.489371023886
6	69435	28101.452484972042	0.535423694784
6	69440	28103.727111181019	0.860206884891
6	69452	28105.856603529901	1.633985067797
6	69460	28107.054452870745	1.645099990602
6	69500	28118.965860799448	3.801559169639
6	69571	28152.558586191132	0.801630570088
6	69574	28153.277555899673	4.05478841352
6	69585	28162.009918199139	0.591052268865
6	69794	28220.676259473202	0.899797800928
6	69797	28221.153224659854	1.22146711758
6	69817	28224.558380991523	1.937701007555
6	69820	28225.286859099311	0.830297555262
6	69850	28248.935850953923	0.855714562396
6	69860	28250.816361493249	1.761871164044
6	69895	28260.705349292692	1.593525361168
6	69900	28267.701788796139	0.831356832944
6	69917	28272.721795415296	1.680582794812
6	69932	28274.279992414338	2.343400083266
6	69989	28283.446892856199	0.969055833414
6	70065	28334.849978102224	0.721668521548
6	70087	28339.347057930654	0.913301283587
6	70100	28341.679872128298	1.793222310075
6	70110	28354.427483422937	1.821762907147
6	70134	28361.402498367987	2.260149848834
6	70145	28363.729757174802	3.063834625271
6	70160	28385.293956909428	0.478833302623
6	70165	28389.215314641746	0.666635706043
6	70187	28395.305318696659	2.140741913025
6	70190	28396.111359333156	3.282420929267
6	70220	28404.742624456659	1.286097052361
6	70235	28423.041170551798	1.493590611535
6	70250	28436.135153219446	1.207582229753
6	70292	28453.592353595869	4.511848771773
6	70295	28454.238320035656	2.369360001307
6	70327	28466.014382164484	1.1155986854
6	70355	28475.936043872284	3.289795169294
6	70387	28485.23836852473	3.676804076322
6	70449	28511.405571294327	1.348099030735
6	70454	28512.038352231106	2.197317197453
6	70489	28517.722091752232	3.774453650651
6	70492	28518.691152722423	1.074605164895
6	70557	28544.286606273541	2.655767340073
6	70560	28544.963026512388	2.785237945373
6	70575	28548.353193021023	2.096359002666
6	70585	28558.197209015514	1.921710495603
6	70595	28561.129338548518	0.633981498983
6	70600	28564.163136722352	0.864860821934
6	70610	28571.64213792231	1.334970085425
6	70699	28608.87618923725	2.82013106118
6	70709	28610.658108821161	5.661504990562
6	70740	28615.520240622176	9.073208742163
6	70819	28639.842049076437	2.322740646516
6	70822	28640.641843452054	2.430551076546
6	70847	28645.224996588109	4.549184002774
6	70850	28645.836689482545	2.53514253139
6	70904	28665.882142087104	3.127782024865
6	70915	28667.411390672563	7.222423607837
6	70940	28687.740574044905	0.464409685787
6	70950	28707.882295498927	0.920416659676
6	70970	28715.53050160292	1.991130207293
6	70995	28739.501758404069	0.640142683545
6	71027	28749.297667394891	5.076586606986
6	71040	28754.644368210965	2.290198827969
6	71055	28757.497946104926	2.340988720965
6	71074	28763.617042018324	2.449959742048
6	71100	28774.02435736411	0.542235429725
6	71165	28792.457541884046	0.933882613061
6	71175	28800.164070182219	0.59011240704
6	71190	28809.785389454667	1.999006861208
6	71265	28834.815773248157	2.728839381068
6	71270	28836.717170210788	0.639983050898
6	71277	28843.959043557866	0.744463322917
6	71300	28857.643213698187	0.621030392405
6	71317	28865.534804967066	1.233833163254
6	71385	28880.090448413552	2.237333135444
6	71427	28901.026598528547	0.704115579836
6	71490	28916.846133280741	1.966654907651
6	71525	28937.713622823899	1.666331706075
6	71535	28940.338379929092	1.378187395236
6	71555	28946.624290274256	0.968283152487
6	71570	28951.258177355824	1.804124499491
6	71595	28968.90999831023	5.23603321918
6	71667	29005.285437735392	0.510114608347
6	71670	29005.897404501809	3.134164001255
6	71700	29038.262301167849	0.448546422739
6	71750	29057.845328220951	5.525037694758
6	71772	29073.767968473415	1.978827622478
6	71782	29075.612892767737	2.251026042508
6	71799	29077.716984816218	2.481186175562
6	71833	29082.276475038422	3.842414758513
6	71868	29087.137843488758	5.662797312893
6	71891	29090.019980463009	7.454362417392
6	71907	29092.695021249761	8.183315940598
6	71937	29111.108271273863	1.060549731506
6	71975	29122.878622745375	3.782500274101
6	72007	29134.100208242602	0.641124243941
6	72010	29134.664487643485	2.382967122344
6	72015	29137.922914744467	0.781601644633
6	72050	29147.378186356979	5.568821276598
6	72055	29148.469682484502	2.112093670485
6	72092	29155.989124174119	1.94085857595
6	72100	29157.537666562406	1.920461105545
6	72105	29162.354590794853	0.660841594078
6	72115	29171.363205351496	1.972564442831
6	72179	29195.344433279153	0.975162417137
6	72212	29211.670933071432	3.551313055202
6	72254	29232.943733458561	3.018754726696
6	72285	29240.380035895515	4.878877327265
6	72315	29244.607871477286	4.146462090027
6	72336	29249.34309964761	0.879457840649
6	72346	29250.893693535764	2.052957862807
6	72369	29254.532176323737	6.974377563982
6	72425	29277.865719769462	0.991443978436
6	72430	29282.84052382189	0.768505783146
6	72495	29323.571744709072	0.586830967246
6	72525	29335.732783010254	3.495428546663
6	72560	29352.116346968964	0.74836989413
6	72574	29355.84534649733	1.223415016354
6	72603	29359.642666025884	3.338763501242
6	72606	29360.597985306713	5.057664378354
6	72609	29361.275132259499	2.206351693233
6	72642	29371.470370567337	1.728743256028
6	72681	29381.171049075534	1.082769207612
6	72720	29389.154492345373	4.168932790918
6	72730	29394.91477759186	1.830112784162
6	72744	29396.626754684336	0.988901972771
6	72747	29397.51069839104	1.159677427056
6	72788	29402.621573932292	3.376891984179
6	72796	29403.773412328363	6.09331434491
6	72845	29426.628996278591	0.420909332205
6	72860	29428.738752756238	1.905496716359
6	72910	29438.611696607676	0.817915935861
6	72966	29463.164299062896	2.677815047898
6	72969	29463.85402478443	1.380276950562
6	73010	29472.195803705945	1.950296540935
6	73020	29479.620434771721	0.54948499226
6	73070	29497.618358588856	0.573513366701
6	73095	29509.710187615008	1.620461728314
6	73105	29515.193002052065	2.175225082753
6	73110	29531.097469907749	0.839556971472
6	73147	29542.546385496088	2.865024018055
6	73170	29557.823472294696	1.723564858568
6	73180	29560.49076624387	1.344643889888
6	73236	29570.983506001497	6.175291749774
6	73275	29579.689893373115	4.854730082313
6	73310	29601.754350745904	1.745795534014
6	73315	29611.207034555965	0.639117596066
6	73337	29627.271611951288	0.899705467839
6	73345	29629.375607334294	5.69076182273
6	73370	29635.997217376047	0.794205906941
6	73432	29665.997010767471	2.245170292431
6	73476	29673.742810002645	5.599260394809
6	73483	29674.53304897903	1.761952485425
6	73496	29676.849936703103	2.489738323699
6	73504	29678.333053197362	5.131726394631
6	73507	29679.128766941628	7.522954630538
6	73510	29679.700286361412	5.295588787569
6	73570	29698.66355935379	8.059264900205
6	73575	29702.362602838257	0.890942669474
6	73587	29706.212753945217	2.315348788011
6	73590	29706.86369650215	0.846351310289
6	73615	29711.90929352235	1.758124012314
6	73665	29726.588558470786	5.199308118383
6	73690	29736.611437050811	1.80262341407
6	73728	29742.089534780345	4.168598128808
6	73751	29745.073811541086	3.8299879357
6	73767	29747.19314804376	6.359470760335
6	73817	29755.256203795292	0.830889661827
6	73820	29756.217396920801	2.276252513868
6	73830	29765.715095850128	1.766598369506
6	73835	29778.955174761801	0.401490771072
6	73909	29795.210303052187	9.596248768822
6	73940	29805.727891781462	0.886661543697
6	73990	29819.517844652763	3.580466961828
6	74007	29825.20361346617	2.416579950415
6	74017	29826.503232423129	0.911357211892
6	74024	29827.375573698577	1.76416625301
6	74044	29830.325157531776	1.044104233729
6	74075	29844.4517738195	0.986263266299
6	74129	29862.084626323641	1.305534691418
6	74142	29864.159405011036	4.19714372612
6	74145	29864.962607416794	7.054393758312
6	74162	29887.853828630065	1.348586830912
6	74165	29888.78922975704	2.322190649109
6	74170	29889.909397353037	0.48963340288
6	74200	29902.133383307323	2.818936396099
6	74210	29904.210239240266	2.03819961741
6	74220	29908.179715620571	0.621625594422
6	74227	29910.708651091405	0.740643680282
6	74270	29917.748921894445	2.477320456093
6	74277	29918.692592134629	2.258379232928
6	74285	29920.559706104198	5.914511251729
6	74298	29922.89406726819	7.364415603046
6	74322	29930.601242270083	0.815952426987
6	74380	29971.391473610817	0.693086868622
6	74409	29990.036927602715	1.33779023727
6	74412	29990.996049172566	2.771375234658
6	74420	29992.740141344881	3.435637050836

