version 2
run First_exit_5-13-20191023-00:19:43-5132
attr configname First_exit_5
attr datetime 20191023-00:19:43
attr experiment First_exit_5
attr inifile omnetpp.ini
attr iterationvars ""
attr iterationvarsf ""
attr measurement ""
attr network ResponseTimeNetwork
attr processid 5132
attr repetition 13
attr replication #13
attr resultdir results
attr runnumber 13
attr seedset 13
param **.Source.interArrivalTime exponential(4s)
param **.jobPriority bernoulli(0.4)
param **.PS.serviceTimeU1 "uniform(0.4s, 1.0s)"
param **.PS.serviceTimeU2 "uniform(1s, 1.2s)"
param **.SS1.serviceTime exponential(0.4s)
param **.SS2.serviceTime exponential(0.8s)
param **.PS.exitProbability bernoulli(0.5)

vector 0 ResponseTimeNetwork.SS1 queueLength:vector ETV
attr interpolationmode sample-hold
attr title "queue length, vector"
vector 1 ResponseTimeNetwork.SS2 queueLength:vector ETV
attr interpolationmode sample-hold
attr title "queue length, vector"
vector 2 ResponseTimeNetwork.QueueU1 queueLength:vector ETV
attr interpolationmode sample-hold
attr title "queue length, vector"
vector 3 ResponseTimeNetwork.QueueU2 queueLength:vector ETV
attr interpolationmode sample-hold
attr title "queue length, vector"
vector 4 ResponseTimeNetwork.sink lifeTimeU1:vector ETV
attr interpolationmode none
attr title "lifetime of arrived jobs U1, vector"
attr unit s
vector 5 ResponseTimeNetwork.sink lifeTime:vector ETV
attr interpolationmode none
attr title "lifetime of arrived jobs, vector"
attr unit s
vector 6 ResponseTimeNetwork.sink lifeTimeU2:vector ETV
attr interpolationmode none
attr title "lifetime of arrived jobs U2, vector"
attr unit s
0	0	0	0
0	317	112.843404534134	1
0	319	112.978748185604	0
0	2975	1220.250813457559	1
0	2976	1222.636925678457	0
0	2990	1224.444749246155	1
0	2991	1224.610674680851	0
0	3135	1262.399308501595	1
0	3136	1262.548955996606	0
0	3140	1263.006847086913	1
0	3141	1263.092539270249	0
0	3145	1263.570663340649	1
0	3146	1263.736666784991	0
0	3320	1312.158393420889	1
0	3321	1312.579031663399	0
0	9327	3762.770325631027	1
0	9329	3763.248453163098	0
0	9815	3937.2270781874	1
0	9816	3937.27084355078	0
0	10857	4330.765769679298	1
0	10859	4330.849027973736	0
0	10877	4333.259306845827	1
0	10879	4333.401211522108	0
0	11030	4409.121615428707	1
0	11031	4409.860116193628	0
0	11035	4410.672463792188	1
0	11036	4410.707688143494	0
0	12985	5193.286696080668	1
0	12986	5193.301474792471	0
0	13946	5677.345440032659	1
0	13948	5677.673536580257	0
0	15090	6192.001469184424	1
0	15091	6192.441112340592	0
0	15530	6340.641242054431	1
0	15531	6340.889314812281	0
0	15535	6341.331465659196	1
0	15536	6341.444327615408	0
0	24345	10093.059110680588	1
0	24346	10093.110434372642	0
0	25192	10536.816124613202	1
0	25194	10536.930726631765	0
0	25234	10542.073954082506	1
0	25243	10543.129322295189	0
0	25730	10751.125163697258	1
0	25731	10751.540292445388	0
0	28089	11676.309739034539	1
0	28091	11677.038814441717	0
0	28327	11741.38007487122	1
0	28329	11741.736236400994	0
0	32680	13587.041903175004	1
0	32681	13587.06747841879	0
0	35177	14573.268792363567	1
0	35179	14573.781052975401	0
0	39124	16275.327915369246	1
0	39126	16275.401800846279	0
0	41450	17179.515806546071	1
0	41451	17180.128315139723	0
0	43425	17950.701105866676	1
0	43426	17950.704207499319	0
0	45928	18882.973674039053	1
0	45935	18883.681191712892	0
0	46620	19134.65279999304	1
0	46621	19135.0144126497	0
0	47227	19425.484660875169	1
0	47229	19425.675000708385	0
0	48149	19818.908452257376	1
0	48151	19819.069205502324	0
0	50712	20922.876845988538	1
0	50714	20922.93133358905	0
0	54815	22523.302818955026	1
0	54816	22524.852888492394	0
0	55557	22863.706271445943	1
0	55559	22864.121822926604	0
0	63879	26218.122270639031	1
0	63881	26218.276514958601	0
0	64774	26545.858393612521	1
0	64776	26545.996607645285	0
0	65685	26884.651580049872	1
0	65686	26884.817905739607	0
0	66110	27055.178992396131	1
0	66111	27055.938710760328	0
0	67267	27542.027056863896	1
0	67269	27542.040893952252	0
0	72364	29548.613828286985	1
0	72366	29548.626487229648	0
0	72455	29564.514118532626	1
0	72456	29564.860292115288	0
0	73576	29991.587042298901	1
0	73578	29992.156165781139	0
1	0	0	0
1	234	96.042829566875	1
1	237	96.712348306605	2
1	240	97.701682717593	3
1	241	97.727245848208	2
1	244	98.324259983894	1
1	250	99.110564516719	2
1	251	100.059328374667	1
1	254	100.15385690914	0
1	280	103.714039472611	1
1	281	105.442543722081	0
1	560	246.610424682599	1
1	561	246.720410365103	0
1	702	307.548219997296	1
1	705	307.958890473517	2
1	706	308.490799161468	1
1	709	308.589358716708	0
1	712	309.00021032775	1
1	714	309.209820707705	0
1	717	309.419406096639	1
1	719	309.515338979564	0
1	722	309.868400858018	1
1	724	310.45973691507	0
1	730	311.06929431893	1
1	731	312.33424358044	0
1	735	313.190369955797	1
1	736	313.554235623198	0
1	1097	416.742488491816	1
1	1099	417.459202351232	0
1	1102	417.584751524126	1
1	1110	418.931222316438	2
1	1111	421.581638652888	1
1	1116	422.287684413444	0
1	1640	656.035677511815	1
1	1641	656.244591221742	0
1	2155	862.257422689073	1
1	2156	863.073359886524	0
1	2385	942.487256961236	1
1	2386	943.038565892358	0
1	2575	1038.005010164015	1
1	2576	1038.372111461468	0
1	2582	1039.037023845565	1
1	2594	1041.192055691576	0
1	2905	1188.190353338209	1
1	2906	1188.976030952442	0
1	3260	1297.972970610503	1
1	3261	1298.102557561139	0
1	3410	1334.338423068661	1
1	3411	1335.200939205105	0
1	3500	1351.747728747685	1
1	3501	1352.778019751474	0
1	3775	1448.554782566319	1
1	3776	1448.620916474024	0
1	4590	1777.657848832533	1
1	4591	1778.016558200048	0
1	5195	2032.737785328887	1
1	5199	2032.979092824949	0
1	5212	2035.174936167241	1
1	5214	2035.973657646281	0
1	5530	2153.63466250512	1
1	5531	2154.575969489581	0
1	5620	2174.02607736994	1
1	5621	2175.19101451287	0
1	5625	2175.680653147036	1
1	5626	2177.649138308489	0
1	5852	2241.092335427539	1
1	5856	2242.890037497895	0
1	5905	2258.448197694614	1
1	5906	2258.67467929116	0
1	6029	2297.299209655784	1
1	6035	2298.75368219764	2
1	6039	2300.515419103726	1
1	6041	2300.772565211414	0
1	6075	2305.959108885721	1
1	6079	2306.578303463133	0
1	6082	2306.593936263953	1
1	6084	2307.111039533545	0
1	6099	2309.061224968356	1
1	6105	2310.441759062741	2
1	6106	2310.809797303871	1
1	6110	2311.245786808784	2
1	6111	2313.458093776111	1
1	6115	2314.327780585247	2
1	6116	2315.110580854335	1
1	6120	2316.097867038597	2
1	6121	2318.594824309311	1
1	6129	2320.025814431175	0
1	6170	2329.817563266815	1
1	6171	2329.85677579576	0
1	6240	2354.640894866141	1
1	6246	2357.819989124283	0
1	6260	2360.708949240726	1
1	6261	2360.716522103783	0
1	6535	2434.417201966944	1
1	6536	2434.426189227544	0
1	6565	2440.304466671664	1
1	6566	2440.476498925932	0
1	6830	2581.392259471532	1
1	6831	2581.767562430269	0
1	7200	2799.540498723906	1
1	7201	2799.771885537267	0
1	7407	2889.784369867022	1
1	7410	2890.692130953313	2
1	7414	2891.379224841434	1
1	7416	2891.626941084195	0
1	7419	2891.666159976285	1
1	7421	2891.791459907608	0
1	7452	2896.495882322231	1
1	7469	2898.873766252934	0
1	8195	3203.418754684558	1
1	8196	3203.666007136468	0
1	9092	3673.891845222258	1
1	9094	3674.403159610389	0
1	9145	3687.128093846284	1
1	9146	3687.506606490076	0
1	9670	3895.877756033049	1
1	9671	3896.063190599091	0
1	9695	3900.758292606061	1
1	9696	3900.915517564702	0
1	10132	4065.618301904097	1
1	10134	4065.861332542036	0
1	10266	4093.534504139975	1
1	10286	4096.117227966937	2
1	10288	4096.462920325962	1
1	10307	4098.717885239003	0
1	10331	4102.424503627785	1
1	10336	4103.664350949684	0
1	10346	4105.011277170891	1
1	10351	4106.089513177918	0
1	10617	4233.204661030723	1
1	10619	4233.692525956869	0
1	10670	4241.559893560577	1
1	10671	4241.563340782942	0
1	11065	4431.757303605336	1
1	11066	4432.122560608196	0
1	11110	4470.509059103384	1
1	11120	4473.482862912385	2
1	11121	4473.7385136279	1
1	11124	4474.158135356076	0
1	11127	4474.207706415998	1
1	11129	4474.397665505581	0
1	11142	4475.962607258671	1
1	11146	4476.248461533391	0
1	11297	4505.886311156871	1
1	11301	4507.373542201285	0
1	11305	4508.333856091275	1
1	11306	4508.415545296322	0
1	11310	4508.878485841516	1
1	11311	4508.88992382132	0
1	11315	4509.644333315338	1
1	11316	4510.117196224649	0
1	11885	4721.169491123153	1
1	11886	4721.336179749955	0
1	11900	4723.792616565394	1
1	11901	4724.886005182743	0
1	11935	4737.796769683131	1
1	11936	4738.133146809001	0
1	13205	5262.25124714047	1
1	13209	5262.685635437049	0
1	13760	5617.7870714005	1
1	13761	5618.897691094246	0
1	13765	5619.874351296084	1
1	13766	5622.091975889054	0
1	13912	5672.830410553562	1
1	13919	5673.896854275304	0
1	14487	5900.882541486978	1
1	14489	5901.452754606279	0
1	14850	6094.491393391196	1
1	14851	6095.045992837348	0
1	15450	6310.544246113473	1
1	15451	6311.117040044147	0
1	16070	6574.761268443114	1
1	16071	6576.519815809138	0
1	16092	6579.464680870154	1
1	16096	6581.075029390245	0
1	16105	6582.078050980402	1
1	16106	6582.821292136339	0
1	16352	6692.026948822942	1
1	16356	6693.398825606224	0
1	16370	6695.774578422759	1
1	16371	6695.795627870897	0
1	17200	7067.393542223598	1
1	17201	7067.789649703298	0
1	17702	7224.620931347752	1
1	17704	7224.742113500253	0
1	18015	7391.293255615813	1
1	18019	7391.368891266826	0
1	18037	7393.599428497314	1
1	18040	7394.268683568773	2
1	18041	7395.733340222312	1
1	18044	7395.961209054663	0
1	18070	7400.852027313754	1
1	18071	7401.394589073533	0
1	18150	7446.067312944607	1
1	18151	7446.688409966295	0
1	18162	7447.930434413598	1
1	18164	7448.387577838373	0
1	18895	7803.25729665911	1
1	18896	7803.772340048644	0
1	18915	7812.689138565275	1
1	18916	7812.722486132436	0
1	19385	8001.694285027779	1
1	19386	8003.314412071331	0
1	19930	8182.980918506272	1
1	19934	8183.109185878549	0
1	20102	8271.714478358716	1
1	20104	8271.758350540356	0
1	20315	8404.745321814128	1
1	20316	8405.296497522912	0
1	20347	8409.529847939231	1
1	20352	8410.427212567546	2
1	20356	8411.239319560126	1
1	20359	8411.743199566711	0
1	21020	8673.39632081094	1
1	21021	8673.847755884727	0
1	21510	8905.114655286025	1
1	21511	8905.219608765979	0
1	22365	9293.361191580733	1
1	22366	9293.489229268216	0
1	22585	9405.762054479005	1
1	22586	9408.620213609963	0
1	22597	9409.910857446986	1
1	22600	9410.520228805841	2
1	22601	9410.963414692823	1
1	22606	9413.062987359831	0
1	22957	9534.588731982767	1
1	22961	9536.745349444659	0
1	22965	9537.265489105997	1
1	22966	9537.288759926849	0
1	23735	9894.871851213874	1
1	23736	9896.638962241295	0
1	23947	9969.04773997708	1
1	23950	9969.922075038373	2
1	23951	9970.063707065953	1
1	23954	9970.250785786376	0
1	24040	10001.235173522311	1
1	24041	10002.440888980152	0
1	24045	10002.856322419345	1
1	24046	10003.863649720848	0
1	24075	10012.522125892939	1
1	24076	10013.78655124728	0
1	24117	10023.30285003611	1
1	24119	10024.119093675782	0
1	24130	10025.656880679933	1
1	24131	10026.03091172294	0
1	24135	10026.527016983808	1
1	24139	10027.151806421889	0
1	24865	10399.099409975643	1
1	24866	10399.678963318712	0
1	24880	10401.526918552269	1
1	24881	10401.839596090621	0
1	25246	10543.305390247509	1
1	25250	10543.686880653221	0
1	25292	10550.02576028471	1
1	25294	10550.205276851997	0
1	25297	10550.544054497677	1
1	25299	10550.549235136312	0
1	25350	10569.00424725521	1
1	25351	10569.121772308175	0
1	25555	10645.038472465644	1
1	25556	10645.714807048336	0
1	26375	10976.101439256616	1
1	26376	10976.257616684963	0
1	26834	11177.972181375654	1
1	26836	11178.067378810594	0
1	27630	11503.721164889822	1
1	27631	11504.031120802019	0
1	28145	11687.355443594584	1
1	28146	11687.426889645754	0
1	29075	12032.078358008751	1
1	29084	12033.635523671336	0
1	29205	12075.269709275126	1
1	29206	12075.939102146699	0
1	29935	12431.789870260905	1
1	29936	12432.382589629637	0
1	29980	12440.683487373852	1
1	29981	12441.873291735123	0
1	29985	12442.678481773851	1
1	29986	12443.820279601741	0
1	30005	12446.99599155445	1
1	30006	12446.999376071875	0
1	30017	12448.060083702045	1
1	30019	12448.463693777365	0
1	30547	12666.889079834259	1
1	30549	12667.156262354139	0
1	30835	12802.816966093799	1
1	30836	12803.515130033376	0
1	30885	12816.53945015425	1
1	30886	12817.284009018886	0
1	30915	12827.426085003153	1
1	30919	12828.350418336142	0
1	31555	13136.064537174539	1
1	31556	13136.602791513178	0
1	31570	13138.566195367362	1
1	31571	13138.586592448984	0
1	31717	13192.790690244926	1
1	31719	13193.017974065919	0
1	32005	13306.828385920542	1
1	32006	13307.580971330377	0
1	32012	13307.991887388398	1
1	32014	13308.168320586314	0
1	32025	13310.177392411298	1
1	32026	13310.857555219388	0
1	32867	13639.530288578997	1
1	32869	13639.782637318889	0
1	32975	13681.828673411646	1
1	32976	13682.37775698524	0
1	33265	13793.899266481464	1
1	33266	13794.333889925825	0
1	33410	13861.346764774727	1
1	33411	13861.490517806985	0
1	33415	13862.111954235403	1
1	33416	13862.135701384966	0
1	34265	14224.663964903485	1
1	34266	14225.269675781572	0
1	34270	14226.105645345285	1
1	34271	14226.176819959413	0
1	34275	14226.596297442112	1
1	34276	14227.059201962044	0
1	34362	14242.970080980969	1
1	34366	14243.552103247776	0
1	34374	14244.491015455577	1
1	34376	14244.815246227397	0
1	34379	14245.246482586799	1
1	34385	14246.747282450072	2
1	34396	14248.453382780282	1
1	34401	14248.787072497387	0
1	34795	14430.698589385586	1
1	34796	14430.879968992987	0
1	35940	14904.484865519862	1
1	35941	14905.806747864277	0
1	35962	14910.78700593588	1
1	35971	14913.095973442936	0
1	36280	15020.882302852832	1
1	36286	15021.918815337593	0
1	36289	15022.093855414486	1
1	36291	15022.527963651619	0
1	36294	15022.587835071089	1
1	36296	15023.081861236715	0
1	36655	15177.802471284841	1
1	36656	15177.864329470867	0
1	36745	15208.648760673052	1
1	36749	15209.861501480284	0
1	36757	15210.655184489223	1
1	36761	15211.581115373255	0
1	36845	15241.077067155614	1
1	36846	15242.594119404873	0
1	36929	15255.549956932617	1
1	36931	15255.818924864855	0
1	36942	15257.517058821208	1
1	36944	15257.802087523784	0
1	36952	15258.953318611205	1
1	36954	15259.191170385653	0
1	37754	15722.511224084209	1
1	37756	15722.546359078912	0
1	37995	15839.079975015571	1
1	37996	15839.709697387292	0
1	38067	15854.872576310913	1
1	38069	15855.038455176686	0
1	38077	15856.278206221535	1
1	38079	15856.298002943828	0
1	38100	15860.648131775158	1
1	38101	15861.843832902364	0
1	38300	15928.025421585462	1
1	38306	15928.854246808799	0
1	38490	16012.655517619039	1
1	38491	16014.846086506486	0
1	38495	16015.26312021975	1
1	38496	16015.750535022085	0
1	38740	16137.394504545558	1
1	38741	16138.075098988962	0
1	38745	16138.609226068983	1
1	38746	16138.786082083552	0
1	38750	16139.255771030725	1
1	38751	16141.237759376792	0
1	39240	16301.471737685662	1
1	39241	16302.374022642464	0
1	39670	16471.354332476327	1
1	39671	16472.11315797942	0
1	39915	16614.75231436341	1
1	39916	16615.403927201691	0
1	40185	16696.951828979949	1
1	40186	16696.988827039836	0
1	40245	16712.380597607927	1
1	40253	16715.815808700165	0
1	40747	16897.99693742948	1
1	40751	16898.885996629474	0
1	41117	17053.488349973575	1
1	41120	17054.399051834668	2
1	41121	17055.091689060045	1
1	41126	17056.086795870813	0
1	41130	17056.81944793476	1
1	41131	17057.299370894168	0
1	41232	17095.747755671974	1
1	41237	17096.640647768026	2
1	41240	17097.050323865127	3
1	41241	17097.195023892432	2
1	41245	17097.84392925518	3
1	41246	17098.017655746586	2
1	41251	17098.847561418234	1
1	41259	17100.116148081387	0
1	41850	17338.636757328405	1
1	41851	17338.700475986453	0
1	41855	17339.426870802941	1
1	41856	17340.365456088584	0
1	41860	17340.817724521829	1
1	41861	17341.060952861788	0
1	41865	17341.497929565743	1
1	41866	17341.855830805133	0
1	43085	17799.37977478519	1
1	43086	17800.286629748739	0
1	43510	17972.051074467539	1
1	43516	17973.937165425523	0
1	43645	18044.301817453767	1
1	43646	18044.468757961771	0
1	43700	18056.818334402641	1
1	43701	18058.910922842482	0
1	43840	18124.386307252413	1
1	43841	18125.274995230355	0
1	44060	18193.239457287797	1
1	44061	18193.384711061364	0
1	44300	18303.241901694735	1
1	44301	18303.334013616325	0
1	44305	18303.746918717151	1
1	44306	18303.991154411079	0
1	44322	18306.121883655262	1
1	44324	18306.51300589685	0
1	44590	18452.186157550781	1
1	44591	18452.696575052082	0
1	44620	18461.575690668516	1
1	44621	18462.688748077237	0
1	44745	18509.761646061962	1
1	44749	18510.376630156083	0
1	45030	18603.778890310389	1
1	45031	18603.978989383568	0
1	45115	18632.717220274854	1
1	45116	18633.862149771276	0
1	45665	18805.481529200662	1
1	45666	18805.615193046001	0
1	45690	18810.798136175844	1
1	45691	18811.048822253009	0
1	45695	18811.544933876998	1
1	45696	18812.782827571215	0
1	46590	19128.84476866877	1
1	46591	19130.097522701307	0
1	47060	19348.823117597537	1
1	47064	19351.234520088131	0
1	47550	19579.165998341411	1
1	47555	19580.751155823011	2
1	47556	19581.297499769167	1
1	47559	19581.493373068467	0
1	47562	19581.998348459215	1
1	47566	19583.029571754903	0
1	47885	19726.564772415124	1
1	47889	19726.840733538813	0
1	47947	19746.032428720243	1
1	47951	19748.393600171092	0
1	48350	19906.935748759444	1
1	48354	19909.074913492056	0
1	48365	19910.941306497164	1
1	48369	19911.925493439802	0
1	48640	20029.734117315268	1
1	48641	20030.189977650986	0
1	48945	20138.646224062246	1
1	48946	20139.308767983056	0
1	49030	20170.671056577325	1
1	49031	20172.189624020347	0
1	49327	20294.780125681985	1
1	49329	20294.848223440267	0
1	49340	20296.369209700984	1
1	49344	20297.080747431609	0
1	49347	20297.088649415626	1
1	49349	20297.325173997203	0
1	49485	20389.733355226505	1
1	49486	20390.297747246636	0
1	49890	20586.209187129689	1
1	49891	20586.225603465819	0
1	50155	20701.801402674334	1
1	50156	20702.965705314927	0
1	50162	20703.771042955756	1
1	50164	20703.771084020599	0
1	50186	20706.429481687951	1
1	50188	20706.6653200996	0
1	50790	20971.246665131112	1
1	50791	20972.68600912185	0
1	50807	20974.839015523555	1
1	50810	20975.265402323311	2
1	50811	20975.367044598126	1
1	50815	20976.233459259925	2
1	50816	20978.962447691505	1
1	50819	20978.999897098879	0
1	51237	21076.248515396572	1
1	51241	21078.887153308999	0
1	51245	21079.521311086809	1
1	51246	21079.527651378372	0
1	51652	21265.404100711928	1
1	51656	21267.941266409359	0
1	51660	21268.891003432362	1
1	51661	21269.390030361162	0
1	51665	21270.177710862187	1
1	51666	21271.291955953207	0
1	51879	21341.288159688439	1
1	51887	21342.65896354282	2
1	51889	21342.993508661543	1
1	51897	21343.904597267943	2
1	51904	21344.868858684295	1
1	51911	21345.460386224939	0
1	51925	21347.632700805987	1
1	51926	21348.062963903001	0
1	52043	21371.004635122443	1
1	52045	21371.377323106721	0
1	52475	21497.667628393188	1
1	52476	21498.420050738851	0
1	52590	21543.172929028722	1
1	52596	21543.675668392832	0
1	52621	21546.494138914917	1
1	52626	21547.015241528966	2
1	52628	21547.431823381154	1
1	52633	21547.769144330497	0
1	52685	21556.748585204904	1
1	52686	21557.827260002721	0
1	52705	21561.472095985487	1
1	52706	21561.475222797449	0
1	52725	21564.494831217722	1
1	52726	21565.212788688968	0
1	53777	22067.62418697991	1
1	53779	22067.778122050449	0
1	53870	22097.306111228494	1
1	53871	22098.491742890852	0
1	54065	22216.097511657966	1
1	54066	22216.404456069056	0
1	54290	22331.485184169351	1
1	54294	22332.131981120461	0
1	54300	22333.173130450208	1
1	54301	22333.553059609379	0
1	54355	22347.521048835072	1
1	54356	22349.132632729998	0
1	55155	22696.235691667378	1
1	55156	22696.318597554466	0
1	55200	22716.051074391162	1
1	55201	22716.709082867528	0
1	55205	22717.670630027304	1
1	55209	22718.742729552014	0
1	55804	22944.569890251118	1
1	55806	22944.917734442995	0
1	55812	22945.483981496063	1
1	55814	22945.751762628352	0
1	56777	23408.2354883516	1
1	56779	23408.72859336373	0
1	57170	23624.694058528785	1
1	57171	23625.472679851057	0
1	57182	23626.91584001993	1
1	57186	23627.531304943413	0
1	57189	23627.874410607053	1
1	57191	23627.944582681699	0
1	57650	23817.48975532061	1
1	57651	23817.871186257661	0
1	57780	23839.531913605949	1
1	57781	23839.59186211997	0
1	57805	23842.876412344913	1
1	57806	23842.908614353066	0
1	58060	23954.261300082953	1
1	58065	23955.122449009588	2
1	58066	23955.137423332824	1
1	58069	23955.763981265845	0
1	58097	23959.526167624395	1
1	58100	23959.949731149383	2
1	58101	23960.520604313561	1
1	58104	23960.755282170679	0
1	58107	23960.933973896294	1
1	58112	23961.608763673366	2
1	58114	23961.625608789166	1
1	58116	23961.761905964005	0
1	58255	24003.321990442361	1
1	58256	24003.462112556308	0
1	58480	24071.669483836228	1
1	58481	24071.800920899322	0
1	58495	24074.073864004219	1
1	58496	24075.841049244699	0
1	58740	24170.297898474237	1
1	58741	24170.501437859687	0
1	59017	24279.886793015718	1
1	59019	24280.148109799376	0
1	59080	24295.563256763699	1
1	59081	24296.003226177543	0
1	59455	24496.107403135441	1
1	59456	24497.564294496191	0
1	59460	24498.182772688906	1
1	59461	24499.127636782221	0
1	59505	24506.985092002043	1
1	59506	24507.073549988818	0
1	59510	24507.616828977362	1
1	59511	24508.345011326156	0
1	59990	24674.903247170787	1
1	59991	24675.523259534426	0
1	60162	24720.876140818414	1
1	60166	24721.473792452936	0
1	60772	24985.315119579473	1
1	60774	24985.82169714749	0
1	60872	25011.286734278558	1
1	60879	25012.221218932032	0
1	60890	25013.925696361246	1
1	60894	25014.452903284321	0
1	61720	25314.594297293489	1
1	61721	25315.60670675064	0
1	61730	25316.674893529677	1
1	61731	25317.500051088783	0
1	61825	25352.01239429215	1
1	61829	25353.370895881416	0
1	62375	25557.525620837109	1
1	62376	25557.90813137836	0
1	63022	25821.160715814877	1
1	63024	25821.522280865009	0
1	63425	26057.577333939168	1
1	63426	26057.971937933704	0
1	63457	26062.616823250357	1
1	63459	26062.730515196188	0
1	63472	26064.830585058429	1
1	63476	26066.570480927614	0
1	63485	26068.271253539737	1
1	63486	26068.316322311434	0
1	64217	26349.917073247947	1
1	64219	26350.43468457712	0
1	64222	26350.501945438462	1
1	64226	26351.317293484022	0
1	64335	26414.983508627433	1
1	64336	26415.226888011259	0
1	64350	26417.505953915997	1
1	64351	26417.656491314109	0
1	64355	26418.151747501736	1
1	64359	26418.862029920871	0
1	64490	26447.866710477836	1
1	64491	26448.108265839864	0
1	64495	26449.020016923288	1
1	64496	26449.957083099538	0
1	64635	26503.254821564235	1
1	64636	26503.586474238137	0
1	64645	26505.069818593455	1
1	64650	26508.567377877075	2
1	64651	26509.262671842264	1
1	64654	26509.983597806966	0
1	64675	26512.74349189814	1
1	64676	26513.032943265109	0
1	64680	26513.796643983123	1
1	64681	26514.170024142867	0
1	65350	26770.454281688451	1
1	65351	26770.620840442361	0
1	65915	26996.535134128269	1
1	65916	26998.093440780055	0
1	66070	27047.008486558523	1
1	66071	27047.062806692901	0
1	66090	27049.934261292168	1
1	66091	27050.784440920044	0
1	66495	27239.243703194983	1
1	66496	27239.875290909749	0
1	66695	27329.24055104008	1
1	66696	27329.36201538639	0
1	66732	27334.791917024573	1
1	66734	27335.61092083004	0
1	66860	27378.886618614304	1
1	66861	27378.958500899212	0
1	66865	27379.832237852901	1
1	66866	27380.639461272985	0
1	67905	27794.438196500029	1
1	67906	27795.447083343515	0
1	67915	27797.204265919091	1
1	67916	27798.727249184506	0
1	67925	27800.145350082799	1
1	67936	27801.556511593919	0
1	67952	27803.455743913475	1
1	67954	27803.508215466143	0
1	68160	27853.003575323583	1
1	68161	27853.619047163754	0
1	68335	27926.370519094157	1
1	68336	27927.691169532026	0
1	68755	28108.833717334034	1
1	68756	28109.910716509339	0
1	68760	28110.668332351357	1
1	68761	28112.093097618647	0
1	68765	28112.912706813222	1
1	68766	28114.481959628864	0
1	68775	28119.240416708761	1
1	68776	28119.500414845547	0
1	69195	28336.85526748994	1
1	69200	28338.208394482271	2
1	69201	28338.212106144265	1
1	69205	28338.660497978027	2
1	69209	28339.856779034777	1
1	69212	28340.32651380751	2
1	69214	28340.5831016726	1
1	69216	28340.851518290783	0
1	69219	28341.198590924206	1
1	69223	28341.464599029792	0
1	69226	28341.814735044806	1
1	69228	28342.102907152211	0
1	69520	28428.475229730042	1
1	69521	28428.604515643882	0
1	70250	28732.453632180462	1
1	70251	28733.012280504995	0
1	70255	28733.469762985066	1
1	70256	28734.023267078462	0
1	70265	28735.264166165299	1
1	70266	28735.808225450329	0
1	70339	28752.949055870738	1
1	70341	28753.187092683004	0
1	70417	28763.932382097753	1
1	70420	28764.727353983518	2
1	70421	28766.083596060858	1
1	70424	28766.48376738675	0
1	70480	28805.391649284044	1
1	70481	28806.076032720424	0
1	70515	28822.39158992159	1
1	70516	28822.567621801149	0
1	70725	28884.215765553461	1
1	70726	28884.326576691776	0
1	70735	28885.424422761429	1
1	70736	28886.1592096608	0
1	70880	28937.336478618285	1
1	70881	28937.906915000015	0
1	70890	28939.222357522491	1
1	70891	28939.391557219892	0
1	71110	29037.65760550599	1
1	71111	29037.760488339135	0
1	71175	29055.052219231417	1
1	71180	29056.066774995686	2
1	71181	29060.506777630639	1
1	71186	29060.750185765364	0
1	71195	29062.046868532509	1
1	71196	29064.730185196711	0
1	71210	29067.224384770984	1
1	71211	29069.894738132569	0
1	71215	29070.567483609139	1
1	71216	29071.191599325762	0
1	71220	29071.734008950154	1
1	71221	29071.949550661292	0
1	71555	29233.61359622759	1
1	71556	29234.103303005227	0
1	71560	29234.743713207969	1
1	71564	29235.558573775493	0
1	71977	29379.740040214474	1
1	71980	29380.589229245226	2
1	71981	29380.616263101943	1
1	71985	29381.228259341786	2
1	71986	29381.922750029114	1
1	71991	29382.387569499448	0
1	72030	29396.835663937826	1
1	72031	29397.626222060997	0
1	72492	29572.530011736346	1
1	72494	29572.847325547515	0
1	72497	29572.996712669428	1
1	72500	29573.471610162105	2
1	72501	29574.613452969377	1
1	72504	29574.925975691851	0
1	72509	29575.542634775329	1
1	72517	29576.569630646312	2
1	72519	29577.048557288941	1
1	72521	29577.076186408282	0
1	72990	29804.851949077552	1
1	72991	29804.897968933322	0
1	73365	29952.253156047007	1
1	73366	29952.449526726498	0
1	73425	29969.679775083301	1
1	73426	29970.314782402626	0
1	73542	29987.034271531701	1
1	73551	29988.479548965458	0
1	73622	29998.721453968984	1
1	73624	29998.834816141845	0
2	0	0	0
2	30	30.081856594996	1
2	31	30.168321307762	0
2	52	42.237934058545	1
2	53	42.499787150319	0
2	57	42.717916629924	1
2	58	43.030526554394	0
2	65	43.994159455903	1
2	66	44.75584950414	0
2	107	57.518503104357	1
2	108	57.593640937166	0
2	112	57.723377342036	1
2	113	58.364508864259	0
2	310	111.467967032921	1
2	311	111.993713116134	0
2	315	112.378572512417	1
2	316	112.843404534134	0
2	320	112.978748185604	1
2	322	113.072739039813	2
2	323	113.317960961723	1
2	327	113.320359644701	2
2	329	113.630238847719	3
2	330	113.885636693427	2
2	333	114.438276204329	1
2	338	115.23958902918	0
2	344	115.342069841277	1
2	345	115.746458689125	0
2	425	143.786353275143	1
2	426	144.218880316327	0
2	580	249.81369290891	1
2	581	250.060307948521	0
2	590	251.139904607415	1
2	591	252.116407332851	0
2	755	318.087018723867	1
2	756	318.095347315136	0
2	795	334.312815308053	1
2	796	335.137942259067	0
2	810	336.756462521581	1
2	811	337.161892602189	0
2	825	339.485078936764	1
2	826	339.513495257905	0
2	830	339.811833864046	1
2	831	340.032981012332	0
2	835	340.564454729591	1
2	836	340.694822956937	0
2	840	340.788724058254	1
2	841	341.219741985471	0
2	860	344.546283325766	1
2	861	344.855880363071	0
2	865	344.926759574904	1
2	866	345.592927506445	0
2	895	356.014049895951	1
2	896	356.882062572599	0
2	910	360.594099626243	1
2	911	361.406659836828	0
2	920	362.152073607033	1
2	923	362.822652628779	0
2	1045	407.879158241437	1
2	1046	407.994652792737	0
2	1060	411.359499460113	1
2	1063	411.756621585137	0
2	1074	412.239142608155	1
2	1075	412.937131803439	0
2	1135	428.942847014536	1
2	1138	429.343352729725	0
2	1160	439.496529657214	1
2	1161	440.345166934786	0
2	1320	521.573466367431	1
2	1321	521.801496551412	0
2	1335	533.191934063753	1
2	1338	533.688397174476	0
2	1360	543.325756852967	1
2	1361	543.558624382489	0
2	1467	595.514007091423	1
2	1468	595.819729864108	0
2	1477	596.822700693937	1
2	1478	597.111343200388	0
2	1595	642.557663926215	1
2	1596	643.028290297869	0
2	1760	711.406822534168	1
2	1761	711.882169721127	0
2	1995	815.687582770141	1
2	1996	815.800448764153	0
2	2007	817.413981444334	1
2	2008	817.705498263597	0
2	2015	818.82614282673	1
2	2016	818.906696385316	0
2	2050	827.136905066391	1
2	2051	827.719168050927	0
2	2070	831.44727591561	1
2	2071	831.912218969355	0
2	2080	832.893606840744	1
2	2081	833.485160173795	0
2	2147	860.90257178199	1
2	2148	861.153439647243	0
2	2230	889.088865667363	1
2	2231	889.435952629118	0
2	2255	903.62229664448	1
2	2256	903.91786051518	0
2	2260	904.392696988173	1
2	2261	904.616626008085	0
2	2265	905.196431611748	1
2	2266	905.29856063565	0
2	2325	933.208730127097	1
2	2326	933.737355007236	0
2	2335	935.282773155473	1
2	2336	935.424421217017	0
2	2350	937.296124376921	1
2	2351	937.731833559195	0
2	2355	937.756905814715	1
2	2358	938.32387562144	0
2	2365	939.61100229146	1
2	2366	940.086594982459	0
2	2375	940.612488907653	1
2	2376	941.205341956173	0
2	2450	974.978295296356	1
2	2451	975.159513130106	0
2	2460	976.161939489597	1
2	2461	976.710079070774	0
2	2485	981.385134569591	1
2	2488	981.707209457217	0
2	2580	1038.540662465726	1
2	2581	1039.037023845565	0
2	2605	1043.370338876701	1
2	2606	1044.172984501697	0
2	2615	1048.114074307963	1
2	2616	1048.957438397482	0
2	2665	1064.769224731354	1
2	2666	1065.098710954623	0
2	2695	1087.815713823075	1
2	2696	1087.882662410282	0
2	2700	1087.974888373543	1
2	2703	1088.711486424592	0
2	2855	1158.903362951067	1
2	2856	1159.103092813929	0
2	2865	1160.116754950671	1
2	2866	1160.645010876161	0
2	2970	1218.808388075306	1
2	2971	1219.38106704932	0
2	2980	1222.941299873985	1
2	2981	1223.188219352987	0
2	2985	1223.461421828414	1
2	2986	1223.787286178338	0
2	2995	1224.670378031014	1
2	2996	1225.025017753325	0
2	3115	1258.680236953283	1
2	3117	1258.689579908183	2
2	3118	1258.943927228527	1
2	3121	1259.504236802349	0
2	3125	1259.63517625877	1
2	3126	1260.435676003883	0
2	3150	1263.871000468996	1
2	3151	1264.273517743681	0
2	3245	1295.151251070102	1
2	3246	1295.228452671055	0
2	3325	1313.122921456269	1
2	3326	1313.57642036752	0
2	3365	1325.679273503365	1
2	3366	1325.760868201341	0
2	3390	1331.336839472471	1
2	3393	1331.792034155342	0
2	3417	1336.04008329814	1
2	3418	1336.045557676398	0
2	3422	1336.561128661306	1
2	3423	1336.838245814296	0
2	3427	1337.147690754536	1
2	3430	1337.682952308564	0
2	3434	1337.914469641189	1
2	3435	1338.679899900642	0
2	3439	1338.706185123764	1
2	3442	1339.645403677041	0
2	3449	1340.558769135513	1
2	3450	1340.985295994954	0
2	3457	1342.54529405929	1
2	3458	1342.701631545696	0
2	3467	1344.040417786009	1
2	3468	1344.058076513327	0
2	3505	1352.782845023559	1
2	3506	1353.240568466443	0
2	3515	1354.20921895674	1
2	3516	1354.880763678257	0
2	3525	1356.230209931231	1
2	3526	1356.769714735364	0
2	3575	1382.474688302608	1
2	3576	1382.784272380355	0
2	3640	1403.634359311984	1
2	3642	1404.044119905125	2
2	3643	1404.499053863412	1
2	3648	1405.155754342884	0
2	3655	1406.266202522476	1
2	3656	1407.068240744271	0
2	3685	1422.62966094928	1
2	3686	1422.843324308359	0
2	3695	1423.802554493404	1
2	3696	1424.312138752435	0
2	3782	1449.077344280585	1
2	3783	1449.424136709906	0
2	3820	1460.576084474333	1
2	3821	1460.59253876474	0
2	3915	1504.631966589109	1
2	3916	1505.046873219953	0
2	3920	1505.279673597699	1
2	3921	1505.499505672407	0
2	3925	1505.883029924043	1
2	3926	1506.437531211962	0
2	3930	1506.660090043295	1
2	3931	1507.25108360419	0
2	3935	1507.285824724214	1
2	3936	1508.011595955761	0
2	3940	1508.532526581808	1
2	3941	1508.537101679938	0
2	3950	1511.946148326036	1
2	3951	1512.264604956119	0
2	4005	1533.393595160666	1
2	4006	1534.262830707907	0
2	4025	1537.293144573159	1
2	4026	1537.452164280184	0
2	4060	1552.632788255748	1
2	4061	1553.11643557146	0
2	4160	1588.934262767469	1
2	4163	1589.677434535717	0
2	4187	1592.880194324638	1
2	4188	1593.384326530961	0
2	4230	1618.178876282205	1
2	4231	1618.231226448653	0
2	4250	1622.961335973405	1
2	4251	1623.246672948622	0
2	4255	1623.326155394609	1
2	4256	1623.968530603205	0
2	4332	1655.469465053303	1
2	4333	1655.765465829134	0
2	4337	1655.887813749304	1
2	4342	1656.743973911213	0
2	4465	1704.623853751637	1
2	4466	1704.990827861215	0
2	4490	1708.922791963307	1
2	4491	1709.049086101935	0
2	4620	1783.2824852173	1
2	4621	1783.441071599529	0
2	4740	1826.157701982642	1
2	4741	1826.371344475514	0
2	4775	1842.523095126159	1
2	4776	1842.889787335383	0
2	4810	1859.36924009111	1
2	4811	1859.563866411443	0
2	4820	1860.509399886048	1
2	4821	1861.421922341981	0
2	4877	1885.822287063327	1
2	4878	1885.94302621806	0
2	5025	1964.523437238277	1
2	5026	1964.872493034966	0
2	5067	1977.402649055606	1
2	5068	1977.758151654486	0
2	5075	1979.37004895521	1
2	5076	1979.393328410766	0
2	5130	2010.499856321438	1
2	5131	2010.939924853119	0
2	5210	2034.760629576551	1
2	5211	2035.174936167241	0
2	5222	2036.497867793944	1
2	5223	2036.875067899326	0
2	5230	2037.665883304333	1
2	5231	2038.569010203328	0
2	5240	2039.388725244063	1
2	5241	2039.838014538489	0
2	5250	2040.259364133991	1
2	5251	2041.10301205697	0
2	5255	2041.515996592214	1
2	5256	2041.915186295002	0
2	5265	2042.853376767655	1
2	5266	2043.604170916039	0
2	5345	2070.749788420557	1
2	5346	2071.131545957631	0
2	5360	2073.130595883552	1
2	5363	2073.963921391006	0
2	5390	2096.112609383453	1
2	5391	2096.141615241095	0
2	5405	2098.012521061844	1
2	5406	2098.696692521586	0
2	5430	2101.398237710387	1
2	5431	2102.016496826192	0
2	5460	2127.522446427832	1
2	5461	2127.59706754586	0
2	5490	2133.668038446972	1
2	5491	2134.023664837961	0
2	5565	2161.452018158714	1
2	5566	2161.489490236114	0
2	5585	2165.278917921113	1
2	5586	2165.816226770671	0
2	5590	2165.953756675633	1
2	5591	2166.502465566981	0
2	5595	2166.806447717131	1
2	5596	2167.409678138594	0
2	5600	2167.636070099397	1
2	5601	2167.826643984427	0
2	5670	2188.623122940853	1
2	5671	2188.892733313273	0
2	5675	2189.32371996363	1
2	5676	2189.359333712272	0
2	5705	2208.09694258436	1
2	5706	2208.361555039098	0
2	5715	2209.220189971788	1
2	5716	2209.666074512626	0
2	5725	2210.288608425767	1
2	5726	2210.641609822639	0
2	5740	2213.396084003565	1
2	5741	2213.522157510053	0
2	5750	2215.105901911202	1
2	5752	2215.116185792507	2
2	5753	2215.492374687856	1
2	5757	2215.597948516436	2
2	5760	2216.098929731436	1
2	5764	2216.3168398022	2
2	5765	2216.920906285178	1
2	5769	2217.051853389983	2
2	5770	2217.655787078319	1
2	5775	2218.531105247168	0
2	5835	2238.724250917654	1
2	5838	2239.174145958047	0
2	5850	2240.616400956343	1
2	5851	2241.092335427539	0
2	5860	2242.973607215121	1
2	5865	2243.450387418846	0
2	5872	2244.587775581333	1
2	5873	2245.093062157155	0
2	6015	2295.132616901738	1
2	6018	2295.865374144641	0
2	6027	2296.97694708794	1
2	6028	2297.299209655784	0
2	6145	2321.776455561792	1
2	6146	2322.034625578828	0
2	6335	2378.989157077471	1
2	6336	2379.117472902401	0
2	6367	2392.778216293312	1
2	6368	2393.589782186422	0
2	6380	2395.14620350793	1
2	6383	2395.533323514565	0
2	6392	2396.806544480704	1
2	6393	2397.293567921976	0
2	6420	2403.803761760016	1
2	6421	2404.226148753427	0
2	6432	2405.377264196349	1
2	6433	2405.821510747121	0
2	6442	2407.086694700045	1
2	6443	2407.515186090721	0
2	6595	2454.29063901564	1
2	6596	2454.705078349006	0
2	6600	2454.708223690728	1
2	6601	2455.177737027243	0
2	6605	2455.428645205409	1
2	6606	2455.80989671119	0
2	6780	2562.385092941146	1
2	6781	2562.961894197898	0
2	6800	2576.121205303125	1
2	6801	2576.478832383883	0
2	6970	2665.582044807535	1
2	6971	2665.679189209111	0
2	6985	2668.046190669377	1
2	6988	2668.300775057285	0
2	6992	2668.820888636791	1
2	6993	2669.23098320884	0
2	6997	2669.518831792545	1
2	6998	2669.821108838332	0
2	7155	2792.456853979745	1
2	7157	2792.663820121907	2
2	7160	2792.780119860673	1
2	7165	2793.473895485222	0
2	7169	2793.890186870661	1
2	7170	2794.243379851931	0
2	7174	2794.247229761307	1
2	7175	2794.794017101207	0
2	7179	2794.817350408512	1
2	7180	2795.388203277893	0
2	7230	2805.988192579587	1
2	7231	2806.405529336294	0
2	7310	2833.921586960604	1
2	7311	2834.172022639383	0
2	7335	2841.663132282263	1
2	7336	2842.557115317787	0
2	7450	2896.13887420127	1
2	7451	2896.495882322231	0
2	7460	2897.534345083482	1
2	7461	2897.620389287251	0
2	7550	2946.849755829236	1
2	7551	2947.367824343788	0
2	7575	2951.940841397277	1
2	7576	2951.951020491438	0
2	7595	2954.699723130214	1
2	7596	2955.129953374034	0
2	7610	2959.170030739961	1
2	7611	2959.341687345315	0
2	7625	2961.99065156658	1
2	7626	2962.578848692661	0
2	7657	2969.329790446832	1
2	7660	2969.91215041597	0
2	7667	2970.575513654683	1
2	7668	2970.776449798985	0
2	7679	2972.181210057751	1
2	7680	2972.276934698696	0
2	7760	2996.136053706778	1
2	7761	2996.364692031793	0
2	7825	3016.608154057371	1
2	7826	3017.09193058892	0
2	8030	3139.610306766765	1
2	8031	3140.289802448358	0
2	8115	3181.419088237063	1
2	8116	3182.073671592675	0
2	8125	3182.721648874361	1
2	8126	3183.372935355311	0
2	8180	3200.318567671669	1
2	8181	3200.828887224937	0
2	8210	3207.499989227827	1
2	8211	3208.248385581317	0
2	8290	3255.684209930983	1
2	8291	3256.292397283244	0
2	8320	3264.509477495384	1
2	8321	3264.798523459731	0
2	8430	3346.467787670199	1
2	8431	3346.698699884956	0
2	8475	3409.59630529907	1
2	8476	3409.788426761711	0
2	8505	3420.303086639409	1
2	8506	3420.568043234865	0
2	8515	3421.750988498772	1
2	8516	3422.241801018038	0
2	8605	3469.941270979988	1
2	8606	3470.842433327685	0
2	8660	3502.771998313755	1
2	8661	3503.252756985525	0
2	8670	3504.797548133819	1
2	8671	3504.8136758994	0
2	8680	3506.263062906626	1
2	8681	3506.277645637414	0
2	8695	3508.427074365871	1
2	8696	3508.675571915183	0
2	8705	3509.672585784671	1
2	8706	3510.383740417615	0
2	8715	3511.55641028143	1
2	8716	3511.803578498425	0
2	8760	3532.243026647974	1
2	8763	3532.48305800376	0
2	8775	3534.342309307718	1
2	8776	3534.364443196362	0
2	9005	3650.182077324377	1
2	9006	3650.37305762133	0
2	9015	3651.575718103739	1
2	9016	3652.028699812604	0
2	9050	3663.107887348673	1
2	9051	3663.840148390896	0
2	9080	3672.031321725932	1
2	9081	3672.536666050079	0
2	9090	3673.597397218751	1
2	9091	3673.891845222258	0
2	9240	3728.097503442656	1
2	9241	3728.897273031252	0
2	9310	3760.344053731718	1
2	9311	3760.437335748768	0
2	9315	3760.631197649963	1
2	9318	3761.300772244374	0
2	9322	3761.335381575121	1
2	9323	3762.282685986052	0
2	9330	3763.248453163098	1
2	9331	3763.429599869002	0
2	9335	3763.689947908977	1
2	9336	3764.307590416849	0
2	9340	3764.92553465135	1
2	9341	3765.120547605103	0
2	9505	3840.350771774041	1
2	9506	3840.681354822138	0
2	9532	3845.348430093045	1
2	9533	3845.652850632971	0
2	9677	3896.532426310672	1
2	9678	3897.018340316115	0
2	9735	3921.251648811221	1
2	9736	3921.592066295967	0
2	9820	3937.599132289073	1
2	9823	3938.030110192144	0
2	9850	3951.489552989158	1
2	9851	3951.912504248392	0
2	9880	3959.978570431296	1
2	9881	3960.54900907533	0
2	9897	3981.649376452814	1
2	9898	3982.022729894603	0
2	9902	3982.350193377502	1
2	9903	3982.754471887127	0
2	9940	3993.806189450972	1
2	9941	3994.434758367461	0
2	9950	3995.373284224225	1
2	9951	3995.790026651953	0
2	10092	4059.343756404875	1
2	10094	4059.400444596411	2
2	10097	4059.705862765563	1
2	10100	4060.231863049268	0
2	10104	4060.330520187618	1
2	10105	4061.15399040006	0
2	10112	4062.145994536123	1
2	10113	4063.023834264826	0
2	10122	4064.03149518181	1
2	10123	4064.578213756148	0
2	10130	4065.122109935203	1
2	10131	4065.618301904097	0
2	10144	4066.63417620282	1
2	10146	4067.026655511039	2
2	10147	4067.08460802146	1
2	10150	4067.587681986147	0
2	10154	4067.946458587723	1
2	10155	4068.157228983042	0
2	10162	4069.139663464141	1
2	10163	4069.260952723992	0
2	10172	4070.099399160085	1
2	10173	4070.514617224584	0
2	10182	4072.169294094024	1
2	10183	4072.180262645507	0
2	10190	4073.406238249471	1
2	10191	4073.646222984917	0
2	10264	4093.480245074272	1
2	10265	4093.534504139975	0
2	10272	4094.329853518504	1
2	10273	4095.138319084507	0
2	10282	4095.915408543501	1
2	10284	4095.928212859694	2
2	10285	4096.117227966937	1
2	10290	4096.804005119337	0
2	10294	4096.871813780445	1
2	10296	4097.320961598888	2
2	10299	4097.71123136868	1
2	10303	4098.510517716446	2
2	10304	4098.587230171396	1
2	10310	4098.770327596941	2
2	10313	4099.415461273904	1
2	10316	4099.870970619463	0
2	10323	4101.050374168184	1
2	10324	4101.334405634359	0
2	10490	4189.885304413396	1
2	10491	4190.105075338108	0
2	10500	4190.904409041292	1
2	10501	4191.372339174568	0
2	10560	4223.106613115538	1
2	10561	4223.331643333103	0
2	10585	4228.367378004713	1
2	10586	4228.502210629434	0
2	10592	4229.049778662471	1
2	10593	4229.31265899784	0
2	10605	4231.072350584478	1
2	10608	4231.809601674117	0
2	10615	4232.910272270805	1
2	10616	4233.204661030723	0
2	10627	4234.116452638683	1
2	10628	4234.754138747212	0
2	10637	4235.411721260064	1
2	10638	4236.039892036263	0
2	10647	4237.233337964412	1
2	10648	4237.449488995625	0
2	10655	4238.764265709421	1
2	10658	4239.319770817766	0
2	10715	4271.06164458076	1
2	10716	4271.140154158452	0
2	10730	4272.732320241677	1
2	10731	4273.146349563063	0
2	10830	4327.492099192864	1
2	10831	4327.763715756773	0
2	10855	4330.664080231974	1
2	10856	4330.765769679298	0
2	10860	4330.849027973736	1
2	10862	4331.052948128139	2
2	10863	4331.651809929929	1
2	10867	4331.880962431611	2
2	10868	4332.362797726005	1
2	10872	4332.665580782109	2
2	10873	4332.802748251673	1
2	10876	4333.259306845827	0
2	10880	4333.401211522108	1
2	10882	4333.742025367105	2
2	10883	4334.056843180316	1
2	10886	4334.539194661485	0
2	10945	4363.800108234752	1
2	10946	4363.833015767277	0
2	10955	4364.760007375924	1
2	10958	4365.239391729168	0
2	10965	4366.214361283853	1
2	10966	4366.539535652406	0
2	11000	4401.380158064491	1
2	11001	4402.104038145631	0
2	11010	4403.937514723051	1
2	11011	4404.565046176852	0
2	11045	4411.824420197972	1
2	11046	4412.404858209367	0
2	11057	4430.165747712154	1
2	11058	4430.837347737341	0
2	11072	4432.911395942381	1
2	11073	4433.109898161651	0
2	11187	4482.103917384033	1
2	11188	4482.55523155869	0
2	11220	4488.334355917814	1
2	11221	4488.965379947551	0
2	11230	4490.105702965349	1
2	11233	4490.844736520018	0
2	11239	4491.681030712401	1
2	11240	4491.772921596704	0
2	11244	4492.058730974296	1
2	11245	4492.768495008027	0
2	11252	4493.542773775703	1
2	11253	4493.773251671674	0
2	11260	4494.923704857937	1
2	11261	4495.262193086422	0
2	11295	4505.781185887408	1
2	11296	4505.886311156871	0
2	11325	4511.194813384153	1
2	11328	4512.082831371595	0
2	11335	4512.719290519761	1
2	11336	4513.453239697377	0
2	11345	4514.079456720401	1
2	11346	4514.706759039891	0
2	11360	4520.522631963351	1
2	11361	4521.321044981925	0
2	11370	4522.202693982883	1
2	11371	4522.619028424637	0
2	11415	4538.195733040271	1
2	11416	4538.64671478342	0
2	11425	4543.456305450793	1
2	11426	4543.801465932123	0
2	11525	4599.635526832971	1
2	11526	4599.956217341798	0
2	11535	4600.908064048645	1
2	11536	4601.348732014487	0
2	11570	4619.464729021985	1
2	11571	4619.652405519211	0
2	11585	4621.171134886947	1
2	11586	4622.09940104106	0
2	11610	4627.883918448425	1
2	11613	4628.328438282361	0
2	11700	4674.622491338128	1
2	11701	4674.724456060631	0
2	11705	4674.893415908437	1
2	11706	4675.321972151613	0
2	11710	4675.872124680813	1
2	11711	4676.145531749027	0
2	11737	4682.93732546508	1
2	11738	4683.303658327719	0
2	11770	4691.063545538291	1
2	11771	4691.513980094461	0
2	11782	4692.565735890247	1
2	11783	4693.152226567432	0
2	11792	4693.827726170593	1
2	11793	4694.363084132109	0
2	11975	4752.305383358133	1
2	11976	4752.463257258696	0
2	11980	4752.558715556836	1
2	11981	4752.908654492845	0
2	11985	4753.268118917454	1
2	11986	4753.877084054689	0
2	12015	4762.31517133279	1
2	12017	4762.339112079368	2
2	12020	4762.492994927949	1
2	12023	4763.052528378189	0
2	12027	4763.356466298233	1
2	12028	4763.922981469574	0
2	12040	4765.87546597086	1
2	12041	4765.894152535297	0
2	12050	4766.729967945734	1
2	12051	4767.282809967067	0
2	12130	4813.860961514854	1
2	12131	4814.37207739374	0
2	12175	4839.525147832871	1
2	12178	4840.280507667191	0
2	12185	4841.223646077619	1
2	12186	4841.78207603741	0
2	12285	4900.857164648185	1
2	12288	4900.953487155542	0
2	12297	4902.183710920108	1
2	12299	4902.187542296698	2
2	12300	4902.285554510031	1
2	12303	4903.096757982021	0
2	12315	4906.962161900297	1
2	12316	4907.732768266167	0
2	12345	4921.341349000624	1
2	12346	4921.90424134772	0
2	12390	4936.598160649972	1
2	12391	4936.952946364965	0
2	12400	4937.706662141275	1
2	12403	4938.032107758421	0
2	12420	4943.375417369412	1
2	12421	4943.549437710511	0
2	12470	4960.418346254358	1
2	12471	4960.894817000315	0
2	12475	4961.014016527063	1
2	12476	4961.606735123102	0
2	12480	4962.19202794262	1
2	12481	4962.448110284157	0
2	12592	5023.500295228335	1
2	12593	5024.245884025918	0
2	12597	5024.594287261343	1
2	12598	5024.900919112872	0
2	12605	5025.750356859996	1
2	12606	5026.021310062643	0
2	12620	5030.366782577511	1
2	12621	5030.862397745132	0
2	12640	5047.028775655621	1
2	12641	5047.840289738394	0
2	12670	5057.428879663882	1
2	12671	5057.802441871126	0
2	12680	5059.042680526508	1
2	12681	5059.751280474485	0
2	12685	5060.030980560634	1
2	12686	5060.373309958316	0
2	12690	5060.73601840153	1
2	12691	5061.264643402453	0
2	12695	5061.578268981975	1
2	12696	5061.893827261552	0
2	12745	5078.517014082035	1
2	12746	5079.082056075695	0
2	12750	5079.185334290326	1
2	12751	5079.716623846616	0
2	12755	5080.131279591057	1
2	12756	5080.681377475371	0
2	12840	5110.944252869778	1
2	12841	5111.490860667975	0
2	12940	5167.846358192323	1
2	12941	5168.056425968881	0
2	12945	5168.135260596974	1
2	12946	5168.82177862534	0
2	12990	5193.536776044085	1
2	12991	5193.796853315931	0
2	12995	5193.884947322515	1
2	12996	5194.393827318361	0
2	13000	5194.445270119553	1
2	13001	5195.363181388199	0
2	13007	5195.703039273081	1
2	13008	5196.251651757218	0
2	13085	5230.991263811615	1
2	13086	5231.470985689993	0
2	13110	5237.70808919305	1
2	13111	5237.726735616674	0
2	13127	5239.402872628803	1
2	13128	5239.407673400373	0
2	13180	5257.951167488569	1
2	13181	5258.262296112665	0
2	13212	5262.968417862005	1
2	13213	5263.076403936652	0
2	13219	5263.261609709358	1
2	13220	5263.486214901788	0
2	13224	5263.788416367485	1
2	13225	5263.903159030249	0
2	13285	5326.255323709552	1
2	13286	5326.532887350917	0
2	13400	5370.204701079194	1
2	13401	5370.312946079431	0
2	13465	5435.755820049253	1
2	13466	5436.677069640174	0
2	13485	5456.911579126931	1
2	13486	5456.934035719112	0
2	13535	5479.673854257689	1
2	13536	5479.692253170908	0
2	13565	5500.258397102378	1
2	13566	5500.549799034736	0
2	13655	5559.237771004663	1
2	13656	5559.767318643848	0
2	13665	5560.725195025417	1
2	13666	5561.232555889603	0
2	13725	5598.714626871251	1
2	13726	5599.487736361126	0
2	13810	5629.932752242349	1
2	13811	5630.586914806187	0
2	13915	5673.049739907376	1
2	13916	5673.742481738376	0
2	13932	5674.726197012693	1
2	13933	5675.595821077516	0
2	13937	5675.659463183163	1
2	13940	5676.494418670237	0
2	13949	5677.673536580257	1
2	13953	5677.970141573515	2
2	13954	5678.313012188813	1
2	13957	5679.239642565931	0
2	13990	5693.892613679011	1
2	13991	5694.534941634307	0
2	14007	5696.008818876818	1
2	14008	5696.826641401441	0
2	14014	5697.285276410632	1
2	14015	5697.496863903643	0
2	14021	5698.320630765294	1
2	14022	5698.44546901223	0
2	14026	5698.554921155039	1
2	14027	5698.931057402098	0
2	14034	5699.942632584881	1
2	14035	5700.543449428843	0
2	14100	5729.898143152416	1
2	14101	5730.323883374065	0
2	14165	5759.66717981465	1
2	14166	5759.942689712896	0
2	14190	5775.808640665716	1
2	14191	5776.169599649384	0
2	14200	5777.565555957502	1
2	14201	5777.835757089384	0
2	14270	5826.47135129079	1
2	14271	5827.000005595258	0
2	14315	5846.908040931529	1
2	14316	5847.667028492059	0
2	14330	5849.49438560638	1
2	14331	5849.833124532387	0
2	14365	5862.327760233299	1
2	14366	5862.840995684998	0
2	14375	5864.799301706984	1
2	14376	5865.311788073828	0
2	14385	5866.062908522463	1
2	14386	5866.87400498492	0
2	14395	5867.886658964124	1
2	14396	5868.366210352158	0
2	14420	5885.577567631798	1
2	14421	5885.953691430736	0
2	14430	5887.333916821608	1
2	14431	5887.707861308526	0
2	14465	5897.048860528574	1
2	14466	5897.152564715489	0
2	14505	5903.503649039264	1
2	14506	5904.021112409638	0
2	14515	5905.038580809907	1
2	14516	5905.565961575074	0
2	14575	5936.349684649155	1
2	14576	5936.488705625379	0
2	14605	5948.205476539577	1
2	14606	5948.344868703853	0
2	14610	5948.731861043574	1
2	14611	5948.9369200566	0
2	14680	5999.482713970284	1
2	14681	5999.570199936818	0
2	14760	6049.872561616671	1
2	14761	6050.09414720359	0
2	14810	6082.534942769275	1
2	14811	6083.182945752329	0
2	14910	6133.529167035619	1
2	14911	6133.892753845318	0
2	14950	6150.697496528974	1
2	14951	6150.720544199087	0
2	14960	6151.549448778777	1
2	14961	6152.051963629108	0
2	14980	6157.823405829307	1
2	14981	6158.599821117768	0
2	14985	6158.890756985466	1
2	14986	6159.366418461982	0
2	14997	6160.79306687965	1
2	14998	6160.805036016103	0
2	15007	6161.396166478227	1
2	15008	6161.981341922065	0
2	15015	6162.691979476262	1
2	15016	6163.197249474298	0
2	15040	6177.405244346777	1
2	15041	6177.865410668997	0
2	15060	6181.120984030797	1
2	15061	6181.18446900341	0
2	15085	6191.108069759697	1
2	15086	6191.109063900368	0
2	15095	6193.04449006453	1
2	15096	6193.43299095228	0
2	15134	6206.442185725789	1
2	15135	6206.444522485412	0
2	15142	6207.666542124945	1
2	15143	6208.265523504508	0
2	15149	6208.565722218236	1
2	15150	6209.247038795515	0
2	15154	6209.706858046106	1
2	15155	6210.111108827773	0
2	15159	6210.136553612654	1
2	15160	6210.809750290723	0
2	15164	6210.972660752451	1
2	15165	6211.510067212857	0
2	15169	6211.77756768582	1
2	15170	6211.959255721369	0
2	15177	6212.526830709885	1
2	15178	6213.058361146967	0
2	15205	6218.790809953323	1
2	15206	6219.347150748212	0
2	15250	6237.227549076283	1
2	15251	6237.490753064884	0
2	15255	6237.723720633766	1
2	15256	6238.086809813298	0
2	15260	6238.477153338326	1
2	15262	6238.592312867181	2
2	15263	6238.905942789765	1
2	15267	6239.314633859202	2
2	15268	6239.479206105854	1
2	15272	6239.56479556031	2
2	15273	6240.007393255058	1
2	15277	6240.199839991843	2
2	15278	6240.486512050751	1
2	15281	6241.433169638246	0
2	15345	6259.512345295888	1
2	15346	6260.192643385702	0
2	15355	6261.059132828662	1
2	15356	6261.312715434791	0
2	15440	6307.780704273371	1
2	15441	6308.369852456684	0
2	15460	6313.031322978048	1
2	15463	6313.613202042303	0
2	15470	6314.335116703095	1
2	15471	6315.126163265466	0
2	15505	6323.862144298938	1
2	15506	6324.331372897054	0
2	15520	6339.040504128731	1
2	15521	6339.497081436823	0
2	15525	6340.045656860028	1
2	15526	6340.096583277919	0
2	15540	6341.581412592065	1
2	15541	6342.375814447665	0
2	15545	6342.591670844734	1
2	15548	6342.91241370856	0
2	15570	6347.030654483086	1
2	15571	6347.172179828541	0
2	15680	6413.683889745031	1
2	15681	6414.061184058564	0
2	15695	6415.601487885998	1
2	15696	6416.468698280303	0
2	15765	6453.579719251921	1
2	15766	6453.637357892886	0
2	15825	6467.879702204544	1
2	15826	6468.15700228138	0
2	15842	6470.294189371339	1
2	15843	6470.922093671739	0
2	15850	6471.673329593975	1
2	15851	6471.870185617815	0
2	15860	6472.665312440136	1
2	15861	6473.106188688466	0
2	15900	6484.596030385904	1
2	15901	6485.028327963013	0
2	15905	6485.346171070028	1
2	15906	6485.743410740398	0
2	15950	6502.574939143108	1
2	15951	6502.737152528737	0
2	15960	6503.249983507909	1
2	15961	6504.121392996769	0
2	16130	6588.738898626567	1
2	16131	6588.880860187505	0
2	16140	6589.665323908653	1
2	16141	6590.505606262638	0
2	16150	6591.367712270117	1
2	16151	6591.987811504324	0
2	16160	6592.77119259398	1
2	16161	6593.198980756776	0
2	16255	6656.720339921293	1
2	16256	6656.726750149761	0
2	16270	6659.814444029655	1
2	16273	6660.448553037944	0
2	16310	6668.852266776796	1
2	16311	6669.189682631904	0
2	16315	6669.259807628962	1
2	16316	6670.111051587399	0
2	16320	6670.450149411233	1
2	16321	6670.84259494642	0
2	16325	6670.868732225545	1
2	16326	6671.269873378251	0
2	16335	6672.564827992694	1
2	16336	6673.01378719575	0
2	16460	6727.223422636382	1
2	16461	6727.905210171274	0
2	16495	6753.281535398424	1
2	16498	6753.850064115636	0
2	16525	6758.277962645031	1
2	16526	6758.340957488337	0
2	16540	6760.384975724195	1
2	16541	6760.713987775695	0
2	16545	6760.974482647541	1
2	16546	6761.146411197389	0
2	16615	6792.76692724145	1
2	16616	6792.845412910901	0
2	16840	6928.684430139844	1
2	16841	6928.829886464727	0
2	16962	6968.634191551117	1
2	16963	6968.991956367193	0
2	17120	7052.594087398346	1
2	17121	7053.450004127599	0
2	17170	7062.535246911673	1
2	17171	7062.987518139022	0
2	17180	7064.674793231491	1
2	17181	7065.150318335777	0
2	17190	7065.719472893717	1
2	17191	7066.275487508473	0
2	17207	7068.212378904352	1
2	17210	7068.592167685172	0
2	17229	7070.547480725339	1
2	17232	7070.950502455365	0
2	17239	7071.863065760018	1
2	17240	7072.168022346859	0
2	17320	7094.43997819789	1
2	17321	7094.482436574243	0
2	17330	7095.99520967756	1
2	17331	7096.118163449915	0
2	17405	7127.516521705847	1
2	17406	7127.825253104408	0
2	17430	7134.620974077272	1
2	17431	7134.947824830399	0
2	17435	7135.065455292782	1
2	17436	7135.657842169306	0
2	17480	7145.363226054946	1
2	17481	7145.541056117756	0
2	17530	7163.305173646251	1
2	17531	7163.318942180274	0
2	17540	7164.872398370809	1
2	17541	7165.552262941732	0
2	17580	7188.674483312388	1
2	17581	7188.709096975291	0
2	17665	7214.61051767703	1
2	17666	7214.898821678141	0
2	17670	7215.524241955576	1
2	17671	7215.674987415632	0
2	17735	7230.272667552947	1
2	17736	7230.321093188971	0
2	17750	7236.765269829104	1
2	17751	7237.394307886418	0
2	17910	7355.156295607204	1
2	17913	7355.781510866484	0
2	17920	7356.614067681741	1
2	17921	7357.098464536577	0
2	17977	7368.972485317977	1
2	17978	7369.008208336865	0
2	17982	7369.154212084262	1
2	17983	7369.861749712329	0
2	18095	7421.408224064619	1
2	18096	7421.717657848671	0
2	18112	7424.027200754698	1
2	18113	7424.059305481697	0
2	18240	7497.290230397505	1
2	18241	7498.05441652546	0
2	18250	7498.982433873682	1
2	18251	7499.580395912103	0
2	18345	7614.378248343306	1
2	18346	7614.468374452479	0
2	18350	7614.65285092059	1
2	18351	7615.456044606976	0
2	18357	7615.992605041775	1
2	18358	7616.168414893346	0
2	18370	7617.723455122245	1
2	18371	7618.170848870891	0
2	18380	7619.040701708433	1
2	18382	7619.249791841561	2
2	18383	7619.358026916495	1
2	18386	7620.117290585496	0
2	18395	7622.95544065327	1
2	18398	7623.315988057109	0
2	18402	7623.866030509349	1
2	18403	7624.049581002819	0
2	18460	7635.165772946481	1
2	18461	7635.946069911351	0
2	18510	7644.810516916525	1
2	18511	7645.331285589397	0
2	18515	7645.402952062758	1
2	18516	7646.144032441195	0
2	18670	7714.499198791971	1
2	18671	7714.736313374862	0
2	18700	7721.993174137283	1
2	18701	7722.080994251401	0
2	18800	7775.575045291056	1
2	18801	7775.87911562016	0
2	18820	7783.477557682832	1
2	18821	7784.219529474809	0
2	18830	7786.007818113275	1
2	18831	7786.231518848109	0
2	18960	7825.879329937566	1
2	18961	7826.184713764757	0
2	18995	7840.152416322549	1
2	18996	7840.70687884503	0
2	19005	7842.088751921367	1
2	19007	7842.10920236649	2
2	19008	7842.21203567953	1
2	19011	7843.048038332063	0
2	19015	7843.052238309567	1
2	19018	7843.621275292515	0
2	19105	7873.258263198586	1
2	19106	7873.93770216209	0
2	19210	7917.945069164384	1
2	19211	7918.052137963161	0
2	19225	7918.994987507305	1
2	19226	7919.688882802031	0
2	19235	7920.545244806565	1
2	19236	7921.114920047089	0
2	19250	7922.755737505681	1
2	19251	7923.122781356651	0
2	19255	7923.828985629256	1
2	19256	7923.879090445716	0
2	19395	8004.864542046962	1
2	19396	8004.904934172666	0
2	19485	8036.027120045911	1
2	19486	8036.044045472513	0
2	19495	8037.475756066978	1
2	19496	8037.498906919029	0
2	19520	8044.415047095632	1
2	19521	8044.794388109991	0
2	19585	8077.704892001209	1
2	19586	8078.520812858211	0
2	19595	8080.393743747285	1
2	19596	8080.672182076386	0
2	19670	8106.866829166026	1
2	19671	8107.442685987949	0
2	19685	8111.962569904874	1
2	19686	8112.344611950229	0
2	19700	8113.928929924815	1
2	19701	8114.211023354018	0
2	19707	8114.816613691788	1
2	19708	8115.022088022251	0
2	19712	8115.156367529442	1
2	19713	8115.889876171761	0
2	19720	8116.533709926043	1
2	19721	8117.352417877783	0
2	19740	8119.804557802183	1
2	19743	8120.453848995518	0
2	19750	8121.36316102718	1
2	19753	8121.95799427877	0
2	19760	8123.017206936111	1
2	19761	8123.412472056661	0
2	19825	8156.538871835325	1
2	19826	8157.30563306827	0
2	19880	8171.751832971034	1
2	19883	8172.183869588015	0
2	19890	8173.143920878824	1
2	19893	8173.325461325248	0
2	19902	8174.570954603149	1
2	19903	8174.846622405307	0
2	19907	8175.214544235376	1
2	19908	8175.503386978259	0
2	19915	8176.451823920629	1
2	19916	8177.040916245397	0
2	20100	8271.330307523595	1
2	20101	8271.714478358716	0
2	20175	8328.859126839166	1
2	20176	8329.656479597305	0
2	20190	8332.059151873333	1
2	20193	8332.621592555212	0
2	20205	8334.267233235899	1
2	20206	8334.697312774011	0
2	20215	8336.062141708559	1
2	20216	8336.703370430668	0
2	20390	8426.33804579293	1
2	20391	8426.346250197247	0
2	20395	8426.675059158579	1
2	20396	8426.86271997248	0
2	20435	8442.525424382192	1
2	20436	8442.674180206395	0
2	20480	8458.400260104976	1
2	20481	8459.0405894136	0
2	20510	8479.094875588562	1
2	20511	8479.341885399625	0
2	20520	8480.29093603255	1
2	20521	8480.375277428555	0
2	20535	8482.080053234954	1
2	20536	8482.464299314116	0
2	20555	8490.400358799168	1
2	20556	8490.616687869534	0
2	20565	8491.477379049088	1
2	20568	8492.366997380843	0
2	20600	8501.177706099224	1
2	20601	8501.217904945807	0
2	20630	8512.426496777978	1
2	20631	8512.8788085576	0
2	20650	8527.780766885243	1
2	20651	8528.251105791111	0
2	20725	8566.964582981486	1
2	20726	8567.370826293897	0
2	20775	8608.711415089288	1
2	20778	8609.437628416063	0
2	20800	8612.92546744355	1
2	20801	8613.074192829418	0
2	20805	8613.091826140402	1
2	20806	8613.679470679245	0
2	20815	8614.974908866334	1
2	20816	8615.373170378256	0
2	20827	8616.884933378068	1
2	20830	8617.221668487751	0
2	20900	8636.143849319221	1
2	20901	8636.939986078895	0
2	20944	8648.780092136676	1
2	20945	8649.350258159493	0
2	20957	8651.172878956574	1
2	20958	8651.755470307399	0
2	21175	8740.065686347848	1
2	21176	8740.278457156502	0
2	21180	8740.658931860288	1
2	21181	8740.88164053832	0
2	21255	8759.120349735814	1
2	21256	8759.851941481334	0
2	21265	8761.40628212542	1
2	21266	8761.967329123946	0
2	21365	8817.218446755756	1
2	21366	8817.696475933619	0
2	21385	8822.883353158757	1
2	21388	8823.09898827379	0
2	21445	8884.449372340573	1
2	21448	8884.710563668892	0
2	21490	8901.719476120844	1
2	21491	8902.148050174883	0
2	21517	8905.809030786055	1
2	21518	8906.140340978744	0
2	21525	8906.99489452915	1
2	21528	8907.632288689352	0
2	21595	8934.635086571385	1
2	21596	8934.693664175933	0
2	21625	8958.690701739187	1
2	21626	8959.247932665298	0
2	21637	8961.129076734825	1
2	21638	8961.169319343091	0
2	21810	9031.690993780901	1
2	21811	9032.481271763498	0
2	21825	9034.270564557583	1
2	21826	9034.78829576194	0
2	21850	9049.706373920202	1
2	21851	9049.846925783473	0
2	21880	9062.803894022166	1
2	21881	9063.415618326014	0
2	21905	9070.312286337881	1
2	21906	9070.77259588107	0
2	21980	9131.213200847196	1
2	21981	9132.025867865513	0
2	22055	9166.77709040206	1
2	22057	9166.796089432914	2
2	22058	9167.257434682704	1
2	22061	9167.987270112026	0
2	22065	9168.070280493122	1
2	22068	9168.513036400096	0
2	22072	9168.564789429116	1
2	22073	9169.505666212195	0
2	22090	9174.476882275909	1
2	22091	9174.619802369659	0
2	22150	9202.39706291006	1
2	22151	9202.630731583634	0
2	22215	9229.675490854165	1
2	22216	9230.563776314414	0
2	22225	9231.394966264291	1
2	22226	9232.264567847565	0
2	22310	9276.512955759909	1
2	22311	9276.659631433582	0
2	22342	9289.48418040675	1
2	22343	9289.779092849707	0
2	22349	9290.619244112742	1
2	22350	9290.708188890209	0
2	22354	9290.742447034147	1
2	22355	9291.669044744139	0
2	22425	9321.77113756397	1
2	22426	9321.982912864008	0
2	22630	9419.374918828444	1
2	22631	9419.597167566649	0
2	22710	9444.129770846946	1
2	22711	9444.370084745664	0
2	22787	9467.45582370469	1
2	22788	9467.638424974966	0
2	22799	9468.707467661897	1
2	22800	9469.064746358438	0
2	22825	9492.687179725232	1
2	22826	9492.973648147444	0
2	22875	9510.200700904509	1
2	22878	9510.956706183171	0
2	22885	9512.450876725222	1
2	22888	9512.660167020559	0
2	22980	9539.349580019489	1
2	22981	9539.590044490772	0
2	22990	9540.588041644385	1
2	22991	9541.001550722112	0
2	23025	9548.909044882058	1
2	23026	9549.193943964602	0
2	23045	9551.858931074626	1
2	23046	9552.66773807578	0
2	23055	9553.993734331116	1
2	23056	9554.279666751197	0
2	23125	9602.093538516606	1
2	23127	9602.401541315084	2
2	23128	9602.558332799044	1
2	23133	9603.358274040832	0
2	23142	9604.544267743393	1
2	23143	9604.707774213604	0
2	23280	9678.711997978966	1
2	23281	9678.942687217217	0
2	23285	9678.991148539863	1
2	23286	9679.463336069673	0
2	23292	9679.987500934098	1
2	23295	9680.092049294129	0
2	23330	9694.168225594915	1
2	23331	9694.245471884751	0
2	23342	9696.242873321192	1
2	23343	9696.926182463997	0
2	23395	9712.143157490863	1
2	23396	9712.469216083318	0
2	23500	9775.801503068445	1
2	23501	9775.925924544013	0
2	23505	9776.027212079203	1
2	23506	9776.584014296275	0
2	23510	9776.667146680698	1
2	23511	9777.071808910905	0
2	23520	9778.329515033255	1
2	23521	9778.52860699184	0
2	23525	9778.583758965267	1
2	23528	9779.297455390727	0
2	23532	9779.482473243012	1
2	23533	9780.034790518692	0
2	23537	9780.083807285297	1
2	23538	9780.770245493155	0
2	23545	9781.49197273198	1
2	23546	9781.86236625593	0
2	23580	9814.803501339807	1
2	23581	9814.894027391756	0
2	23610	9821.676944071283	1
2	23611	9822.272541420648	0
2	23670	9863.723603098862	1
2	23671	9864.469966454759	0
2	23675	9864.661310796808	1
2	23676	9865.161913810905	0
2	23710	9889.819737253362	1
2	23711	9890.462263190236	0
2	23890	9961.226366635299	1
2	23893	9961.996105849015	0
2	23897	9962.052865196773	1
2	23898	9962.817938779265	0
2	23902	9962.915843849409	1
2	23905	9963.547839954978	0
2	23909	9963.652142753255	1
2	23910	9964.0629397812	0
2	23914	9964.318548961162	1
2	23915	9964.668725804722	0
2	23919	9964.975030680974	1
2	23922	9965.536824420484	0
2	23928	9965.92007347644	1
2	23929	9966.468817178549	0
2	23965	9971.348474781825	1
2	23966	9971.90312507427	0
2	23975	9972.785235197173	1
2	23976	9973.254882689795	0
2	24025	9998.558960563	1
2	24026	9998.996452643167	0
2	24052	10004.491002091246	1
2	24053	10004.600247123568	0
2	24175	10036.513255729777	1
2	24176	10036.888458890499	0
2	24185	10038.188104758253	1
2	24186	10038.291338428234	0
2	24200	10040.846724734501	1
2	24201	10041.548210604995	0
2	24235	10051.316695839714	1
2	24236	10051.701026032015	0
2	24260	10057.279398359426	1
2	24261	10057.952962202344	0
2	24340	10092.230260146688	1
2	24341	10092.499638925486	0
2	24350	10093.621681299782	1
2	24351	10094.092522258556	0
2	24355	10094.112391306745	1
2	24356	10094.656571782532	0
2	24360	10094.742486436	1
2	24361	10095.139533313562	0
2	24410	10118.921644371	1
2	24411	10119.433610845606	0
2	24495	10170.797385177821	1
2	24496	10170.824789821368	0
2	24525	10175.742590664296	1
2	24526	10176.520181309504	0
2	24590	10205.384614444149	1
2	24591	10205.503903520442	0
2	24650	10219.222733088134	1
2	24651	10219.631515480377	0
2	24830	10385.843602478411	1
2	24831	10385.86832885053	0
2	24842	10387.314383139333	1
2	24843	10387.551889857463	0
2	24910	10405.876890293214	1
2	24911	10406.512195240349	0
2	24920	10407.7013664247	1
2	24921	10408.531461330432	0
2	24925	10408.749467793265	1
2	24926	10409.280631190886	0
2	24950	10418.767927067612	1
2	24951	10419.688588884358	0
2	24980	10429.042450482295	1
2	24981	10429.166825482548	0
2	24985	10429.886151557181	1
2	24986	10430.149710669481	0
2	24990	10430.168572719116	1
2	24991	10430.91895298401	0
2	25100	10510.732581105041	1
2	25101	10510.878951654029	0
2	25180	10535.138679303163	1
2	25182	10535.280010254767	2
2	25183	10535.674197587269	1
2	25188	10536.124180481854	0
2	25195	10536.930726631765	1
2	25197	10537.403750874693	2
2	25198	10537.483102010182	1
2	25201	10538.468681901592	0
2	25210	10539.246345820876	1
2	25211	10539.292813083429	0
2	25222	10540.510839433508	1
2	25223	10540.871233875623	0
2	25227	10541.546719898752	1
2	25230	10541.623505638998	0
2	25244	10543.129322295189	1
2	25245	10543.305390247509	0
2	25249	10543.320123743073	1
2	25254	10544.005698169854	0
2	25258	10544.216622012366	1
2	25259	10544.916736548713	0
2	25415	10596.079462879064	1
2	25416	10596.306412365999	0
2	25420	10596.461236324651	1
2	25421	10597.032458682232	0
2	25425	10597.073888930139	1
2	25426	10598.030941671053	0
2	25465	10612.634514575514	1
2	25466	10613.179842239624	0
2	25695	10743.784122921705	1
2	25696	10744.508227853811	0
2	25715	10748.451739776078	1
2	25716	10748.850448450439	0
2	25735	10751.889074630005	1
2	25736	10752.224547816724	0
2	25740	10752.616723400124	1
2	25741	10752.630157868522	0
2	25750	10760.598278653782	1
2	25751	10760.752569518705	0
2	25755	10761.166890779552	1
2	25756	10761.594007830137	0
2	25760	10761.611191475965	1
2	25761	10762.086205661764	0
2	25765	10762.229972105924	1
2	25766	10762.530989976368	0
2	25770	10763.375000912009	1
2	25771	10763.406396929409	0
2	25780	10764.397931097773	1
2	25783	10765.093086364774	0
2	25792	10766.257883654065	1
2	25793	10766.672925473332	0
2	25797	10767.407044399445	1
2	25798	10767.529332514481	0
2	25802	10767.869721025012	1
2	25803	10768.368309586776	0
2	25860	10783.054128451946	1
2	25861	10783.616750131669	0
2	25890	10793.833716112936	1
2	25892	10794.117498170635	2
2	25893	10794.192164409803	1
2	25896	10795.000756280254	0
2	25902	10795.325062741566	1
2	25903	10795.924472233876	0
2	25910	10796.759043606203	1
2	25911	10797.110813736486	0
2	25927	10798.509764694897	1
2	25928	10798.866400127335	0
2	25932	10798.968472667127	1
2	25933	10799.421310925985	0
2	25937	10799.629936198647	1
2	25938	10800.385358107126	0
2	25942	10800.966511700087	1
2	25943	10801.330634144916	0
2	26100	10883.714928031122	1
2	26101	10883.962168079337	0
2	26130	10891.954158363549	1
2	26131	10892.384752792844	0
2	26135	10892.489745734918	1
2	26136	10893.190947869958	0
2	26155	10896.387427015514	1
2	26156	10896.9182694994	0
2	26200	10913.706446507186	1
2	26201	10913.877434064765	0
2	26235	10934.824249253336	1
2	26236	10935.220144782516	0
2	26267	10941.073126551582	1
2	26268	10941.662226580011	0
2	26277	10942.948572350477	1
2	26278	10943.046568304507	0
2	26285	10943.744643851646	1
2	26286	10944.167290598175	0
2	26310	10950.319750963818	1
2	26311	10950.498796256559	0
2	26470	11026.313949616526	1
2	26471	11027.041206934863	0
2	26487	11028.665800514327	1
2	26488	11028.907019965679	0
2	26497	11029.708227660435	1
2	26500	11030.043088873898	0
2	26557	11045.113891413038	1
2	26560	11045.445293557384	0
2	26660	11106.141967516697	1
2	26661	11106.877630198814	0
2	26690	11116.641639818504	1
2	26693	11117.064299554594	0
2	26720	11121.590582332341	1
2	26721	11121.849745366566	0
2	26795	11158.807817577948	1
2	26796	11159.417870299725	0
2	26842	11178.535867668312	1
2	26843	11179.177640638457	0
2	26852	11180.556159441232	1
2	26853	11180.728638530293	0
2	26860	11181.948508544506	1
2	26863	11182.512470413002	0
2	26885	11188.527983103173	1
2	26888	11189.278396049833	0
2	26895	11190.045432343695	1
2	26898	11190.67732064998	0
2	26907	11191.83913381282	1
2	26908	11192.197769556886	0
2	26912	11192.644698837233	1
2	26913	11192.72860907078	0
2	27005	11215.503511924697	1
2	27006	11216.112649599674	0
2	27015	11216.924670905699	1
2	27016	11217.422735657568	0
2	27040	11233.085675188376	1
2	27041	11233.879739846012	0
2	27090	11258.248932446374	1
2	27091	11258.91777947985	0
2	27107	11260.615423440392	1
2	27108	11260.702368232444	0
2	27115	11261.64935212379	1
2	27116	11262.033385190856	0
2	27135	11264.21234933264	1
2	27136	11264.59034023548	0
2	27140	11264.635493908937	1
2	27143	11265.003828922124	0
2	27180	11288.194030735969	1
2	27181	11288.31642172731	0
2	27245	11330.130049529559	1
2	27246	11330.21254730421	0
2	27270	11344.545944302909	1
2	27271	11344.912813634062	0
2	27280	11345.91593059719	1
2	27281	11346.468469779481	0
2	27460	11423.555067807427	1
2	27461	11423.828424184389	0
2	27497	11450.795115845283	1
2	27498	11451.167351562646	0
2	27502	11451.255108150683	1
2	27503	11451.930109303281	0
2	27507	11452.037513672266	1
2	27509	11452.433698087533	2
2	27510	11452.869955673976	1
2	27513	11453.285359158902	0
2	27517	11453.93215743578	1
2	27518	11454.253456971305	0
2	27525	11455.363696197562	1
2	27526	11455.654804235254	0
2	27615	11501.143485872434	1
2	27616	11501.703707833218	0
2	27650	11508.057215224374	1
2	27651	11508.066625846805	0
2	27660	11508.945014593646	1
2	27661	11509.911905536544	0
2	27780	11560.815918809612	1
2	27781	11561.313446745598	0
2	27860	11599.91841121543	1
2	27861	11600.59682570629	0
2	27875	11602.860130842541	1
2	27876	11603.641676390694	0
2	27957	11645.53349036503	1
2	27958	11645.595716339804	0
2	27962	11645.613024103511	1
2	27963	11646.328210758453	0
2	27975	11647.639242259544	1
2	27976	11648.073101334449	0
2	28055	11670.375520796198	1
2	28056	11671.18883259451	0
2	28060	11671.296866077652	1
2	28061	11672.1720752203	0
2	28065	11672.659664932604	1
2	28067	11672.76260395477	2
2	28070	11673.054897715021	1
2	28073	11673.960778265875	0
2	28077	11673.971135924219	1
2	28079	11674.366344660761	2
2	28080	11674.928881452335	1
2	28084	11675.026547173293	2
2	28085	11675.706575370589	1
2	28088	11676.309739034539	0
2	28092	11677.038814441717	1
2	28093	11677.192583633736	0
2	28097	11677.49224903197	1
2	28098	11677.763790137517	0
2	28102	11677.976180389995	1
2	28103	11678.307147789244	0
2	28107	11678.336901746078	1
2	28110	11679.156853449215	0
2	28155	11689.014885472652	1
2	28156	11689.340538112898	0
2	28165	11689.934609360535	1
2	28166	11690.701643844368	0
2	28315	11739.009209969783	1
2	28316	11739.84946375456	0
2	28330	11741.736236400994	1
2	28331	11742.008019906823	0
2	28337	11742.237269675101	1
2	28338	11742.678154993598	0
2	28344	11743.167144386265	1
2	28345	11743.174584932374	0
2	28349	11743.236978282825	1
2	28350	11743.842979043238	0
2	28354	11743.911266724847	1
2	28355	11744.508021453004	0
2	28382	11757.73416133376	1
2	28383	11757.831221820553	0
2	28392	11758.552664627562	1
2	28393	11759.262667211052	0
2	28575	11832.606451315079	1
2	28576	11832.873195399237	0
2	28665	11904.787746238399	1
2	28666	11905.428491354526	0
2	28675	11906.735964462306	1
2	28676	11907.572264622189	0
2	28685	11908.683904054116	1
2	28688	11909.346345564388	0
2	28704	11912.037840289075	1
2	28705	11912.31990412985	0
2	28714	11913.493042275066	1
2	28715	11913.693305502078	0
2	28790	11938.469587908171	1
2	28791	11939.103296134687	0
2	28810	11942.996025652622	1
2	28811	11943.459717426354	0
2	28815	11943.806243626764	1
2	28818	11944.023132925712	0
2	28822	11944.2595672251	1
2	28823	11944.953153273043	0
2	28827	11945.537296074933	1
2	28828	11945.654556277905	0
2	28832	11945.656250089427	1
2	28833	11946.188587759108	0
2	28837	11946.651622073625	1
2	28838	11946.959028322435	0
2	28842	11947.131963849308	1
2	28843	11947.924497165437	0
2	28847	11948.33874724863	1
2	28848	11948.678987348964	0
2	28930	11974.922800135487	1
2	28931	11975.065631323981	0
2	29005	11999.259391193787	1
2	29006	12000.110432160667	0
2	29045	12027.680698078008	1
2	29046	12028.283509814545	0
2	29055	12029.269420751251	1
2	29056	12029.457857722036	0
2	29110	12042.522469363301	1
2	29111	12042.98982097144	0
2	29320	12131.928127395002	1
2	29321	12132.274818085084	0
2	29400	12197.146185319335	1
2	29401	12197.354251315601	0
2	29570	12299.270062904048	1
2	29571	12299.90543034326	0
2	29585	12312.490360483258	1
2	29586	12312.66912806123	0
2	29655	12343.972881122222	1
2	29656	12344.001417846069	0
2	29660	12344.011584088404	1
2	29662	12344.279894201132	2
2	29663	12344.800161279109	1
2	29666	12345.800114077539	0
2	29720	12365.253726709729	1
2	29721	12365.435250216669	0
2	29742	12371.065915543883	1
2	29743	12371.235565053717	0
2	29752	12372.142303436363	1
2	29753	12372.733619877369	0
2	29807	12389.839210759543	1
2	29808	12390.20711198302	0
2	29815	12390.927065975671	1
2	29818	12391.578161187582	0
2	29860	12407.067913185061	1
2	29861	12407.775634093869	0
2	29895	12421.609871621522	1
2	29896	12421.901355849054	0
2	29952	12436.083337904869	1
2	29953	12436.645215153118	0
2	30015	12448.031744160843	1
2	30016	12448.060083702045	0
2	30024	12448.744538341399	1
2	30025	12448.796365854262	0
2	30031	12449.480089191989	1
2	30032	12449.768015772362	0
2	30036	12449.824974930897	1
2	30037	12450.534548684747	0
2	30041	12450.853661494453	1
2	30042	12451.044596275247	0
2	30046	12451.156091274921	1
2	30047	12451.537231055347	0
2	30051	12451.688035266818	1
2	30052	12452.376219143139	0
2	30056	12452.554281817382	1
2	30057	12453.331603902418	0
2	30095	12460.214950857199	1
2	30096	12460.783817714985	0
2	30160	12483.09856388181	1
2	30161	12483.589431757691	0
2	30175	12494.894841196989	1
2	30177	12494.956724650887	2
2	30180	12495.64208793984	1
2	30183	12496.221217076333	0
2	30187	12496.537274823551	1
2	30188	12496.932442854058	0
2	30210	12505.33905168062	1
2	30211	12505.832202784527	0
2	30260	12537.583524206856	1
2	30262	12538.10640370522	2
2	30263	12538.277385957208	1
2	30267	12538.52690172658	2
2	30268	12538.785899217142	1
2	30272	12539.327535840127	2
2	30273	12539.712732200226	1
2	30276	12540.60716150924	0
2	30285	12541.19393399652	1
2	30286	12541.859370732633	0
2	30325	12573.195620880198	1
2	30328	12573.841856888705	0
2	30345	12577.035610073648	1
2	30346	12577.275183252338	0
2	30380	12613.369136429141	1
2	30381	12613.86108788205	0
2	30410	12623.892865275882	1
2	30411	12624.079315768441	0
2	30425	12625.48110088229	1
2	30426	12625.995617804391	0
2	30465	12651.347219756791	1
2	30466	12651.471462096132	0
2	30475	12652.561358907323	1
2	30476	12652.891428704231	0
2	30485	12653.87957711213	1
2	30486	12654.509458481611	0
2	30562	12669.016507419362	1
2	30563	12669.293407565513	0
2	30572	12669.824182510932	1
2	30573	12670.780970385456	0
2	30670	12740.236961376481	1
2	30671	12740.426579858727	0
2	30770	12793.092654694698	1
2	30771	12793.816268030906	0
2	30780	12794.443187008115	1
2	30781	12795.361120160323	0
2	30855	12811.066159639961	1
2	30858	12811.850415086256	0
2	30925	12828.747390429095	1
2	30928	12829.476452858215	0
2	30955	12835.055839075085	1
2	30956	12835.161610257939	0
2	30960	12835.309762273257	1
2	30961	12835.760349186171	0
2	30965	12836.485905351719	1
2	30966	12836.678114897279	0
2	30970	12836.77502053049	1
2	30971	12837.597630329138	0
2	30975	12837.763360499191	1
2	30976	12838.060736878902	0
2	30990	12840.141703011784	1
2	30991	12840.652016443748	0
2	31055	12853.61410496421	1
2	31056	12854.059594330343	0
2	31060	12854.428238671666	1
2	31061	12855.022057413647	0
2	31160	12898.871420850779	1
2	31161	12898.960689880088	0
2	31322	12974.414078632157	1
2	31325	12974.983168858963	0
2	31337	12976.779966035065	1
2	31338	12976.976596421025	0
2	31410	13041.147704200865	1
2	31411	13041.692389450467	0
2	31465	13063.575655637545	1
2	31466	13064.129119394205	0
2	31474	13064.630516408661	1
2	31475	13065.048755483141	0
2	31482	13065.562114270575	1
2	31483	13066.386823720669	0
2	31635	13169.048596087211	1
2	31636	13169.542407595964	0
2	31790	13228.778240222034	1
2	31791	13229.008860747051	0
2	31800	13229.859375312935	1
2	31801	13229.871756319144	0
2	31830	13252.805732637308	1
2	31831	13253.308776022873	0
2	31885	13273.198611377423	1
2	31888	13273.918023145073	0
2	31897	13274.961006810843	1
2	31898	13275.447656530202	0
2	31909	13276.193212443758	1
2	31910	13276.44480843727	0
2	31917	13277.235118484922	1
2	31918	13277.545659137858	0
2	31927	13278.417442173719	1
2	31928	13279.317220766205	0
2	31937	13280.465463151262	1
2	31938	13280.894512045258	0
2	31945	13281.627856920391	1
2	31946	13282.1824813279	0
2	31980	13296.456008263716	1
2	31981	13297.012352081522	0
2	32010	13307.897201233823	1
2	32011	13307.991887388398	0
2	32095	13376.176062316513	1
2	32096	13376.6187848382	0
2	32105	13377.360555788307	1
2	32106	13378.215093925067	0
2	32190	13401.481622164306	1
2	32195	13402.11019411363	0
2	32225	13410.049022940051	1
2	32226	13410.593462330956	0
2	32245	13413.296176736963	1
2	32246	13413.621735987349	0
2	32260	13415.882805058255	1
2	32261	13415.893831175347	0
2	32277	13421.431995968129	1
2	32278	13421.703966497882	0
2	32289	13422.196103232827	1
2	32290	13422.599422727731	0
2	32300	13423.72510838683	1
2	32301	13424.48941011361	0
2	32425	13482.667149414602	1
2	32426	13482.96828617619	0
2	32530	13519.215596843165	1
2	32531	13520.178475307551	0
2	32547	13522.191049080142	1
2	32548	13522.520887494775	0
2	32635	13579.751575160154	1
2	32636	13580.134639445695	0
2	32665	13584.356547613936	1
2	32666	13585.017691393952	0
2	32670	13585.181083623818	1
2	32672	13585.261247836795	2
2	32673	13585.524923459311	1
2	32676	13586.149021708463	0
2	32697	13588.862607490333	1
2	32698	13589.052379469055	0
2	32709	13589.974436291943	1
2	32710	13590.271019150822	0
2	32716	13591.050408699664	1
2	32717	13591.062192302749	0
2	32721	13591.305742707962	1
2	32722	13591.620040910125	0
2	32726	13591.748950639981	1
2	32727	13592.249384478426	0
2	32734	13593.536013394504	1
2	32735	13593.727261192159	0
2	32745	13595.485622512178	1
2	32746	13596.167947666526	0
2	32785	13609.062384798762	1
2	32786	13609.818270929126	0
2	32790	13610.259223274242	1
2	32791	13610.695273268331	0
2	32795	13610.892025800834	1
2	32796	13611.252437685678	0
2	32835	13632.865583108735	1
2	32836	13633.286980896945	0
2	32857	13637.579065477084	1
2	32858	13638.131070613077	0
2	32865	13638.988554627948	1
2	32866	13639.530288578997	0
2	33010	13688.38255134973	1
2	33011	13688.543031930044	0
2	33015	13689.389338461794	1
2	33016	13689.400744364882	0
2	33020	13689.847914903918	1
2	33021	13689.957224235131	0
2	33025	13690.28735843848	1
2	33026	13690.490053749184	0
2	33150	13759.393576352392	1
2	33151	13759.854862770431	0
2	33195	13774.385623165989	1
2	33198	13774.602767686173	0
2	33205	13775.604528186741	1
2	33206	13776.04114733939	0
2	33240	13786.863703874541	1
2	33241	13787.075304714631	0
2	33245	13787.693591014401	1
2	33246	13787.901054864045	0
2	33305	13816.83457174962	1
2	33306	13817.332984543661	0
2	33317	13818.607458158632	1
2	33318	13819.046273248572	0
2	33327	13819.964182972003	1
2	33328	13820.305648794234	0
2	33430	13864.319973805599	1
2	33431	13865.125256211268	0
2	33450	13870.229260129148	1
2	33453	13870.992206401738	0
2	33560	13909.414869600185	1
2	33561	13909.968631081027	0
2	33567	13910.397688819931	1
2	33568	13910.504656107794	0
2	33575	13911.685339912028	1
2	33576	13911.953970663646	0
2	33585	13913.258083406669	1
2	33586	13913.479393357146	0
2	33590	13913.752544660485	1
2	33591	13913.887595869988	0
2	33615	13922.570814486628	1
2	33616	13922.609443935333	0
2	33850	14026.597943639413	1
2	33851	14026.618231329743	0
2	33870	14030.75955754992	1
2	33871	14031.180831281987	0
2	34025	14138.915029837665	1
2	34026	14139.293004567974	0
2	34085	14162.194671358319	1
2	34088	14163.141344311364	0
2	34100	14180.687103694038	1
2	34101	14180.728194552373	0
2	34110	14181.857493429065	1
2	34111	14181.934194598246	0
2	34120	14183.188604198168	1
2	34121	14183.85617462787	0
2	34140	14189.00130852682	1
2	34141	14189.253422526813	0
2	34230	14214.958929178851	1
2	34231	14215.699447442711	0
2	34310	14233.288975266256	1
2	34311	14233.299045856262	0
2	34320	14234.055173487572	1
2	34321	14234.1835489052	0
2	34330	14234.913412030042	1
2	34331	14235.401524516998	0
2	34400	14248.603377414125	1
2	34403	14248.854860830698	0
2	34412	14249.935189561256	1
2	34413	14250.329538187217	0
2	34430	14252.808151468092	1
2	34431	14253.45358246608	0
2	34495	14273.291985459277	1
2	34496	14273.609977677903	0
2	34510	14276.272895053108	1
2	34511	14276.653075253554	0
2	34515	14276.775496057439	1
2	34516	14277.536720301733	0
2	34520	14277.652927710075	1
2	34521	14278.397442256669	0
2	34590	14328.221564080976	1
2	34591	14328.413037003922	0
2	34705	14372.052970848987	1
2	34707	14372.326402124769	2
2	34708	14372.32939503426	1
2	34712	14372.473278619738	2
2	34713	14373.084049121153	1
2	34718	14373.875714018245	0
2	34730	14383.658029980269	1
2	34731	14383.771003713049	0
2	34875	14471.210521166722	1
2	34878	14472.094883778472	0
2	34882	14472.479095043149	1
2	34883	14472.636060770102	0
2	34960	14497.531908206421	1
2	34961	14498.009412670926	0
2	34970	14505.569128948738	1
2	34971	14506.213645170422	0
2	34985	14509.104682359728	1
2	34986	14509.172523696574	0
2	35075	14554.578226734273	1
[...]
6	65435	26791.850405271459	2.401556387131
6	65450	26802.239614917973	3.957996679361
6	65542	26835.459347228811	8.215983459975
6	65545	26836.228564989672	6.947770120881
6	65550	26842.891123302198	0.747626985935
6	65590	26850.176936416698	3.62948476999
6	65600	26854.653970580705	0.833533489425
6	65625	26870.850862330775	0.982753799702
6	65642	26873.517081375922	1.078089328284
6	65645	26874.259005000339	4.910605776036
6	65722	26889.745320149236	11.302125556566
6	65735	26900.246269909713	2.656582958482
6	65740	26906.830449350955	0.633478593873
6	65747	26919.470979506609	0.877314185118
6	65750	26919.911163121269	1.2591685051
6	65770	26927.539023404706	5.551653723354
6	65775	26928.770614898526	0.450765782921
6	65780	26934.6022200086	0.534144691518
6	65785	26935.438537513512	0.468012387305
6	65817	26952.113914309216	2.677265460026
6	65864	26987.247857424301	1.111195319343
6	65892	26993.175142313515	0.990504390868
6	65924	26998.852015928237	4.168932853527
6	65940	27001.834041208833	3.621980379639
6	65945	27002.945289616641	9.53954440486
6	65957	27005.29231490771	0.403000634511
6	65995	27012.486037813396	0.886495073931
6	66017	27022.76275185261	4.342608417499
6	66040	27032.155334672733	0.852852822654
6	66045	27041.637987409164	0.58025686359
6	66067	27046.05885983005	4.173351838722
6	66084	27048.881199330785	3.133888405983
6	66095	27051.23013492707	6.49450715513
6	66100	27053.200396613084	4.800877114859
6	66132	27059.113776136239	1.626075508029
6	66140	27061.403087818051	3.566670895928
6	66145	27074.992775981498	0.661400550231
6	66164	27077.851289740009	2.409103686857
6	66172	27079.45529053648	2.427807898866
6	66175	27080.402626403086	2.800383063236
6	66185	27083.037390857483	1.622845015961
6	66210	27092.143413811945	0.844131078292
6	66240	27117.904172032259	0.494586875895
6	66260	27133.131073269959	4.495095999692
6	66272	27139.122917197831	0.975582544599
6	66277	27140.091124341683	3.966483508446
6	66305	27146.689848197129	0.876609108923
6	66310	27149.111834874358	0.978842486627
6	66325	27155.204028670906	0.932068914641
6	66332	27160.285778982671	0.595482025621
6	66350	27180.573984147273	1.437766146375
6	66367	27187.856651528761	0.57583077196
6	66370	27188.713033015443	1.130473206045
6	66402	27196.892058717135	6.016581872116
6	66415	27201.472784961733	2.435865258226
6	66425	27207.243998811637	0.943088822765
6	66445	27225.104093715531	2.225687902291
6	66465	27233.530255973982	0.990208586641
6	66502	27240.671830263934	6.813349813174
6	66510	27242.196510103813	4.163460208967
6	66535	27247.295200379337	1.029990797809
6	66540	27249.208733065831	0.680683470936
6	66570	27262.645062582484	2.490594200494
6	66575	27264.48237053295	6.19790717525
6	66580	27272.386467603436	0.959443290904
6	66635	27297.582167523051	0.5494379248
6	66660	27311.17124797946	2.536138708563
6	66665	27312.047048256001	0.471568023041
6	66685	27319.737538782078	3.182418565579
6	66707	27330.607531921332	2.650817569866
6	66710	27331.343546498613	3.844218031605
6	66737	27335.647718306837	2.112740754962
6	66742	27336.619955986898	4.42165072672
6	66755	27339.301503713999	6.690447250428
6	66820	27367.084216346131	12.876286968856
6	66830	27371.054465520049	1.199799995755
6	66870	27381.436104649242	3.351364699849
6	66875	27382.77900186312	7.724519637102
6	66892	27393.332407628912	3.192777203648
6	66900	27395.004844099929	3.356055824937
6	66905	27403.913157041179	0.65284892302
6	66912	27404.889001619987	0.736993290624
6	66915	27405.57419402216	0.918637624074
6	66935	27411.204055301652	3.305078774349
6	66947	27413.539633414032	1.410132432269
6	66950	27414.266319824498	0.727399693862
6	66955	27415.368648136742	0.525253373152
6	66960	27421.185066622124	0.600447437959
6	66977	27423.675986283491	2.203602046939
6	67000	27436.328018190973	3.995602305698
6	67035	27450.344212742537	0.886370446905
6	67055	27473.422015760468	0.707370984601
6	67070	27477.649716517518	2.478999830224
6	67095	27485.267088104621	2.703339640796
6	67112	27488.741576584031	0.740238689609
6	67115	27489.579250765893	2.352937793546
6	67132	27497.97430434011	4.476840415017
6	67160	27504.643815011456	6.234546088696
6	67187	27509.665324942011	4.85974784094
6	67210	27515.02028277994	2.2230357863
6	67215	27516.549718286699	0.447829372436
6	67225	27519.464951416972	2.595784043175
6	67259	27540.856014020035	3.785189787713
6	67285	27545.774873926615	7.787697327597
6	67297	27554.617120758035	1.055918626709
6	67309	27556.244530291446	1.447741539583
6	67317	27558.032324488377	2.373304549814
6	67365	27570.295292650058	3.69287547164
6	67412	27584.319772157563	2.118776875035
6	67425	27592.169551074988	0.885213906458
6	67437	27594.568139053144	0.74125608881
6	67475	27608.160861110503	3.87878076722
6	67480	27613.733038243459	0.67916188715
6	67497	27636.485114708557	0.735221179624
6	67500	27636.906134857484	2.206813355132
6	67510	27639.184845000736	0.403279764811
6	67532	27643.225702541107	6.100290593326
6	67542	27644.647360541081	2.691958779885
6	67575	27655.869212077898	0.854089537822
6	67610	27664.153049283121	7.369845381603
6	67622	27668.199153430093	0.798065437758
6	67625	27668.808601741664	1.671564609976
6	67632	27678.275916591184	0.450137382839
6	67652	27687.07129852596	0.901315709809
6	67660	27688.768616300313	2.145434149272
6	67672	27692.915387277046	1.323169792191
6	67675	27693.694696330905	2.364289151598
6	67690	27704.445805766468	0.533027437748
6	67702	27707.666427814321	1.919961663674
6	67705	27708.157558041404	1.115608495823
6	67715	27716.100230779133	0.609349745559
6	67722	27719.662221704861	0.448062117072
6	67752	27725.448166756125	2.231292701605
6	67787	27732.259471315849	2.554162892609
6	67792	27733.031433610623	5.201291475891
6	67800	27734.798046292587	5.462556339233
6	67810	27737.01302069654	1.79195634488
6	67852	27751.389155210883	1.735521145978
6	67860	27752.610745537703	0.660451208187
6	67880	27760.799964210412	0.776008815272
6	67887	27775.08659687966	0.961507378984
6	67930	27800.612843510039	0.411969802529
6	67935	27801.388713460903	0.760478944378
6	67967	27805.566777972767	12.487302999697
6	67970	27806.150550426153	3.218011633517
6	67985	27811.265852716989	17.243650895398
6	67990	27814.349110251105	0.495791113563
6	68037	27823.879697306646	7.933899240704
6	68060	27828.261853417247	2.623585792863
6	68065	27832.857469618303	0.597727472382
6	68097	27840.774483756222	3.085300668788
6	68117	27844.181071442361	4.171171685099
6	68129	27846.342246679692	0.932657173928
6	68135	27847.77550855727	1.553662781446
6	68172	27855.333224794782	2.869605612229
6	68175	27856.046373687453	7.309388979175
6	68190	27863.000318986279	2.347040720601
6	68227	27874.992902811231	0.454147917731
6	68230	27875.532315308588	0.848858301216
6	68242	27878.004957882555	1.564729190716
6	68245	27878.682504075587	2.342412243784
6	68255	27881.501520591039	1.714535276393
6	68275	27896.443955151898	0.736009694962
6	68280	27898.527019044473	0.970362045942
6	68285	27906.66541708561	0.650112841418
6	68290	27908.632693208821	0.815258100722
6	68310	27918.615798958332	1.877152857671
6	68317	27923.328588376741	0.937065806612
6	68342	27928.26204641006	5.280632930069
6	68357	27930.527994552523	0.676273787567
6	68377	27934.054284972259	10.677264936299
6	68390	27936.18320059966	2.687058352765
6	68395	27936.968886400147	0.555868492555
6	68412	27943.010550868831	2.866016454756
6	68415	27943.425480514433	2.193526170915
6	68420	27946.228500228727	0.475341411959
6	68425	27949.139577008191	0.622972919
6	68445	27975.413548007213	0.759255362395
6	68450	27988.607472093664	0.70790406093
6	68475	28001.003828070419	2.862833381422
6	68485	28003.169457148645	1.982123520527
6	68495	28016.178677466046	1.57179982877
6	68510	28030.588008914199	0.904651254928
6	68515	28033.12934111706	0.955562829319
6	68557	28039.428654429954	5.893060029903
6	68570	28042.327148390622	0.643701477442
6	68587	28047.51585332519	0.960559300818
6	68600	28050.844764160633	0.932348701311
6	68607	28054.261994430563	0.558889530785
6	68615	28061.527633161991	0.559762137895
6	68655	28084.913556053482	1.389893080149
6	68670	28089.412504840873	0.729320991709
6	68682	28095.050768022035	1.106980217336
6	68692	28096.263142199051	0.831838559289
6	68719	28100.181099016806	2.240868906171
6	68729	28101.676899655564	1.862475311123
6	68770	28115.160482212753	21.823780699503
6	68789	28121.215090740066	1.713889675095
6	68792	28121.694957690047	3.434354642852
6	68795	28122.106205362141	14.39838891685
6	68812	28129.570201498128	3.627930594355
6	68815	28130.230084788378	0.714900445592
6	68852	28143.363448308126	6.964843419018
6	68855	28143.873628114627	3.393161329542
6	68860	28146.219784992956	0.763441757159
6	68880	28174.538538523502	1.500102509732
6	68897	28181.656056848208	1.857600705698
6	68900	28182.348890276991	1.251254779145
6	68934	28192.179609404385	1.149673830907
6	68942	28193.536417458739	2.039553474978
6	68955	28196.900515556093	11.669550936626
6	68965	28203.956991657863	1.454642138177
6	68972	28206.740255118811	0.641369378846
6	68992	28211.398475233848	4.976771151388
6	69002	28212.803146130619	1.730185909308
6	69005	28213.474929625103	1.132107323419
6	69025	28231.416879451938	0.500708537269
6	69030	28235.1770391209	0.607486645458
6	69075	28255.813701107922	2.099932804432
6	69080	28259.737706395985	0.496533305943
6	69085	28261.455005564795	0.957685830444
6	69095	28270.194180056012	1.754410018575
6	69105	28272.791032101321	2.154793370109
6	69120	28280.382823835518	3.173540675925
6	69125	28282.474712177073	0.677421859931
6	69130	28286.230344121648	0.616538834199
6	69140	28300.075042203496	2.735623183665
6	69147	28302.401924490107	0.850472967327
6	69185	28322.936730131005	3.063263047655
6	69236	28343.226199444976	8.690242621646
6	69239	28343.766938041557	4.188911194587
6	69244	28344.304583902365	8.031613623612
6	69252	28345.461354904842	7.691541774833
6	69282	28351.863068862711	0.85341344527
6	69285	28352.307594701215	0.501691688589
6	69292	28360.643525486675	0.822656976106
6	69340	28373.559044373682	0.891627220763
6	69385	28389.944246813543	5.361154753513
6	69394	28390.765367329858	0.46929808869
6	69432	28397.219878133676	6.891003200251
6	69465	28405.392733155696	0.916651952034
6	69470	28407.200092806124	4.351399681285
6	69480	28413.676637272829	2.463263830816
6	69490	28415.249153781371	1.331769789387
6	69532	28430.402175406924	3.659422022425
6	69535	28431.089518461282	7.819230064878
6	69545	28433.858151255645	1.692238019364
6	69555	28447.118137898851	0.501386089111
6	69560	28449.270139294118	0.640603350429
6	69575	28464.090867858897	0.872978444537
6	69602	28468.457429221442	2.658501863837
6	69610	28469.975883649598	3.679410590408
6	69620	28471.850643557615	4.669418997882
6	69635	28476.612084921882	1.599836585574
6	69640	28493.972833630145	0.894775408553
6	69645	28514.258951289289	0.69812700199
6	69667	28520.251074830425	1.139368724956
6	69687	28523.022981497395	4.759941788503
6	69697	28524.457394378515	0.679137083981
6	69735	28534.087338235858	0.753683513356
6	69769	28549.621007198369	0.967337800376
6	69775	28551.248938725697	2.385272482708
6	69799	28555.417413815364	1.1960118922
6	69810	28557.591898711512	3.715685556736
6	69830	28560.955020914613	9.436409494979
6	69855	28567.271571386887	5.042396365735
6	69865	28585.695399357277	1.475957847714
6	69870	28587.356944350319	0.859867691202
6	69885	28624.03728808091	0.420358298765
6	69900	28626.202661397669	3.905051578216
6	69927	28634.027299896355	0.863669555445
6	69930	28634.71799094212	0.758270306259
6	69940	28642.591548374963	2.057296389129
6	69950	28650.021925268362	1.797381200278
6	69990	28663.565185981489	1.840787810486
6	69995	28665.32234763912	0.893862371333
6	70002	28666.063011439432	0.716570225172
6	70020	28669.557528737987	0.961749440106
6	70025	28673.19202998976	0.410954552889
6	70030	28676.305604491595	0.404831812903
6	70035	28678.665258336977	0.93236038778
6	70070	28686.061026702263	1.528275945276
6	70094	28691.645984870431	1.888455333928
6	70134	28696.764252559558	1.333616242073
6	70140	28698.088045016906	1.715395945808
6	70150	28700.418813435983	5.293881401812
6	70155	28705.808482080149	0.512120924098
6	70160	28710.588350296861	0.474214787502
6	70177	28722.10222733228	1.835709829952
6	70194	28723.984396738256	1.49709249871
6	70226	28728.50065714342	8.626800531987
6	70231	28729.041667796182	5.463339902421
6	70239	28730.169896527263	5.664550757267
6	70247	28731.78708273468	4.139142038878
6	70270	28736.615458367988	5.307540403861
6	70289	28742.008167613486	1.310252294688
6	70297	28743.203210516881	14.196234524068
6	70302	28743.955983914809	1.718761942735
6	70307	28744.713797118656	3.90628569749
6	70320	28749.283811868877	4.579254495876
6	70351	28754.273012181021	2.585888991681
6	70379	28758.815099114249	3.730395887605
6	70387	28759.816477164882	8.705630847421
6	70395	28760.895960300765	9.835977337766
6	70427	28766.610756167364	4.096770672557
6	70434	28767.439684811853	4.623582379836
6	70445	28770.376121866878	6.960604912072
6	70460	28784.644420481103	3.618716140162
6	70485	28806.665997762849	10.019925200849
6	70490	28807.174451860808	2.20653329725
6	70500	28817.29999643315	1.712655164546
6	70532	28824.371379793209	4.548690203387
6	70535	28825.2382626955	3.397109345337
6	70540	28828.878390709411	0.576237197733
6	70617	28864.154319181742	1.375222457964
6	70660	28870.168001024568	23.860984374185
6	70716	28882.230060369549	5.324640378699
6	70722	28883.79423955556	8.679740433056
6	70740	28886.706064551124	7.146168930771
6	70745	28888.313510619269	6.980122506455
6	70764	28894.490511902211	0.680427798163
6	70792	28898.084945180242	3.449597152513
6	70797	28898.768187780467	4.35696471098
6	70810	28900.904897721397	2.072595626272
6	70820	28904.997768936451	1.309540078342
6	70825	28916.434624079063	0.42796725845
6	70835	28919.155984258659	1.249147774757
6	70865	28932.517421933039	2.733372885545
6	70897	28940.37979907341	5.510825313584
6	70905	28942.112355092468	5.92293743662
6	70922	28945.787098640119	2.980029134575
6	70945	28956.397583093721	0.468986339029
6	70957	28963.719411814003	1.971248779137
6	70980	28969.184660431615	4.787208724485
6	71000	28978.075891690327	3.086989716776
6	71005	28979.21275340132	0.800825787243
6	71015	28988.18419281597	0.818738710321
6	71025	29008.115062982955	2.335374211771
6	71055	29025.685000405407	7.613579673899
6	71122	29038.868873217183	1.819388088521
6	71125	29039.632487772305	7.367043478271
6	71137	29046.05156397102	0.968201824278
6	71140	29046.549921386266	0.68618089811
6	71189	29061.155974406874	8.946877740509
6	71192	29061.57154830092	0.83325640491
6	71225	29072.739638027908	23.38501697232
6	71230	29073.702441808383	18.10984758462
6	71245	29077.519969276645	1.643555418404
6	71267	29084.318164021535	1.119090536691
6	71330	29102.17154639886	0.442300709616
6	71345	29110.125327985512	2.121192000917
6	71355	29112.829237287845	1.778737555425
6	71370	29117.640604824739	1.788234673287
6	71380	29131.102946453253	2.712762717107
6	71395	29135.782679572616	3.840198727979
6	71400	29137.473717313189	0.482853858499
6	71422	29150.604776278811	4.026073316578
6	71430	29153.320213173814	0.572434702236
6	71440	29159.222840482748	0.988689453015
6	71445	29160.403004544673	0.46284914529
6	71460	29166.70750415515	5.195695234926
6	71465	29178.180855287866	0.943254919257
6	71470	29179.783472227386	0.550118815433
6	71485	29204.485791142308	0.868890713155
6	71495	29214.326664288945	2.702148106529
6	71525	29226.231277954279	2.849050338682
6	71567	29235.63921174011	0.551767179416
6	71570	29236.46653842828	4.417802600021
6	71579	29237.511268209061	6.625058883965
6	71609	29242.230369367306	4.723934457464
6	71615	29243.600952229877	3.056176725299
6	71634	29249.269860791163	1.461562863931
6	71650	29254.376138746342	7.475091709443
6	71675	29262.277480739805	3.716854031671
6	71705	29267.682365762379	4.671807746088
6	71725	29273.70910317772	1.460202581905
6	71734	29281.94438331573	0.572191124968
6	71752	29284.724940485495	2.99385992911
6	71780	29291.944304525073	9.391485917582
6	71802	29295.373861431008	2.417974707407
6	71827	29301.032883310833	1.991336262309
6	71855	29310.983851785189	1.955515525531
6	71860	29318.140576301932	0.554900105437
6	71865	29327.390127305573	0.887967612548
6	71880	29338.463979907158	1.579845943674
6	71914	29351.668395653068	0.565067784116
6	71945	29359.936167946377	0.56390744471
6	71994	29382.423240310565	4.218020946278
6	72004	29383.857699030178	4.665257492872
6	72007	29384.616371535143	9.764437545054
6	72020	29391.763989103018	9.72631293931
6	72037	29398.336973480418	3.371987169289
6	72040	29399.085337775856	2.668203050738
6	72057	29406.982254083883	3.392674302673
6	72075	29415.452692690893	3.091039966582
6	72125	29426.300390998311	8.963731801718
6	72165	29442.320491091303	0.981542929366
6	72182	29445.732817147048	0.959116605975
6	72185	29446.464472471392	10.968782144618
6	72190	29454.377554701248	0.855533783184
6	72195	29457.328233925632	0.626883689268
6	72200	29459.667473751357	0.994892015401
6	72220	29475.410971425929	0.413458016701
6	72225	29481.262222418273	0.868274351023
6	72255	29499.551527589708	1.831865239027
6	72272	29502.989765211845	2.494857568275
6	72284	29504.239694836755	2.870615222279
6	72292	29505.561202401687	1.491858059114
6	72295	29506.500125724795	2.484959057607
6	72300	29517.53311328222	0.977048544632
6	72330	29528.137431669347	8.123111367469
6	72424	29557.287580675017	6.639190541162
6	72427	29558.222457962101	7.151488029104
6	72447	29562.53925976216	16.445638359335
6	72529	29577.938030159173	7.614234528327
6	72556	29582.365500265152	10.259441697747
6	72564	29583.723758421165	12.088306980628
6	72570	29585.267365003262	4.272862482574
6	72577	29590.848055884776	0.517861720733
6	72600	29599.693325970997	2.328214546808
6	72605	29614.670787021227	0.443654246442
6	72612	29619.172759004343	0.549135031318
6	72622	29621.626253581585	0.824151733052
6	72625	29622.521864416383	0.912729875203
6	72630	29624.337791973185	0.877407608973
6	72635	29626.838869085489	0.608804867789
6	72642	29643.38174723375	0.717984260619
6	72677	29659.853266662621	0.784918143405
6	72687	29661.418503467256	0.675424589575
6	72705	29665.798119208508	7.114389201423
6	72715	29678.270674995937	2.528265726116
6	72732	29688.260703536728	2.464800424687
6	72745	29691.771451188724	5.264043873564
6	72755	29697.703417065626	2.060148645534
6	72762	29700.614169511962	0.909234939888
6	72800	29708.787587281411	2.091163016789
6	72805	29712.609841513897	0.522638421506
6	72820	29735.019446518182	0.630759675615
6	72865	29755.480343719028	0.885740920436
6	72877	29758.872391506914	10.390651273465
6	72885	29760.089128080293	1.600308413783
6	72895	29765.646349777015	2.032529511265
6	72915	29773.980759998517	4.5524084148
6	72920	29776.789883012912	0.727575228456
6	72950	29797.905047529752	2.485927914842
6	73000	29806.697436315808	4.208978364593
6	73030	29813.227268493162	10.620433975358
6	73060	29823.985745391487	2.066704685721
6	73072	29827.41254527901	1.036473505397
6	73082	29828.893048573576	0.785966684017
6	73100	29833.024253655232	2.264001684436
6	73132	29837.885159539465	4.835460348939
6	73145	29846.452829658651	0.74438881129
6	73150	29849.382610659834	0.700076245703
6	73160	29852.166712602859	2.110090930406
6	73165	29859.180864962043	0.712334560882
6	73170	29863.042520366582	0.740000484604
6	73190	29869.931685763727	5.553412642688
6	73200	29871.595682715445	1.385231669366
6	73225	29893.047470931143	0.851084488211
6	73257	29903.009612953645	5.800762426543
6	73269	29904.229342424618	0.814131208308
6	73290	29920.181706490643	3.057768408115
6	73320	29933.101992379328	0.430268570874
6	73340	29944.772138148505	3.404731694938
6	73347	29945.956146509085	0.76300201402
6	73372	29953.017474777714	4.200130116803
6	73377	29953.862929082612	2.212372082124
6	73390	29958.238281378429	2.868384217875
6	73395	29962.224737398791	0.782723256992
6	73400	29965.825649985649	0.843941310328
6	73432	29970.870917698563	2.994090652737
6	73444	29972.436830593654	5.430410405181
6	73492	29979.545324834351	7.161719755589
6	73512	29981.925468374331	2.045003356796
6	73570	29990.643129691144	16.690209818136
6	73598	29994.39931203177	6.281949948008
6	73616	29997.56441179755	12.863505648041

