version 2
run First_exit_5-14-20191017-13:43:32-1859
attr configname First_exit_5
attr datetime 20191017-13:43:32
attr experiment First_exit_5
attr inifile omnetpp.ini
attr iterationvars ""
attr iterationvarsf ""
attr measurement ""
attr network ResponseTimeNetwork
attr processid 1859
attr repetition 14
attr replication #14
attr resultdir results
attr runnumber 14
attr seedset 14
param **.Source.interArrivalTime exponential(4s)
param **.jobPriority bernoulli(0.4)
param **.PS.serviceTimeU1 "uniform(0.4s, 1.0s)"
param **.PS.serviceTimeU2 "uniform(1s, 1.2s)"
param **.SS1.serviceTime exponential(0.4s)
param **.SS2.serviceTime exponential(0.8s)
param **.PS.exitProbability bernoulli(0.5)

vector 0 ResponseTimeNetwork.SS1 queueLength:vector ETV
attr interpolationmode sample-hold
attr title "queue length, vector"
vector 1 ResponseTimeNetwork.SS2 queueLength:vector ETV
attr interpolationmode sample-hold
attr title "queue length, vector"
vector 2 ResponseTimeNetwork.QueueU1 queueLength:vector ETV
attr interpolationmode sample-hold
attr title "queue length, vector"
vector 3 ResponseTimeNetwork.QueueU2 queueLength:vector ETV
attr interpolationmode sample-hold
attr title "queue length, vector"
vector 4 ResponseTimeNetwork.sink lifeTimeU2:vector ETV
attr interpolationmode none
attr title "lifetime of arrived jobs U2, vector"
attr unit s
vector 5 ResponseTimeNetwork.sink lifeTime:vector ETV
attr interpolationmode none
attr title "lifetime of arrived jobs, vector"
attr unit s
vector 6 ResponseTimeNetwork.sink lifeTimeU1:vector ETV
attr interpolationmode none
attr title "lifetime of arrived jobs U1, vector"
attr unit s
0	0	0	0
0	95	35.31759158422	1
0	96	35.459710585494	0
0	2580	1075.026665321189	1
0	2581	1075.613109574547	0
0	6957	3079.47261124341	1
0	6959	3079.648368069734	0
0	10542	4502.256562703489	1
0	10544	4502.417197433173	0
0	12562	5135.672547384496	1
0	12564	5135.686802137592	0
0	13329	5454.191188097269	1
0	13331	5454.728487131388	0
0	13349	5456.67325482237	1
0	13353	5457.121111507373	0
0	19262	7859.557853792366	1
0	19264	7859.71211574819	0
0	22975	9298.307995710857	1
0	22976	9299.020049785213	0
0	28917	11608.915994778873	1
0	28924	11609.642281276739	0
0	29860	11924.294405790177	1
0	29861	11924.966581838671	0
0	30867	12309.302927212735	1
0	30869	12309.827891963377	0
0	34842	13887.009286557814	1
0	34846	13887.357603339708	0
0	35175	13995.348639460444	1
0	35179	13995.525039451612	0
0	35195	13998.858870090945	1
0	35196	13999.143796800632	0
0	36574	14584.731106863484	1
0	36576	14584.799295888322	0
0	36589	14586.812331477773	1
0	36591	14587.629064548467	0
0	38652	15440.252805798066	1
0	38654	15440.293158605232	0
0	39130	15669.454872842812	1
0	39131	15669.517298742918	0
0	39502	15838.762668711794	1
0	39504	15838.864057900045	0
0	40407	16168.315074124715	1
0	40409	16168.371210813583	0
0	42133	16825.745691423144	1
0	42135	16826.340291620683	0
0	42138	16826.358960415309	1
0	42140	16826.782589466689	0
0	42158	16829.487846417378	1
0	42160	16829.496591839008	0
0	42198	16834.857278697823	1
0	42202	16835.121939067647	0
0	42213	16836.83293386975	1
0	42218	16837.618245633899	0
0	45307	18012.198447755757	1
0	45309	18012.721256556486	0
0	45735	18156.143118688924	1
0	45736	18156.243742981831	0
0	48700	19417.949486971001	1
0	48701	19418.084532438916	0
0	49675	19802.142563346072	1
0	49676	19802.210813310929	0
0	50345	20071.170478331897	1
0	50346	20071.386401038252	0
0	50625	20187.250588432321	1
0	50631	20187.734981098763	0
0	51195	20381.676060742982	1
0	51196	20381.692684562461	0
0	52527	20936.550554230131	1
0	52529	20936.757394347618	0
0	52532	20936.954646354887	1
0	52534	20937.049664496863	0
0	54132	21648.986004497436	1
0	54136	21649.215203434773	0
0	56686	22530.815845509784	1
0	56688	22530.904836093702	0
0	59955	23997.335439721901	1
0	59956	23997.695388951091	0
0	60757	24260.414430919628	1
0	60761	24261.289492064811	0
0	61452	24576.815546431658	1
0	61454	24577.018150007092	0
0	62127	24861.273803622577	1
0	62129	24861.343270115175	0
0	63080	25280.48099221965	1
0	63081	25280.65982255306	0
0	63425	25459.847340165746	1
0	63426	25460.407577796908	0
0	66814	26734.622569628923	1
0	66816	26734.758265562578	0
0	68982	27590.458341226579	1
0	68984	27590.802731588779	0
0	69009	27594.165935642636	1
0	69011	27594.842296507624	0
0	69265	27712.883044560803	1
0	69266	27713.138689947268	0
0	70875	28437.518753325061	1
0	70876	28437.635083865499	0
0	71615	28727.376078848575	1
0	71619	28727.6458059461	0
0	71649	28732.345494891623	1
0	71656	28733.701443435679	0
0	73087	29454.30151834968	1
0	73089	29454.438965488899	0
1	0	0	0
1	470	160.610364753487	1
1	471	161.014432904769	0
1	475	161.567669911256	1
1	476	161.851989168414	0
1	662	261.460187150228	1
1	665	262.131636264471	2
1	666	263.898107014401	1
1	669	264.111650430666	0
1	672	264.387146901144	1
1	674	264.418829416377	0
1	699	268.003412626768	1
1	701	268.024779517743	0
1	1135	548.090306986574	1
1	1136	548.107571643358	0
1	1165	554.890665198973	1
1	1170	557.169500075553	2
1	1171	558.738817972498	1
1	1176	561.654578801391	0
1	1180	562.172809371126	1
1	1181	562.215611159521	0
1	1300	605.666260484791	1
1	1301	605.831388162876	0
1	1384	641.645181792713	1
1	1386	641.677264664953	0
1	1427	647.338295014639	1
1	1431	648.595602839276	0
1	1437	649.349467001365	1
1	1439	649.384035513763	0
1	1462	653.732344169051	1
1	1464	654.236483577631	0
1	1510	663.682362187894	1
1	1511	664.134419802761	0
1	1830	814.523495809509	1
1	1831	814.627525577183	0
1	1907	835.294028950751	1
1	1909	835.554275092764	0
1	1922	837.308010160354	1
1	1925	837.775412658731	2
1	1926	838.523842977256	1
1	1929	838.727025898544	0
1	1932	839.15701817599	1
1	1935	839.62280248328	2
1	1936	840.012149561396	1
1	1939	840.351794553758	0
1	2369	1004.072786159106	1
1	2371	1004.552350580668	0
1	2640	1106.518697281946	1
1	2641	1106.526320796776	0
1	2655	1109.082619987063	1
1	2656	1109.764471218472	0
1	2770	1155.986816898972	1
1	2771	1156.377946938112	0
1	2780	1157.45796286506	1
1	2781	1158.516494534371	0
1	2860	1184.54172284954	1
1	2861	1184.681940214991	0
1	3887	1614.717360483981	1
1	3889	1615.182018240434	0
1	4252	1828.089775022118	1
1	4259	1830.122808735587	0
1	4420	1910.863361205739	1
1	4421	1911.074065755218	0
1	6435	2882.09754036537	1
1	6436	2882.154086836634	0
1	7102	3135.497189044949	1
1	7106	3136.924371036142	0
1	7180	3186.294892217614	1
1	7181	3188.629843836058	0
1	7386	3271.64362483784	1
1	7388	3271.678682185876	0
1	7418	3275.702514820131	1
1	7420	3276.39803501917	0
1	7492	3286.430856130587	1
1	7496	3287.109009506848	0
1	7500	3287.920211154517	1
1	7501	3288.257489169926	0
1	7787	3396.815427102464	1
1	7791	3398.733948879079	0
1	8420	3613.741813832197	1
1	8421	3614.304307576537	0
1	8447	3618.570793708842	1
1	8451	3618.78828748335	0
1	8550	3650.269237337163	1
1	8554	3650.878629818059	0
1	8565	3652.916734825632	1
1	8566	3653.088004945876	0
1	8735	3715.036846103742	1
1	8744	3717.795242797241	0
1	8752	3718.221358335169	1
1	8754	3718.3747069507	0
1	9230	3918.502227676311	1
1	9231	3919.538374988438	0
1	9422	3980.631273748974	1
1	9424	3980.76096808309	0
1	9502	4014.66812101542	1
1	9506	4015.35594272003	0
1	9630	4069.496898337784	1
1	9631	4072.275111331301	0
1	9770	4123.555594165715	1
1	9771	4123.880870861498	0
1	10130	4297.710328863584	1
1	10131	4297.954448342533	0
1	10135	4298.558517964487	1
1	10136	4299.742053498221	0
1	10640	4526.244933737858	1
1	10646	4527.346805094159	0
1	10652	4528.12968958586	1
1	10654	4528.536655222113	0
1	10900	4597.171786028757	1
1	10901	4597.605665405575	0
1	10915	4600.016692854898	1
1	10921	4601.387717290858	0
1	10925	4602.20506157282	1
1	10926	4603.657845784214	0
1	11065	4653.599626589769	1
1	11066	4653.886002874615	0
1	11077	4655.484458225601	1
1	11081	4656.347396262217	0
1	11110	4661.22797224597	1
1	11111	4662.600840641805	0
1	11127	4664.731222235798	1
1	11131	4665.270888401081	0
1	11210	4677.241760254053	1
1	11211	4677.534114417313	0
1	11297	4702.592169591306	1
1	11299	4702.752956225094	0
1	11552	4788.010598941907	1
1	11556	4790.900844506744	0
1	11625	4803.65574347168	1
1	11626	4804.235205405248	0
1	11725	4839.246626612427	1
1	11726	4841.278802448871	0
1	11922	4912.814818416299	1
1	11925	4913.478859857652	2
1	11926	4914.482507130344	1
1	11930	4915.371116221816	2
1	11931	4915.59784184974	1
1	11939	4918.173782532403	0
1	11945	4919.623127986203	1
1	11946	4919.738784703478	0
1	12991	5324.713742250922	1
1	12996	5325.340902397425	0
1	12999	5325.86988877493	1
1	13001	5326.093747755444	0
1	13006	5326.79576437857	1
1	13008	5327.485327542135	0
1	13067	5342.495244045358	1
1	13069	5342.551407836521	0
1	13215	5416.967458302551	1
1	13216	5421.466740860278	0
1	13975	5715.484728312299	1
1	13979	5716.295520633431	0
1	13985	5717.174907621662	1
1	13986	5717.985641361882	0
1	13995	5719.872174468279	1
1	13996	5719.936910755947	0
1	14087	5735.972187566696	1
1	14090	5736.603168337638	2
1	14091	5736.657874717665	1
1	14094	5736.988109152264	0
1	14430	5871.496438542994	1
1	14431	5871.902673788966	0
1	14435	5872.495103259703	1
1	14436	5875.088971353345	0
1	14445	5876.432134668319	1
1	14446	5877.371774548691	0
1	14460	5879.5412634732	1
1	14461	5880.822507682865	0
1	14470	5881.918567615751	1
1	14471	5882.055739647396	0
1	14475	5882.7673657803	1
1	14476	5883.303154853911	0
1	14480	5883.838075559486	1
1	14489	5885.351919145774	0
1	14512	5889.471579372412	1
1	14514	5889.579709107164	0
1	14650	5951.324400100256	1
1	14651	5951.334453008529	0
1	15805	6420.810649637862	1
1	15806	6421.892669673727	0
1	16160	6577.466664392942	1
1	16161	6578.364438239581	0
1	16397	6766.996432224017	1
1	16401	6768.62395816258	0
1	16505	6812.388862277515	1
1	16506	6812.520176737793	0
1	16515	6813.942313780347	1
1	16516	6815.910684274618	0
1	16630	6856.217260547442	1
1	16631	6856.327343967994	0
1	16757	6896.844239367844	1
1	16759	6896.864666218258	0
1	16835	6923.238904797059	1
1	16836	6923.700406996102	0
1	16845	6925.194318935589	1
1	16849	6926.526434297939	0
1	16860	6928.006400307187	1
1	16861	6928.522174673377	0
1	16960	6942.532633284491	1
1	16961	6942.891933321558	0
1	16965	6943.614272908891	1
1	16966	6943.929201673416	0
1	17615	7229.253079661415	1
1	17616	7230.84325566818	0
1	18015	7367.102307037408	1
1	18016	7367.711698658815	0
1	18032	7369.624850241844	1
1	18034	7370.183547008356	0
1	18662	7632.417067984346	1
1	18664	7632.614677642564	0
1	18860	7727.17822849034	1
1	18861	7727.381470035062	0
1	18875	7729.980345332924	1
1	18876	7731.178439698376	0
1	19390	7913.980562402646	1
1	19391	7921.170874778053	0
1	19395	7921.721418933721	1
1	19396	7923.910310845331	0
1	19570	7963.211627639666	1
1	19571	7964.017298998532	0
1	19877	8063.775171507178	1
1	19884	8065.517334533708	0
1	20317	8270.116528175542	1
1	20319	8270.819330168163	0
1	20405	8285.661064102807	1
1	20406	8286.55374448846	0
1	20500	8339.206095900302	1
1	20501	8340.430390065184	0
1	20505	8341.015663578848	1
1	20506	8343.426956978778	0
1	20710	8426.238927745279	1
1	20711	8426.349291340945	0
1	20715	8427.051348113859	1
1	20720	8427.997095494552	2
1	20721	8428.389405557468	1
1	20729	8430.211028073997	0
1	20732	8430.720468316615	1
1	20734	8431.161655368345	0
1	20797	8442.293677788731	1
1	20800	8443.228117777678	2
1	20801	8443.277806921269	1
1	20804	8443.429829005126	0
1	20820	8446.109676544753	1
1	20821	8446.425415891127	0
1	21927	8927.275770309113	1
1	21929	8927.50416486333	0
1	21960	8931.918415781494	1
1	21961	8932.073680135107	0
1	22150	8991.516022092646	1
1	22166	8994.225319626245	0
1	22265	9032.41058243089	1
1	22266	9032.935928912672	0
1	22270	9033.829600104109	1
1	22271	9033.87127067285	0
1	22297	9039.164635635493	1
1	22299	9039.464808195579	0
1	22520	9114.172674641409	1
1	22524	9114.774703734195	0
1	22532	9115.775027496849	1
1	22534	9115.835563658942	0
1	22665	9156.594908823983	1
1	22666	9156.876520775871	0
1	23620	9582.284764771932	1
1	23621	9582.460456117614	0
1	23625	9583.378567793033	1
1	23626	9583.465945528647	0
1	23840	9699.021578343102	1
1	23841	9699.669761979103	0
1	23855	9701.77832531234	1
1	23856	9702.57183232287	0
1	24214	9844.034734591084	1
1	24216	9844.055752195231	0
1	24495	9965.313631179542	1
1	24496	9965.659669912759	0
1	24872	10138.167289134268	1
1	24874	10138.438891768642	0
1	24877	10138.857315344936	1
1	24884	10139.489501533046	0
1	25277	10353.212798102311	1
1	25280	10354.146391222877	2
1	25281	10354.704882701704	1
1	25284	10354.707584575893	0
1	25445	10414.18460615327	1
1	25446	10414.379035794013	0
1	25452	10415.016472086333	1
1	25454	10415.035201370056	0
1	25460	10416.021276887528	1
1	25465	10417.85939073335	2
1	25466	10418.346216652919	1
1	25479	10421.556020711601	0
1	25580	10445.115930304032	1
1	25581	10445.116728109591	0
1	25695	10481.991159369878	1
1	25696	10482.115749232228	0
1	25830	10531.079826665535	1
1	25839	10532.350099380025	0
1	25842	10533.024760276523	1
1	25849	10534.239169025514	0
1	25855	10535.558276260483	1
1	25856	10536.375508762943	0
1	26750	10947.659216387176	1
1	26751	10949.539066725544	0
1	26925	11013.187303377236	1
1	26929	11013.749600847118	0
1	26932	11013.854901532437	1
1	26934	11014.027111118949	0
1	27287	11158.322564157555	1
1	27291	11159.342329691017	0
1	27417	11200.553899563633	1
1	27422	11201.516170943871	2
1	27434	11204.165862647534	1
1	27446	11205.59668933966	0
1	27452	11206.708634953301	1
1	27454	11206.940383919402	0
1	27752	11318.170162171986	1
1	27754	11318.438773505372	0
1	27757	11319.02650619184	1
1	27762	11319.53042135497	2
1	27764	11319.675763436898	1
1	27769	11320.112514170952	0
1	27797	11324.548621620773	1
1	27799	11324.881924361953	0
1	27802	11325.125492530339	1
1	27804	11325.497806169681	0
1	27807	11325.679218760435	1
1	27810	11326.106596536259	2
1	27815	11327.687252847099	3
1	27816	11329.406024552044	2
1	27819	11329.934435864506	1
1	27822	11330.017737144093	2
1	27824	11330.025640855909	1
1	27826	11330.087141287641	0
1	27829	11330.67241096208	1
1	27831	11331.077701507428	0
1	27834	11331.57556301416	1
1	27836	11331.821026782756	0
1	27987	11358.558229262377	1
1	27989	11358.860804324879	0
1	28000	11360.296120735904	1
1	28001	11360.909273324728	0
1	28050	11371.943375100571	1
1	28051	11372.01315901637	0
1	28309	11437.06090815948	1
1	28321	11440.01595519452	0
1	28332	11441.968188761236	1
1	28336	11442.960714312829	0
1	28445	11474.83940145982	1
1	28446	11475.878292864324	0
1	28660	11515.223789429452	1
1	28661	11516.053355843773	0
1	29110	11672.084136677385	1
1	29114	11673.907448969938	0
1	29130	11676.560606981277	1
1	29131	11676.678244129096	0
1	29135	11677.096673774014	1
1	29136	11677.988713708037	0
1	29240	11728.694674655184	1
1	29241	11730.502902463322	0
1	29342	11760.684723164836	1
1	29354	11763.032585237956	0
1	29362	11763.813575435464	1
1	29364	11763.897475228089	0
1	29650	11844.711653141269	1
1	29651	11844.715539167649	0
1	29670	11848.392947264233	1
1	29671	11851.750217612459	0
1	29805	11893.975887962733	1
1	29806	11893.995825073444	0
1	30057	12044.921055357616	1
1	30060	12045.643627767397	2
1	30061	12048.797946505858	1
1	30064	12048.917380219481	0
1	30177	12068.838522573269	1
1	30179	12069.37251490512	0
1	30182	12069.82725280103	1
1	30184	12070.091232092496	0
1	30187	12070.728427899663	1
1	30189	12070.859027641304	0
1	30194	12071.131535517226	1
1	30197	12072.010369642719	2
1	30205	12073.615423097032	3
1	30206	12075.118121133415	2
1	30209	12075.129764366277	1
1	30211	12075.25128933419	0
1	30214	12076.037773635374	1
1	30216	12076.387648822626	0
1	30222	12077.259236417707	1
1	30226	12077.612995364818	0
1	30320	12109.285589868528	1
1	30321	12109.760312046254	0
1	30457	12152.037829981399	1
1	30459	12152.473594329985	0
1	30665	12259.998942524711	1
1	30666	12260.965766660677	0
1	30675	12262.434307389794	1
1	30676	12263.266447075725	0
1	31232	12427.573425133508	1
1	31239	12428.771571961238	0
1	32220	12762.682634279962	1
1	32224	12763.090379058338	0
1	32227	12763.422508365787	1
1	32230	12763.964146949803	2
1	32239	12765.186495958358	1
1	32256	12768.074876447209	0
1	32472	12871.412872055379	1
1	32476	12872.513643345631	0
1	32870	13058.193794559654	1
1	32871	13058.284612650512	0
1	33170	13166.905245595802	1
1	33171	13167.100262665874	0
1	33840	13422.177315249923	1
1	33841	13422.36089371365	0
1	34445	13706.75702968126	1
1	34446	13708.011226981404	0
1	34907	13895.315059016577	1
1	34909	13895.563365885999	0
1	35100	13957.785836519594	1
1	35101	13959.392598356599	0
1	35730	14254.225618727198	1
1	35731	14254.298075168563	0
1	35997	14360.468129754927	1
1	36000	14361.437445981031	2
1	36001	14362.525730969232	1
1	36004	14362.619246258729	0
1	36065	14388.797154832861	1
1	36066	14388.90199924712	0
1	36075	14390.397225705114	1
1	36076	14390.627032488929	0
1	36150	14410.779195032407	1
1	36151	14411.373779974807	0
1	36247	14435.268192088479	1
1	36251	14435.965803991713	0
1	36255	14436.382884941332	1
1	36256	14436.871175642507	0
1	36340	14469.684001954832	1
1	36341	14470.631562078572	0
1	37292	14885.267775821753	1
1	37295	14886.170597399838	2
1	37296	14887.173686811705	1
1	37299	14887.404997625192	0
1	37585	14992.426383651634	1
1	37586	14992.593818661227	0
1	37590	14993.208049540623	1
1	37591	14993.211400375374	0
1	37595	14993.713819218891	1
1	37596	14994.001182468352	0
1	37685	15013.971854936927	1
1	37686	15014.029461887461	0
1	37690	15014.450540043768	1
1	37691	15014.562902760249	0
1	37700	15015.787947518587	1
1	37701	15016.315012627748	0
1	37862	15085.664621764384	1
1	37864	15086.009551297167	0
1	38092	15218.443004622371	1
1	38099	15220.524404960783	0
1	38102	15220.538101937013	1
1	38104	15220.716868740162	0
1	38112	15222.368229784301	1
1	38114	15222.488278609141	0
1	38302	15277.48473670714	1
1	38305	15278.425428194817	2
1	38306	15280.844329844898	1
1	38310	15281.414701040619	2
1	38311	15281.632305259215	1
1	38314	15281.859902854767	0
1	38760	15515.116905431414	1
1	38764	15515.447436312529	0
1	39160	15673.633245703693	1
1	39161	15673.634527533937	0
1	39705	15933.808860888815	1
1	39706	15934.636870186198	0
1	40300	16129.386067737555	1
1	40301	16129.913002888027	0
1	40310	16131.091023523088	1
1	40311	16132.566079560683	0
1	40317	16133.151967497186	1
1	40321	16136.007653930485	0
1	40325	16136.738177900742	1
1	40329	16138.806759963646	0
1	40740	16335.525430387009	1
1	40741	16337.503015206071	0
1	40865	16386.383114080825	1
1	40866	16386.680786434998	0
1	41415	16586.558288796631	1
1	41416	16588.687790007148	0
1	41632	16661.638111973661	1
1	41636	16662.314698126968	0
1	41650	16665.530789501696	1
1	41651	16666.784911633934	0
1	41735	16699.211060298219	1
1	41736	16700.885371695586	0
1	42445	16920.22796841234	1
1	42446	16920.528154149972	0
1	42955	17141.267516562167	1
1	42956	17141.35319566225	0
1	42995	17150.329917696927	1
1	42999	17150.544632002135	0
1	43510	17293.613112662724	1
1	43511	17294.271185822902	0
1	43655	17339.48450875922	1
1	43656	17339.622567165046	0
1	43940	17449.260694798661	1
1	43941	17449.306264279114	0
1	43967	17453.139566997934	1
1	43970	17453.740076417832	2
1	43974	17454.481290283315	1
1	43977	17454.540026097211	2
1	43979	17454.985983389176	1
1	43982	17455.309746612866	2
1	43985	17455.746895688285	3
1	43986	17456.237316377698	2
1	43991	17460.512758606873	1
1	43995	17461.156869092552	2
1	43999	17462.008076969378	1
1	44002	17462.052159069213	2
1	44005	17463.018234530943	3
1	44006	17463.395572362046	2
1	44009	17463.822677758195	1
1	44015	17464.580547296905	2
1	44020	17465.317837100666	3
1	44021	17465.998317190131	2
1	44024	17466.118365981163	1
1	44026	17466.71182865081	0
1	44417	17625.234722044576	1
1	44421	17628.439306833573	0
1	44510	17660.657834657032	1
1	44511	17661.363091432433	0
1	44570	17688.941492182883	1
1	44571	17689.228310714538	0
1	44645	17708.794386019902	1
1	44646	17709.14161607995	0
1	44655	17710.787820892682	1
1	44656	17711.569515089412	0
1	44920	17836.54277176062	1
1	44921	17837.157749026264	0
1	45665	18137.363450942292	1
1	45666	18138.023834138959	0
1	45680	18140.219726101187	1
1	45681	18140.360982558921	0
1	45772	18161.410296445757	1
1	45780	18162.571244259131	2
1	45781	18163.920473138025	1
1	45784	18164.024751919935	0
1	45982	18245.452373238579	1
1	45985	18246.303000123492	2
1	45986	18246.453917837148	1
1	45991	18247.567982662361	0
1	46092	18272.752303810861	1
1	46097	18273.55205832997	2
1	46109	18274.642483473103	1
1	46115	18275.561322477531	2
1	46119	18276.657652312168	1
1	46126	18277.513092237195	0
1	46925	18689.165875304709	1
1	46926	18690.505962725821	0
1	46932	18691.382128571904	1
1	46935	18692.11491862852	2
1	46936	18692.177504633684	1
1	46941	18693.927558119934	0
1	47755	19086.52067683141	1
1	47769	19089.457788450859	0
1	47774	19089.875135796133	1
1	47776	19090.11405487968	0
1	47787	19092.07216694731	1
1	47790	19092.69389609847	2
1	47791	19093.724277561362	1
1	47794	19093.972856767748	0
1	47799	19094.229002532846	1
1	47801	19094.700842044882	0
1	47827	19098.464569330839	1
1	47830	19098.911439969595	2
1	47831	19099.138969323779	1
1	47835	19099.647346928478	2
1	47839	19100.346363546911	1
1	47842	19100.550754841135	2
1	47844	19101.059142006804	1
1	47850	19102.040551214476	2
1	47851	19102.090225766646	1
1	47854	19102.445797391842	0
1	47860	19103.105184614472	1
1	47861	19103.250601006028	0
1	47867	19104.227945138057	1
1	47869	19104.569345850746	0
1	48012	19172.433854803597	1
1	48015	19172.93159802916	2
1	48016	19173.639226789311	1
1	48019	19174.23133382366	0
1	48057	19187.952376977358	1
1	48061	19188.614044617917	0
1	48255	19254.778370455459	1
1	48256	19255.234735513147	0
1	48397	19297.506885795751	1
1	48399	19297.874348839594	0
1	48410	19299.841321796309	1
1	48411	19300.790108577366	0
1	48665	19405.7257460925	1
1	48666	19406.777751538158	0
1	48807	19457.186062763769	1
1	48813	19457.406979138058	0
1	48840	19462.384579232845	1
1	48841	19462.767524189097	0
1	48920	19482.211664196349	1
1	48921	19484.335209468592	0
1	48925	19485.058947852653	1
1	48926	19485.61992945664	0
1	48935	19487.215116605231	1
1	48936	19489.316393229575	0
1	48940	19489.806642670208	1
1	48941	19489.963892740757	0
1	48950	19491.049598292682	1
1	48951	19492.667648755258	0
1	48990	19498.233042523627	1
1	48991	19498.359111726272	0
1	48995	19498.983611532009	1
1	49001	19500.572971405958	0
1	49105	19539.453857214393	1
1	49106	19539.634411037743	0
1	49270	19592.999360021874	1
1	49271	19593.164716029858	0
1	49860	19879.095034566206	1
1	49861	19879.115441894438	0
1	49887	19883.096900598053	1
1	49889	19883.214939510582	0
1	50050	19964.975117033868	1
1	50051	19965.952150073262	0
1	50255	20029.157254263283	1
1	50256	20029.352063181003	0
1	50260	20029.851982127347	1
1	50261	20031.364595847823	0
1	50400	20082.82540731462	1
1	50401	20082.872890390903	0
1	51567	20570.675824144351	1
1	51569	20570.691651590921	0
1	51995	20727.853934623928	1
1	51996	20728.140337201981	0
1	52205	20831.626288685083	1
1	52206	20831.828799681181	0
1	52222	20834.092299361109	1
1	52224	20834.511173325435	0
1	52227	20834.666619145266	1
1	52231	20835.435865138733	0
1	52245	20837.557393420284	1
1	52246	20838.455404761303	0
1	52250	20838.981546506667	1
1	52256	20841.328096633484	0
1	53000	21119.258633106596	1
1	53001	21119.984220141136	0
1	53545	21374.516036905695	1
1	53546	21374.887763287295	0
1	54155	21652.474721750011	1
1	54159	21653.102579791801	0
1	54232	21675.233212946078	1
1	54235	21676.174807259023	2
1	54240	21677.537719026246	3
1	54241	21678.603841657221	2
1	54244	21678.986304172253	1
1	54249	21679.815307998056	0
1	54252	21680.083780294826	1
1	54254	21680.364620326163	0
1	54257	21681.082606067026	1
1	54259	21681.112394345204	0
1	54517	21796.295256279545	1
1	54519	21796.637131936805	0
1	54660	21881.336856179939	1
1	54661	21882.032686146641	0
1	54667	21882.464195827734	1
1	54669	21882.63293654351	0
1	54672	21883.461033389172	1
1	54679	21884.919985290419	0
1	54730	21893.409591608767	1
1	54731	21893.55919030891	0
1	54745	21896.265654269753	1
1	54759	21898.266854685606	0
1	54840	21920.108450219341	1
1	54841	21921.656360397603	0
1	55160	22058.748549139252	1
1	55161	22059.711304541459	0
1	55370	22123.956975267995	1
1	55376	22126.925758387325	0
1	55382	22127.710982834259	1
1	55386	22127.880219883017	0
1	55615	22198.263031962831	1
1	55619	22198.845209107348	0
1	55690	22228.206649364108	1
1	55691	22228.409852167007	0
1	55707	22230.592167705038	1
1	55711	22231.200691394989	0
1	56279	22436.152226216375	1
1	56283	22436.327716023806	0
1	56294	22438.879076220916	1
1	56296	22439.715356868113	0
1	56299	22439.78239155694	1
1	56301	22439.873826190412	0
1	56346	22446.434449380338	1
1	56348	22446.520959124127	0
1	56920	22607.657498658467	1
1	56924	22608.279423043311	0
1	57595	22882.025083737636	1
1	57596	22882.57640925108	0
1	57600	22883.484527862142	1
1	57601	22883.921447421627	0
1	57605	22884.642686339345	1
1	57612	22886.180480044902	2
1	57614	22886.698186864804	1
1	57616	22886.817528816161	0
1	57630	22889.082013220069	1
1	57631	22890.740215029288	0
1	57900	23018.301305417782	1
1	57901	23018.793516933365	0
1	59362	23673.940731440478	1
1	59364	23674.830440446331	0
1	59890	23967.653405161763	1
1	59891	23969.015550248548	0
1	59900	23970.422724377168	1
1	59901	23971.891698871401	0
1	60100	24028.911920598865	1
1	60106	24029.606868158146	0
1	60485	24189.679160436413	1
1	60486	24189.994864829405	0
1	60855	24303.203273288001	1
1	60856	24303.246121702003	0
1	61345	24546.554441335778	1
1	61346	24548.405778451086	0
1	61630	24632.16689064718	1
1	61631	24635.256920573331	0
1	61635	24635.736356061354	1
1	61636	24636.495295547733	0
1	61692	24653.627598089552	1
1	61694	24653.665401181681	0
1	62410	24979.097218242443	1
1	62411	24979.324304626904	0
1	62852	25196.695948323654	1
1	62854	25196.754870050894	0
1	62857	25197.168932231609	1
1	62862	25197.765243496793	2
1	62866	25198.787700942598	1
1	62869	25198.852071276321	0
1	63380	25449.08179306488	1
1	63381	25449.795806410183	0
1	64105	25775.43920082721	1
1	64106	25776.627805802933	0
1	64110	25777.209218353973	1
1	64111	25777.577057968476	0
1	64240	25828.466311794734	1
1	64241	25828.485292564047	0
1	64510	25903.882864491152	1
1	64511	25904.598526581287	0
1	64722	25951.438031856623	1
1	64729	25952.321617526257	0
1	64732	25952.547132760706	1
1	64736	25954.349671007001	0
1	65137	26141.687976261705	1
1	65139	26141.713694671254	0
1	65245	26176.790005770728	1
1	65246	26178.096691937698	0
1	65252	26178.561049719108	1
1	65256	26178.955615261344	0
1	65265	26180.26426038905	1
1	65266	26180.320433237308	0
1	65270	26181.302086250388	1
1	65279	26184.334742258322	0
1	65507	26298.278421212417	1
1	65511	26299.568068616655	0
1	65517	26299.983748212926	1
1	65521	26300.953529005112	0
1	65795	26397.163092243809	1
1	65800	26399.297222148083	2
1	65801	26399.320122101532	1
1	65804	26399.479040544534	0
1	66512	26654.748035961164	1
1	66516	26655.397754310556	0
1	66520	26656.054848807929	1
1	66521	26656.33100849433	0
1	66892	26749.122407574156	1
1	66894	26749.318347792369	0
1	67415	26915.179156419921	1
1	67416	26915.258121124558	0
1	67660	27006.014828092318	1
1	67664	27006.488545828636	0
1	67852	27087.177878804598	1
1	67856	27087.886104107474	0
1	67864	27088.649568940652	1
1	67866	27088.69633759667	0
1	68057	27166.635857337744	1
1	68059	27166.760965503366	0
1	68105	27182.284564042064	1
1	68106	27183.530698935935	0
1	68220	27211.548033302469	1
1	68221	27211.806513426276	0
1	69375	27771.057497250659	1
1	69376	27771.287124419769	0
1	69409	27775.852928114121	1
1	69411	27776.113096212276	0
1	69421	27777.068806397726	1
1	69423	27777.275847076214	0
1	69454	27782.175368062171	1
1	69456	27782.648059219737	0
1	69475	27785.082405135638	1
1	69476	27785.617639653194	0
1	69600	27856.78995172743	1
1	69601	27857.315542136019	0
1	69955	27985.914937452678	1
1	69956	27986.09898226986	0
1	70535	28260.92095665282	1
1	70539	28261.179410934254	0
1	71405	28629.951935216385	1
1	71406	28630.357104794575	0
1	71815	28823.822429064127	1
1	71816	28824.232650966564	0
1	72255	29062.560166998744	1
1	72256	29065.402841242517	0
1	72260	29066.14275429996	1
1	72264	29066.753713185751	0
1	72350	29113.096593548621	1
1	72351	29113.199080177238	0
1	72507	29191.947603116895	1
1	72511	29192.877780959708	0
1	72820	29312.026880887509	1
1	72821	29312.028450185944	0
1	72960	29401.311056776062	1
1	72961	29402.083583000735	0
1	72970	29403.864703701125	1
1	72971	29404.755416919431	0
1	73495	29637.969603430634	1
1	73496	29639.184915367616	0
1	73575	29683.263339530502	1
1	73576	29684.091892452254	0
1	73580	29684.681232074224	1
1	73581	29685.371533526845	0
1	73835	29757.434948872863	1
1	73836	29758.156020517491	0
1	73840	29758.737265741296	1
1	73841	29758.951286356766	0
1	73845	29759.754143595333	1
1	73846	29761.215698249861	0
1	73855	29762.080121007924	1
1	73856	29762.129395313023	0
1	73860	29762.617046871895	1
1	73866	29763.431592823952	0
1	73877	29764.823492918847	1
1	73880	29765.279459955575	2
1	73896	29767.25251441842	1
1	73899	29767.809257137906	0
1	73995	29803.971505646996	1
1	73996	29804.788344869182	0
1	74172	29873.091019191001	1
1	74174	29873.733053578961	0
2	0	0	0
2	20	14.926203603143	1
2	21	15.527524417549	0
2	30	16.708490638721	1
2	31	17.053677553474	0
2	40	18.099151237639	1
2	41	18.837365282816	0
2	90	34.304292585152	1
2	91	34.910652807706	0
2	160	84.710042553644	1
2	161	84.947509477115	0
2	170	85.8925136161	1
2	171	86.703311489387	0
2	230	103.095186729691	1
2	232	103.336696538143	2
2	233	103.490457328143	1
2	237	103.622521200521	2
2	238	104.469174896334	1
2	242	104.993620327526	2
2	243	105.034921310343	1
2	250	105.658020028439	0
2	254	105.771266524083	1
2	255	106.386829872676	0
2	262	107.480219936983	1
2	263	108.301688826377	0
2	272	109.177368656765	1
2	273	109.612699166233	0
2	277	110.225660446097	1
2	278	110.389913539322	0
2	295	113.85093124634	1
2	296	114.052575444814	0
2	305	114.622211320968	1
2	306	115.436125338601	0
2	330	122.410615393263	1
2	331	122.933665689539	0
2	352	130.515374013829	1
2	353	130.879264996226	0
2	365	132.497397944921	1
2	367	132.542770013963	2
2	368	133.119854906366	1
2	371	133.768248663588	0
2	375	134.029531488531	1
2	376	134.454375468592	0
2	380	134.510150967155	1
2	383	135.161370012841	0
2	387	135.390535268549	1
2	388	136.128872795335	0
2	395	136.879637255833	1
2	398	137.370679460677	0
2	435	154.345925763375	1
2	437	154.431465017849	2
2	438	154.596670377132	1
2	443	155.071935137006	0
2	447	155.630932080546	1
2	448	155.93575728691	0
2	535	196.38600764612	1
2	536	197.340492184002	0
2	570	207.553631996126	1
2	571	207.688272548164	0
2	640	246.86208784874	1
2	641	247.046826256222	0
2	780	327.234106498843	1
2	781	327.238459768121	0
2	865	371.666467149957	1
2	866	371.673209272125	0
2	915	397.504921422494	1
2	916	397.957127787035	0
2	920	398.258889370213	1
2	921	398.8219297817	0
2	925	399.239464600898	1
2	926	399.605214694797	0
2	997	462.651703971473	1
2	998	462.828841163889	0
2	1050	494.268886525538	1
2	1051	494.948760595161	0
2	1090	526.696278475525	1
2	1091	527.028005240261	0
2	1185	562.507960075933	1
2	1186	563.201178616377	0
2	1190	563.49981699724	1
2	1191	563.690645252353	0
2	1202	564.579301346512	1
2	1205	565.338138392519	0
2	1250	588.154978472718	1
2	1251	588.380930480687	0
2	1255	588.868337457029	1
2	1256	589.059966014559	0
2	1265	589.926153543964	1
2	1266	590.414237623422	0
2	1270	590.527624324559	1
2	1271	590.96008939733	0
2	1280	591.730076172135	1
2	1281	592.054914803528	0
2	1355	637.752111586147	1
2	1356	638.159831478278	0
2	1367	639.582431361565	1
2	1370	639.926262144017	0
2	1410	644.950140102531	1
2	1411	645.552004858356	0
2	1425	647.330566858227	1
2	1426	647.338295014639	0
2	1435	649.184218365719	1
2	1436	649.349467001365	0
2	1565	686.665187751704	1
2	1568	687.503932459685	0
2	1580	689.194239506793	1
2	1584	689.530193162571	2
2	1585	689.863342295341	1
2	1588	690.540449194783	0
2	1595	691.378005351798	1
2	1596	691.874911333467	0
2	1670	763.384280774295	1
2	1671	763.629142230707	0
2	1700	774.653274643461	1
2	1701	774.889015895893	0
2	1720	777.362289461937	1
2	1721	777.92497383947	0
2	1730	778.957021793252	1
2	1731	779.794938393724	0
2	1885	830.025775293626	1
2	1886	830.05477175121	0
2	1890	830.286424688727	1
2	1891	830.971981462601	0
2	1905	834.583068220631	1
2	1906	835.294028950751	0
2	2000	855.660967326202	1
2	2001	855.907251687613	0
2	2015	857.430944109199	1
2	2016	858.302357112835	0
2	2025	864.086370758237	1
2	2026	864.426712729567	0
2	2030	864.801772535088	1
2	2031	865.147950604017	0
2	2035	865.897183145208	1
2	2036	865.966834196652	0
2	2040	866.094797370023	1
2	2041	866.484507178439	0
2	2060	880.160860502773	1
2	2061	880.400277383493	0
2	2095	889.482215560734	1
2	2096	889.83210275614	0
2	2145	908.665451360235	1
2	2146	909.499145770928	0
2	2240	953.065697308444	1
2	2241	953.46380117235	0
2	2265	963.923329503961	1
2	2266	964.390764996379	0
2	2270	964.731883644215	1
2	2271	964.968933629074	0
2	2285	967.157333761743	1
2	2286	967.390563269047	0
2	2297	968.55784276659	1
2	2298	968.891638695769	0
2	2307	969.869997013401	1
2	2308	970.21463993694	0
2	2330	989.969684991557	1
2	2331	990.368699230886	0
2	2575	1073.8092296431	1
2	2576	1074.514918523199	0
2	2585	1075.854159377444	1
2	2586	1076.353381555142	0
2	2610	1079.569750778204	1
2	2611	1080.012820724426	0
2	2667	1110.963979021029	1
2	2668	1111.07864728986	0
2	2690	1114.013410154039	1
2	2691	1114.288180968621	0
2	2705	1115.805777185834	1
2	2706	1116.264889370322	0
2	2755	1135.124203240362	1
2	2756	1135.133339641671	0
2	2792	1159.358159637723	1
2	2793	1160.326854768882	0
2	2925	1198.279103464891	1
2	2926	1198.744484459176	0
2	2935	1200.377414833852	1
2	2936	1200.74303602181	0
2	2940	1200.98553970933	1
2	2941	1201.360041011503	0
2	2980	1214.908752862047	1
2	2981	1215.499471547742	0
2	3005	1221.36403916957	1
2	3006	1221.753449216768	0
2	3015	1222.949697115967	1
2	3018	1223.336063751165	0
2	3032	1224.868156942851	1
2	3035	1225.161250224808	0
2	3044	1225.847335926105	1
2	3045	1226.291106300853	0
2	3140	1255.709987099067	1
2	3141	1255.956669211343	0
2	3180	1266.263884130711	1
2	3181	1266.631552433464	0
2	3340	1362.36245195576	1
2	3341	1362.771132511647	0
2	3360	1374.603456753185	1
2	3361	1374.973568903975	0
2	3365	1375.685625052625	1
2	3366	1375.832499419473	0
2	3370	1375.960509994528	1
2	3371	1376.531221747253	0
2	3430	1408.836381611361	1
2	3431	1409.369111723513	0
2	3435	1410.166727363935	1
2	3436	1410.184659190722	0
2	3500	1433.149832583293	1
2	3501	1433.827836605753	0
2	3530	1450.918227108241	1
2	3533	1451.143434718594	0
2	3542	1451.601591763382	1
2	3543	1452.496651100338	0
2	3550	1453.293927950428	1
2	3551	1453.610386674822	0
2	3565	1456.779684035459	1
2	3566	1457.171262779928	0
2	3630	1499.561588229744	1
2	3631	1499.630840008266	0
2	3740	1549.690286055265	1
2	3741	1550.439745934744	0
2	3750	1551.616861936581	1
2	3751	1551.868885614135	0
2	3864	1610.899866255541	1
2	3865	1611.129753183513	0
2	3970	1709.892753096993	1
2	3971	1710.107604168234	0
2	4010	1724.833012409759	1
2	4011	1725.812748113551	0
2	4095	1782.464501989783	1
2	4096	1782.678308991213	0
2	4155	1806.683471554484	1
2	4156	1807.188943462165	0
2	4195	1816.076783921498	1
2	4197	1816.303187466504	2
2	4198	1816.680053556537	1
2	4201	1817.66278729156	0
2	4242	1826.712461300539	1
2	4243	1826.842641243523	0
2	4250	1827.439414715939	1
2	4251	1828.089775022118	0
2	4265	1830.428557366494	1
2	4268	1831.186576541697	0
2	4280	1833.574110889313	1
2	4281	1834.384160998573	0
2	4310	1855.202838434914	1
2	4311	1855.299949929033	0
2	4430	1912.32487680332	1
2	4431	1912.466052155246	0
2	4465	1926.768630932768	1
2	4466	1927.032285903557	0
2	4470	1927.233315594281	1
2	4471	1927.619025681424	0
2	4497	1932.161796517132	1
2	4498	1932.368072532219	0
2	4540	1953.587411880206	1
2	4542	1953.605547128761	2
2	4543	1953.708568501382	1
2	4546	1954.261365474298	0
2	4550	1954.341810994119	1
2	4551	1955.030431693004	0
2	4600	1967.2387664395	1
2	4601	1967.359309737204	0
2	4642	1980.433386991838	1
2	4643	1980.575110175656	0
2	4670	1986.971577978794	1
2	4671	1987.069595722696	0
2	4825	2042.581940105901	1
2	4826	2043.186043923057	0
2	4945	2125.559168968232	1
2	4946	2125.819781248642	0
2	4990	2142.163393977399	1
2	4991	2142.403338323727	0
2	5060	2207.96085237582	1
2	5061	2208.715946948101	0
2	5090	2221.734461950262	1
2	5091	2221.814848671041	0
2	5095	2221.822022255457	1
2	5096	2222.354909973384	0
2	5100	2222.541143948836	1
2	5101	2222.810998652342	0
2	5170	2244.297024928704	1
2	5171	2244.763664213066	0
2	5245	2277.421889060523	1
2	5246	2277.697246369582	0
2	5255	2279.100122333329	1
2	5256	2279.400702433529	0
2	5260	2279.585122925361	1
2	5261	2279.946801775329	0
2	5355	2361.842656524417	1
2	5356	2362.02043378273	0
2	5495	2447.485135348874	1
2	5496	2448.199500673792	0
2	5505	2449.265749284841	1
2	5506	2449.987517243453	0
2	5530	2453.037667239432	1
2	5531	2453.160604541717	0
2	5565	2476.178443649128	1
2	5566	2476.212180173179	0
2	5575	2477.484234769857	1
2	5576	2477.750402656957	0
2	5610	2492.312875242012	1
2	5611	2492.517495904824	0
2	5720	2527.979920570288	1
2	5721	2528.023274286557	0
2	5755	2535.628072950012	1
2	5756	2536.241776632255	0
2	5760	2536.302836955615	1
2	5761	2536.653557506966	0
2	5770	2546.69082270225	1
2	5771	2547.360312670471	0
2	5830	2578.801259714838	1
2	5831	2578.997470625303	0
2	5850	2586.576853780002	1
2	5852	2586.80271387655	2
2	5853	2586.861019016714	1
2	5856	2587.799640351306	0
2	5875	2600.082650057026	1
2	5876	2600.344275148022	0
2	5905	2607.518483515632	1
2	5906	2607.798437960347	0
2	5910	2607.931099881749	1
2	5911	2608.60630186153	0
2	5990	2660.967903476192	1
2	5991	2661.274089014663	0
2	5995	2661.640656644369	1
2	5996	2662.015727830951	0
2	6000	2662.743315589092	1
2	6001	2662.856776078644	0
2	6075	2703.03237925358	1
2	6078	2703.540168569912	0
2	6110	2747.879808632045	1
2	6111	2748.374487358059	0
2	6125	2750.529583459684	1
2	6126	2750.893825698898	0
2	6150	2757.288717517813	1
2	6151	2757.444580521251	0
2	6265	2816.91919174832	1
2	6266	2817.263735595093	0
2	6280	2823.66610573185	1
2	6281	2823.88732136874	0
2	6285	2824.172743218153	1
2	6288	2824.686361931306	0
2	6295	2825.263612844538	1
2	6296	2825.674065888994	0
2	6335	2844.443677390842	1
2	6336	2844.83809544755	0
2	6375	2855.403307156864	1
2	6376	2855.513544573007	0
2	6390	2871.332867334371	1
2	6391	2871.351828977445	0
2	6475	2892.58877136282	1
2	6476	2892.733993323482	0
2	6492	2895.29536698498	1
2	6493	2895.596994425626	0
2	6497	2895.840727266237	1
2	6498	2896.072429628847	0
2	6532	2930.144247769352	1
2	6533	2930.446618625573	0
2	6537	2931.012634219428	1
2	6538	2931.297605782845	0
2	6545	2932.362570396683	1
2	6546	2933.074755697562	0
2	6555	2934.358529162173	1
2	6556	2934.755418932489	0
2	6575	2941.781151846448	1
2	6576	2942.395407833776	0
2	6605	2967.01123437111	1
2	6606	2967.687455720868	0
2	6610	2967.704610060122	1
2	6611	2968.646001329221	0
2	6617	2969.012740191139	1
2	6619	2969.043124751487	2
2	6620	2969.151974840922	1
2	6623	2969.856588358054	0
2	6629	2970.260680776287	1
2	6630	2970.669861008734	0
2	6636	2970.855205804463	1
2	6637	2971.103785295547	0
2	6644	2971.837024142401	1
2	6645	2971.916233376456	0
2	6652	2972.420362981979	1
2	6654	2972.665625649045	2
2	6656	2972.913560533928	3
2	6659	2973.212725190907	2
2	6664	2973.799764403044	1
2	6668	2973.827529430444	2
2	6670	2974.158940923276	3
2	6671	2974.577954599955	2
2	6674	2975.247913013394	1
2	6678	2975.808630386352	2
2	6679	2976.202909610509	1
2	6683	2976.235915942966	2
2	6684	2976.637701833756	1
2	6687	2977.223831809028	0
2	6702	2979.383783171814	1
2	6705	2979.743910314278	0
2	6722	2982.282599551042	1
2	6723	2982.619017908019	0
2	6860	3056.58546741317	1
2	6861	3056.680873821445	0
2	6870	3057.459412335251	1
2	6873	3058.138112711117	0
2	6880	3058.887667981803	1
2	6881	3059.07508491711	0
2	6960	3079.648368069734	1
2	6962	3079.648573188652	2
2	6963	3080.00586794954	1
2	6966	3080.600122445582	0
2	6975	3081.565259657618	1
2	6976	3081.654369512101	0
2	6980	3081.656922041224	1
2	6981	3082.320395140204	0
2	6990	3083.276792138295	1
2	6991	3083.943206611875	0
2	7070	3123.172790237911	1
2	7071	3123.475231302045	0
2	7145	3145.2066618295	1
2	7146	3145.341796991432	0
2	7215	3204.980331604022	1
2	7216	3205.86207872563	0
2	7220	3205.922317102447	1
2	7221	3206.766664234586	0
2	7280	3242.372788042844	1
2	7281	3242.823622025301	0
2	7295	3245.391619445093	1
2	7296	3245.405682586207	0
2	7305	3246.266908506347	1
2	7306	3246.723783519797	0
2	7320	3248.418045250237	1
2	7321	3249.10911400494	0
2	7330	3250.171736033619	1
2	7331	3250.647114030572	0
2	7365	3269.454312615884	1
2	7366	3269.809947867882	0
2	7380	3271.166458268022	1
2	7384	3271.39382067489	2
2	7385	3271.64362483784	1
2	7390	3272.265894391252	0
2	7399	3273.062505122133	1
2	7404	3273.95661576414	0
2	7477	3284.439132476207	1
2	7478	3284.705123655906	0
2	7625	3347.533629965584	1
2	7626	3347.661443601562	0
2	7785	3396.695111093494	1
2	7786	3396.815427102464	0
2	7800	3400.001322401488	1
2	7801	3400.126074794429	0
2	7805	3400.132197003933	1
2	7806	3400.968610617035	0
2	7870	3428.502122550413	1
2	7871	3429.053148461555	0
2	7880	3429.963632106952	1
2	7882	3430.083164172393	2
2	7883	3430.539651527585	1
2	7886	3431.410282620977	0
2	7920	3455.320473082752	1
2	7921	3455.340598108563	0
2	7990	3502.683560957011	1
2	7991	3503.077418204416	0
2	8045	3521.61823464945	1
2	8046	3521.915842315113	0
2	8055	3522.770718972232	1
2	8058	3523.318374895871	0
2	8092	3528.143720259751	1
2	8093	3528.252296543361	0
2	8102	3529.543020512801	1
2	8103	3529.784701507033	0
2	8107	3529.88537611322	1
2	8110	3530.528504207877	0
2	8130	3533.121544060629	1
2	8131	3533.736668385275	0
2	8140	3535.086774935852	1
2	8141	3535.47126383189	0
2	8190	3570.275921090867	1
2	8191	3570.983426436991	0
2	8275	3590.17894979109	1
2	8278	3590.832455148339	0
2	8287	3591.903183872052	1
2	8288	3592.315606733156	0
2	8299	3593.142401815778	1
2	8300	3593.469991762913	0
2	8307	3594.312190868474	1
2	8308	3594.371006759047	0
2	8317	3595.775079714289	1
2	8318	3596.212638917775	0
2	8330	3598.232800557928	1
2	8331	3598.400833348627	0
2	8380	3607.751662872593	1
2	8381	3608.246258050882	0
2	8450	3618.613369984577	1
2	8455	3619.18133183239	0
2	8462	3619.910960623201	1
2	8466	3620.394988071839	2
2	8467	3620.635449038408	1
2	8470	3621.340490578543	0
2	8474	3621.514338794767	1
2	8475	3622.048431960456	0
2	8482	3623.017297769868	1
2	8483	3623.24911198724	0
2	8680	3704.716765631069	1
2	8683	3705.099549450349	0
2	8720	3712.314609394187	1
2	8723	3712.984227747041	0
2	8740	3716.810922876587	1
2	8741	3716.89491619576	0
2	8750	3718.043823808411	1
2	8751	3718.221358335169	0
2	8769	3719.977051204597	1
2	8770	3720.223937597043	0
2	8777	3721.292536157138	1
2	8778	3721.612152992386	0
2	8787	3722.503723756139	1
2	8788	3722.850647280748	0
2	8885	3798.804800141915	1
2	8888	3799.756558952046	0
2	8895	3800.73151489635	1
2	8896	3801.129782571069	0
2	8915	3809.370924835951	1
2	8916	3809.93774572673	0
2	8920	3810.275067230683	1
2	8921	3810.476763523479	0
2	8925	3810.818538622198	1
2	8926	3811.143925207497	0
2	8930	3811.699093821574	1
2	8931	3811.776116892153	0
2	8965	3818.041621287311	1
2	8966	3818.604708697183	0
2	9007	3837.99851663048	1
2	9008	3838.34826522967	0
2	9050	3867.83248872917	1
2	9051	3868.302563083506	0
2	9060	3869.133709550005	1
2	9061	3869.690684369065	0
2	9070	3870.611861767739	1
2	9071	3871.083286025094	0
2	9100	3877.392318106323	1
2	9101	3878.087451027695	0
2	9140	3889.905509161693	1
2	9143	3890.798880864853	0
2	9147	3891.24759236997	1
2	9148	3891.755438850714	0
2	9152	3891.810136013395	1
2	9153	3892.5897785514	0
2	9315	3953.420736100274	1
2	9316	3953.66473731303	0
2	9322	3954.319309910971	1
2	9323	3954.416768336551	0
2	9365	3972.611838990256	1
2	9366	3973.229914835578	0
2	9379	3974.174078399084	1
2	9380	3974.475682022672	0
2	9389	3975.387834578314	1
2	9393	3975.965088094368	2
2	9394	3976.065534878631	1
2	9397	3976.773726051736	0
2	9401	3977.148839883739	1
2	9402	3977.185518076054	0
2	9409	3977.695389242023	1
2	9410	3978.106876877525	0
2	9420	3980.185869261064	1
2	9421	3980.631273748974	0
2	9540	4024.279954927271	1
2	9541	4024.417821958278	0
2	9545	4025.229885972656	1
2	9546	4025.343513390551	0
2	9585	4053.321759128505	1
2	9586	4053.351967507838	0
2	9595	4054.352807299448	1
2	9598	4054.699840927547	0
2	9605	4055.909993466673	1
2	9606	4056.315415790914	0
2	9680	4090.210888032194	1
2	9681	4090.394399397601	0
2	9690	4091.734626755062	1
2	9691	4091.894060650623	0
2	9730	4116.921123345538	1
2	9731	4117.43898001576	0
2	9745	4119.896206475114	1
2	9746	4119.96711479877	0
2	9750	4120.019269822667	1
2	9753	4120.919896723841	0
2	9757	4121.085287412854	1
2	9760	4121.63690912933	0
2	9950	4222.690171427871	1
2	9951	4222.836637556161	0
2	10075	4274.573018796748	1
2	10076	4275.175765439965	0
2	10080	4275.541869586309	1
2	10081	4275.895172512721	0
2	10160	4303.814151764357	1
2	10161	4304.096804982916	0
2	10180	4308.568414921367	1
2	10181	4308.763165171874	0
2	10300	4372.512758989136	1
2	10301	4372.963316724128	0
2	10310	4373.839457444445	1
2	10311	4374.314617168768	0
2	10320	4375.245570448327	1
2	10323	4376.067672412101	0
2	10430	4440.397548136772	1
2	10431	4441.086572958085	0
2	10435	4441.708371952627	1
2	10436	4441.755664426669	0
2	10465	4454.194195423977	1
2	10468	4455.150661575656	0
2	10537	4501.185194889289	1
2	10538	4501.33971358688	0
2	10545	4502.417197433173	1
2	10547	4502.521658180973	2
2	10548	4502.805269761397	1
2	10553	4503.512876124647	0
2	10557	4503.803239812155	1
2	10558	4504.50007316709	0
2	10575	4514.253623843262	1
2	10576	4514.603257716029	0
2	10590	4518.377163322644	1
2	10593	4518.757251001889	0
2	10602	4520.081990885314	1
2	10603	4520.235805945698	0
2	10612	4521.464096108107	1
2	10613	4521.836409582658	0
2	10650	4527.479641074828	1
2	10651	4528.12968958586	0
2	10690	4539.474081776732	1
2	10691	4539.830705671298	0
2	10735	4559.038374678686	1
2	10737	4559.091531639031	2
2	10738	4559.260265160405	1
2	10741	4560.250431436307	0
2	10745	4560.458627504661	1
2	10746	4561.083376728331	0
2	10755	4562.442871650601	1
2	10757	4562.452229901328	2
2	10758	4563.205519744735	1
2	10762	4563.392824865588	2
2	10763	4563.82711642662	1
2	10767	4564.317260240416	2
2	10768	4564.748689564578	1
2	10772	4564.809068588168	2
2	10773	4565.586372923506	1
2	10776	4566.055330504085	0
2	10795	4580.374262890559	1
2	10796	4580.942718904748	0
2	10862	4591.687883564093	1
2	10863	4591.747541414998	0
2	10872	4592.489984308357	1
2	10875	4592.867165913205	0
2	10882	4593.636849704569	1
2	10883	4594.425444079289	0
2	10892	4595.069078719129	1
2	10893	4595.846842308767	0
2	10965	4615.357990427348	1
2	10966	4615.410585926487	0
2	10975	4617.52571433407	1
2	10976	4617.699403570162	0
2	10985	4618.149755905558	1
2	10987	4618.505162411741	2
2	10988	4618.554145955935	1
2	10993	4618.960764380859	0
2	10997	4619.865989218301	1
2	10998	4619.884669357992	0
2	11002	4620.090746907676	1
2	11003	4620.794918807677	0
2	11075	4655.054673891838	1
2	11076	4655.484458225601	0
2	11080	4656.289048990528	1
2	11083	4656.419634631098	0
2	11095	4658.310272764415	1
2	11098	4658.856469474974	0
2	11172	4670.874078268844	1
2	11173	4670.885777285685	0
2	11180	4671.699553315409	1
2	11181	4672.095258162021	0
2	11285	4701.18521776464	1
2	11288	4701.572879396692	0
2	11295	4702.109353459198	1
2	11296	4702.592169591306	0
2	11330	4707.741916144498	1
2	11331	4707.952261768106	0
2	11365	4716.297340905381	1
2	11367	4716.505827718713	2
2	11368	4716.636977649669	1
2	11373	4717.448980244624	0
2	11385	4719.562134595204	1
2	11386	4719.824601601848	0
2	11542	4786.801134367617	1
2	11543	4786.882657423304	0
2	11550	4787.898042884545	1
2	11551	4788.010598941907	0
2	11585	4797.674367391361	1
2	11586	4797.874098348534	0
2	11592	4797.91497361216	1
2	11593	4798.742754186513	0
2	11597	4798.872920589169	1
2	11598	4799.286023420198	0
2	11602	4799.304386523732	1
2	11603	4800.072059147488	0
2	11612	4801.116077941114	1
2	11613	4801.486758234593	0
2	11770	4863.624148310836	1
2	11771	4864.320081849251	0
2	11779	4864.816826468816	1
2	11780	4865.299288453016	0
2	11840	4880.708778757437	1
2	11841	4881.431369407034	0
2	11880	4892.983000244878	1
2	11881	4893.534086101008	0
2	11970	4927.051421706186	1
2	11971	4927.384660114798	0
2	11975	4927.392631083879	1
2	11978	4928.216190170807	0
2	11982	4928.534556004898	1
2	11983	4928.918254795888	0
2	11987	4929.415854788437	1
2	11988	4929.71714667844	0
2	12080	4967.5282561581	1
2	12081	4967.906948178251	0
2	12105	4971.765023279678	1
2	12106	4972.44103838906	0
2	12185	5008.586523374337	1
2	12186	5008.778079863678	0
2	12195	5009.635132996432	1
2	12196	5009.869460857839	0
2	12222	5013.829457943468	1
2	12223	5013.856245858149	0
2	12229	5014.486191538499	1
2	12230	5014.781241667197	0
2	12234	5014.831895526098	1
2	12235	5015.678670723011	0
2	12241	5016.079122378325	1
2	12242	5016.304803521439	0
2	12246	5016.602544600843	1
2	12247	5016.863151286656	0
2	12254	5017.757842557596	1
2	12255	5018.09510469625	0
2	12267	5019.95559746539	1
2	12268	5020.491703761809	0
2	12335	5051.106042202572	1
2	12336	5051.509234409926	0
2	12345	5052.438221166431	1
2	12346	5052.764900448506	0
2	12450	5087.624352029908	1
2	12451	5088.154248924286	0
2	12455	5088.435589134625	1
2	12456	5088.936178165127	0
2	12495	5099.893978797924	1
2	12496	5100.180514865434	0
2	12505	5101.221246169892	1
2	12506	5101.747813938298	0
2	12550	5133.133538379814	1
2	12551	5134.011387766763	0
2	12557	5134.129507039941	1
2	12558	5134.974220395885	0
2	12565	5135.686802137592	1
2	12567	5136.045688029737	2
2	12568	5136.261767502739	1
2	12573	5137.146813585753	0
2	12577	5137.247917811058	1
2	12578	5138.007936274311	0
2	12582	5138.420321266446	1
2	12583	5138.735527969575	0
2	12587	5139.05721235683	1
2	12588	5139.655550692933	0
2	12720	5217.206795913052	1
2	12721	5217.763498305324	0
2	12730	5218.49142850483	1
2	12731	5219.345782445212	0
2	12800	5248.411330584498	1
2	12801	5248.98142590524	0
2	12860	5273.745085403644	1
2	12862	5273.94773867926	2
2	12863	5274.261910171263	1
2	12866	5275.03699841566	0
2	12970	5321.938163124644	1
2	12973	5322.612850551653	0
2	12987	5324.388960404419	1
2	12990	5324.713742250922	0
2	13047	5340.678691407926	1
2	13048	5340.71027122842	0
2	13055	5341.30681693242	1
2	13058	5341.642578519311	0
2	13084	5344.000221994053	1
2	13085	5344.273822305899	0
2	13092	5344.870075195612	1
2	13093	5345.436277937878	0
2	13100	5346.273878461208	1
2	13101	5346.777738515183	0
2	13145	5381.148125062893	1
2	13146	5381.466199182162	0
2	13150	5381.729727944358	1
2	13151	5382.069015851805	0
2	13290	5448.86165045502	1
2	13292	5449.333271395478	2
2	13293	5449.440857294844	1
2	13296	5450.094297101525	0
2	13300	5450.409029650839	1
2	13301	5450.612126805204	0
2	13310	5451.591036530743	1
2	13312	5452.373538405686	2
2	13313	5452.517455378816	1
2	13318	5453.148327047972	0
2	13322	5453.34818473731	1
2	13323	5453.631836946577	0
2	13327	5453.739061438086	1
2	13328	5454.191188097269	0
2	13332	5454.728487131388	1
2	13333	5454.820912501112	0
2	13339	5455.470548094489	1
2	13340	5455.592422881525	0
2	13344	5455.706374443156	1
2	13345	5456.117357500399	0
2	13354	5457.121111507373	1
2	13355	5457.12507108854	0
2	13363	5457.818005073602	1
2	13364	5458.095600249515	0
2	13368	5458.513756825626	1
2	13369	5458.728357422761	0
2	13373	5458.851838058764	1
2	13374	5459.473417000602	0
2	13383	5460.680841239924	1
2	13384	5461.137171706826	0
2	13399	5464.225696923195	1
2	13400	5464.249717931718	0
2	13409	5464.989668882136	1
2	13410	5465.712767422654	0
2	13455	5478.500632576784	1
2	13456	5478.52149640756	0
2	13467	5480.949124306346	1
2	13468	5481.109160467186	0
2	13475	5482.217778833634	1
2	13476	5482.383582061292	0
2	13500	5503.150478410502	1
2	13501	5503.204873282309	0
2	13800	5637.043545552661	1
2	13801	5637.450471480972	0
2	13805	5638.314488454207	1
2	13806	5638.434315577186	0
2	13810	5638.559512216502	1
2	13811	5639.238670231159	0
2	13950	5701.303787700491	1
2	13951	5701.54336490386	0
2	14052	5729.801802424742	1
2	14055	5730.525982912801	0
2	14064	5731.31117086761	1
2	14066	5731.403782186975	2
2	14067	5732.029857855927	1
2	14070	5732.942354118623	0
2	14220	5809.284910168004	1
2	14221	5809.540968844442	0
2	14230	5811.966555877975	1
2	14231	5812.024503952231	0
2	14250	5821.275690700923	1
2	14252	5821.53566191594	2
2	14253	5821.707058937936	1
2	14256	5822.109184473329	0
2	14280	5825.477308369751	1
2	14283	5826.300616025623	0
2	14287	5826.315100331215	1
2	14288	5826.894948605519	0
2	14355	5850.926669277269	1
2	14356	5851.234123402594	0
2	14375	5853.033287350081	1
2	14378	5853.499668829663	0
2	14390	5855.056282631641	1
2	14391	5855.740426175864	0
2	14497	5886.614473262384	1
2	14498	5886.691269208067	0
2	14540	5894.43595917134	1
2	14541	5894.978484783641	0
2	14545	5895.548042975584	1
2	14546	5895.823215809365	0
2	14550	5896.059832192832	1
2	14551	5896.708433170843	0
2	14555	5896.838516234616	1
2	14556	5897.166751669061	0
2	14565	5897.608702031524	1
2	14566	5898.352406214077	0
2	14582	5909.383738652971	1
2	14583	5909.519377939225	0
2	14660	5952.618570427305	1
2	14661	5952.941668160931	0
2	14670	5953.675811453921	1
2	14671	5954.379783834211	0
2	14855	6022.399186151259	1
2	14856	6023.019313435781	0
2	14900	6067.061729606188	1
2	14901	6067.391710634778	0
2	14915	6069.035745321405	1
2	14916	6069.284890707332	0
2	14935	6072.7477445216	1
2	14936	6073.459579683473	0
2	14940	6073.488520076772	1
2	14941	6073.872572690626	0
2	14945	6074.023431617585	1
2	14946	6074.427597965258	0
2	14950	6074.559219451975	1
2	14951	6075.036083120159	0
2	15130	6146.571076121332	1
2	15131	6146.630724381175	0
2	15390	6263.955056453982	1
2	15393	6264.734777236555	0
2	15405	6266.509365125483	1
2	15406	6267.153631016591	0
2	15410	6267.288389484115	1
2	15413	6267.789735491413	0
2	15460	6280.98561560695	1
2	15461	6281.455837716614	0
2	15465	6281.706257168492	1
2	15468	6281.909841884845	0
2	15545	6309.135815447105	1
2	15546	6309.187494761007	0
2	15557	6310.630956814272	1
2	15558	6310.681644834374	0
2	15562	6310.810101962717	1
2	15563	6311.372662922862	0
2	15567	6311.388210284409	1
2	15568	6312.36858362591	0
2	15575	6312.906796167824	1
2	15576	6313.521331376752	0
2	15620	6344.580650683204	1
2	15621	6344.66899874256	0
2	15690	6381.626182338008	1
2	15691	6382.554604738754	0
2	15700	6383.822664095866	1
2	15701	6383.88938183117	0
2	15730	6396.208447171796	1
2	15731	6396.595434975006	0
2	15745	6397.962370464142	1
2	15746	6398.708184133949	0
2	15755	6399.531622077022	1
2	15756	6400.245597507445	0
2	15775	6415.378196581866	1
2	15776	6416.275390930273	0
2	15900	6458.43513005024	1
2	15901	6459.219481473696	0
2	15917	6469.644724057033	1
2	15918	6469.78044595094	0
2	15975	6498.562548695388	1
2	15976	6498.849959180293	0
2	16000	6506.558642888837	1
2	16001	6507.061553847423	0
2	16050	6532.504982394563	1
2	16051	6532.603004997041	0
2	16130	6567.220613961538	1
2	16131	6567.347723988163	0
2	16195	6622.86009123245	1
2	16196	6623.440651173619	0
2	16370	6762.892857431047	1
2	16371	6763.291827675533	0
2	16382	6764.45314695859	1
2	16383	6764.864854469716	0
2	16460	6784.171290214478	1
2	16463	6784.496085072452	0
2	16470	6785.685413713269	1
2	16471	6786.049863044176	0
2	16555	6829.873026090504	1
2	16556	6830.027085725172	0
2	16595	6849.08801581361	1
2	16596	6849.560506345665	0
2	16665	6862.733819804311	1
2	16666	6863.031504126682	0
2	16707	6889.359429368606	1
2	16710	6889.675742819134	0
2	16719	6890.249342733555	1
2	16720	6890.995763210507	0
2	16795	6915.549245900087	1
2	16796	6916.068053782996	0
2	16810	6918.245084131533	1
2	16811	6918.979158933682	0
2	16880	6931.029612941183	1
2	16883	6931.313020572775	0
2	16890	6931.971521492463	1
2	16893	6932.410270177537	0
2	16904	6933.479792869702	1
2	16905	6933.795611799519	0
2	16911	6933.959884043892	1
2	16912	6934.761028889019	0
2	16980	6946.145680742429	1
2	16981	6946.380575246461	0
2	17060	6995.951072371096	1
2	17061	6996.26035408142	0
2	17210	7050.273840379504	1
2	17211	7050.487900367791	0
2	17330	7105.214627226674	1
2	17331	7105.575242712722	0
2	17335	7105.865984121211	1
2	17337	7105.970184801944	2
2	17338	7106.204998036149	1
2	17341	7106.865996191046	0
2	17347	7107.509545809149	1
2	17348	7107.535695534526	0
2	17355	7108.531379991943	1
2	17356	7109.156208717963	0
2	17375	7118.045278778672	1
2	17376	7118.343086761185	0
2	17405	7125.276978779517	1
2	17406	7126.199004922553	0
2	17690	7267.983450897079	1
2	17691	7268.239696812631	0
2	17702	7269.624355774138	1
2	17703	7269.874849942421	0
2	17710	7271.197201477242	1
2	17711	7271.656687801519	0
2	17800	7310.116030852416	1
2	17801	7310.569048815585	0
2	17810	7311.282902622594	1
2	17811	7312.03627125336	0
2	17820	7313.179910690132	1
2	17821	7313.419535869213	0
2	17885	7335.648900775074	1
2	17886	7336.335065301014	0
2	17895	7337.684540988763	1
2	17896	7338.216775364215	0
2	17950	7354.095674655516	1
2	17951	7354.416813478141	0
2	17960	7355.399326078493	1
2	17961	7356.0050866383	0
2	18040	7370.606334592137	1
2	18041	7371.334518585544	0
2	18055	7373.048322110281	1
2	18056	7373.513491553199	0
2	18060	7373.557192181578	1
2	18061	7374.305047782409	0
2	18070	7375.126007470288	1
2	18073	7375.530547353037	0
2	18082	7376.133387968081	1
2	18083	7376.827378163783	0
2	18090	7377.529201566922	1
2	18091	7377.781063174333	0
2	18145	7395.032083771479	1
2	18146	7395.989194867909	0
2	18165	7400.850394361451	1
2	18166	7401.216713445423	0
2	18325	7482.277198216977	1
2	18326	7482.562039488281	0
2	18395	7524.888529039876	1
2	18396	7525.463156396468	0
2	18455	7551.862722985695	1
2	18456	7551.884190711475	0
2	18520	7573.585132235306	1
2	18521	7574.111267914144	0
2	18595	7604.151769686945	1
2	18596	7604.313962842815	0
2	18605	7605.336070856076	1
2	18606	7605.691436294896	0
2	18669	7633.048223836961	1
2	18670	7633.07946035107	0
2	18679	7634.088341456551	1
2	18680	7634.516653450339	0
2	18695	7636.602695945134	1
2	18698	7637.223828039498	0
2	18790	7682.356780392928	1
2	18791	7682.455097020756	0
2	18885	7732.227705465827	1
2	18886	7732.748822695397	0
2	19015	7779.011580120866	1
2	19016	7779.156133641523	0
2	19050	7789.924867057797	1
2	19051	7790.318549858018	0
2	19055	7790.480530926124	1
2	19056	7790.774392543485	0
2	19062	7791.215410854875	1
2	19063	7791.293549039991	0
2	19067	7791.471219601001	1
2	19068	7792.169172772377	0
2	19075	7793.123381519682	1
2	19076	7793.335684302666	0
2	19115	7809.532202594046	1
2	19116	7809.580297942602	0
2	19120	7809.866461416921	1
2	19121	7810.351311187868	0
2	19240	7856.939545511007	1
2	19242	7856.971071457849	2
2	19243	7857.223941511326	1
2	19246	7857.865062575173	0
2	19250	7857.870551834835	1
2	19251	7858.558353783833	0
2	19255	7858.637484117662	1
2	19257	7858.798310206001	2
2	19258	7859.08468884564	1
2	19261	7859.557853792366	0
2	19265	7859.71211574819	1
2	19267	7859.900794948818	2
2	19268	7860.175551092057	1
2	19272	7860.231245399842	2
2	19273	7861.049627635619	1
2	19276	7861.56462749172	0
2	19287	7863.129610606344	1
2	19288	7863.2896510241	0
2	19310	7868.150993800467	1
2	19311	7868.330185381242	0
2	19315	7868.341646657815	1
2	19316	7868.854837286205	0
2	19322	7869.236371229692	1
2	19323	7869.549642995105	0
2	19355	7903.416381786188	1
2	19356	7904.099491537373	0
2	19365	7905.188800826424	1
2	19366	7905.609305016353	0
2	19497	7951.025738798701	1
2	19498	7951.40177523667	0
2	19505	7952.574150861544	1
2	19506	7952.967193836402	0
2	19580	7965.317679734782	1
2	19581	7965.956492437829	0
2	19670	7985.026403950387	1
2	19671	7985.60114080564	0
2	19675	7986.06844663614	1
2	19676	7986.265716664427	0
2	19680	7986.853605201096	1
2	19681	7987.081466934857	0
2	19705	8003.539310813509	1
2	19706	8003.946216251319	0
2	19710	8004.119981031361	1
2	19713	8004.760845257658	0
2	19765	8035.915344402806	1
2	19766	8036.586083703248	0
2	19775	8037.939892457775	1
2	19778	8038.641720388372	0
2	19787	8039.681799822312	1
2	19788	8040.335283883855	0
2	19825	8048.606280909107	1
2	19826	8049.173167042699	0
2	19835	8050.446541715812	1
2	19836	8051.033372831376	0
2	19850	8054.688021714014	1
2	19851	8055.063514502803	0
2	19875	8063.695072406699	1
2	19876	8063.775171507178	0
2	19890	8065.856142573739	1
2	19891	8066.215166888548	0
2	19900	8066.876239338541	1
2	19901	8067.142219610721	0
2	19905	8067.409838177661	1
2	19906	8067.849698133603	0
2	19910	8068.105369256741	1
2	19911	8068.434704122342	0
2	19920	8070.278864178626	1
2	19921	8070.862635737587	0
2	19925	8071.037241283676	1
2	19926	8071.28867575454	0
2	19930	8071.67124666572	1
2	19931	8071.851367515814	0
2	19935	8072.311554694051	1
2	19936	8072.768963186745	0
2	20160	8216.491814449005	1
2	20162	8216.622646191882	2
2	20163	8217.171507027284	1
2	20168	8218.167756888647	0
2	20172	8218.216131268315	1
2	20175	8218.807068282137	0
2	20230	8242.735812721043	1
2	20231	8242.753108427573	0
2	20235	8242.849403758497	1
2	20236	8243.308862113619	0
2	20295	8267.557462436835	1
2	20298	8267.867968908515	0
2	20307	8268.861670502945	1
2	20308	8269.203430174528	0
2	20315	8269.738743563328	1
2	20316	8270.116528175542	0
2	20340	8273.733184909642	1
2	20341	8273.829818044864	0
2	20370	8279.362086991472	1
2	20371	8279.862946735742	0
2	20385	8282.324630424954	1
2	20386	8283.014094154962	0
2	20410	8286.713686620384	1
2	20413	8287.396142261959	0
2	20420	8288.616638058769	1
2	20421	8289.041530745634	0
2	20430	8290.082187333588	1
2	20431	8290.275417487714	0
2	20450	8308.694944770687	1
2	20451	8309.303792884049	0
2	20465	8312.554664236995	1
2	20466	8312.625826767786	0
2	20520	8345.122348525684	1
2	20521	8345.416416190379	0
2	20575	8363.115418853399	1
2	20576	8363.348094973349	0
2	20610	8378.327883972957	1
2	20611	8378.750498112448	0
2	20757	8437.082359426383	1
2	20758	8437.093660959709	0
2	20765	8437.802139294066	1
2	20768	8438.166128545455	0
2	20807	8443.78373871894	1
2	20808	8444.03088812196	0
2	20875	8472.480932247432	1
2	20876	8472.99221629014	0
2	20882	8473.251730145962	1
2	20883	8473.96575013695	0
2	20890	8474.928783006086	1
2	20893	8475.706027497469	0
2	20925	8489.475149417198	1
2	20926	8490.027311276364	0
2	20937	8496.905573354465	1
2	20938	8497.565885763679	0
2	20965	8503.90034079125	1
2	20966	8504.065451870984	0
2	21050	8542.247623668211	1
2	21051	8542.325460503286	0
2	21090	8562.819424149893	1
2	21091	8563.380802859597	0
2	21145	8585.564194985593	1
2	21146	8585.748876921598	0
2	21190	8608.706964602545	1
2	21191	8609.25428073239	0
2	21195	8609.25561449004	1
2	21197	8609.66081051099	2
2	21198	8610.105964834992	1
2	21201	8610.913092404002	0
2	21220	8614.45414391125	1
2	21222	8614.5572249247	2
2	21223	8614.685541679182	1
2	21226	8615.242256662792	0
2	21230	8615.562439755717	1
2	21233	8616.153683200462	0
2	21250	8618.5552333976	1
2	21251	8618.85142799782	0
2	21260	8619.502322251356	1
2	21261	8619.993807703443	0
2	21305	8637.377991640975	1
2	21306	8637.841966896888	0
2	21370	8686.599466391413	1
2	21371	8687.036992424475	0
2	21410	8701.02144666283	1
2	21411	8701.214601897867	0
2	21425	8703.521636427616	1
2	21426	8703.805984273416	0
2	21435	8704.852444915636	1
2	21436	8705.1639063207	0
2	21465	8714.417286501337	1
2	21466	8714.833679704713	0
2	21475	8716.097460557276	1
2	21476	8716.52400952831	0
2	21480	8716.593756003626	1
2	21483	8717.152089864314	0
2	21487	8717.71420512459	1
2	21488	8718.145955622541	0
2	21495	8719.556482829894	1
2	21496	8719.556724008471	0
2	21685	8821.912184719347	1
2	21686	8822.32185511953	0
2	21700	8829.467617406417	1
2	21701	8829.837226679433	0
2	21770	8861.00004465999	1
2	21771	8861.130277833169	0
2	21867	8911.109449472837	1
2	21868	8911.431254805843	0
2	21885	8915.480983573828	1
2	21886	8916.30594824472	0
2	21925	8927.209248554616	1
2	21926	8927.275770309113	0
2	21935	8927.922303315568	1
2	21936	8928.532506340101	0
2	21940	8928.74517107355	1
2	21943	8929.304308225784	0
2	21947	8929.627551910166	1
2	21948	8929.796940311381	0
2	22040	8955.229441096679	1
2	22041	8956.019043316894	0
2	22055	8958.255385627712	1
2	22060	8958.585274565753	0
2	22069	8959.834120075026	1
2	22070	8960.157074984789	0
2	22095	8970.477196367972	1
2	22096	8970.497936882419	0
2	22110	8977.93729214519	1
2	22111	8978.016481795897	0
2	22115	8978.320296067246	1
2	22116	8978.980647787861	0
2	22135	8989.299756583489	1
2	22136	8989.646377568546	0
2	22160	8993.412642516281	1
2	22161	8993.671315270798	0
2	22172	8995.022562674553	1
2	22173	8995.060506264209	0
2	22182	8996.333876321625	1
2	22183	8996.748038720242	0
2	22235	9026.18402785846	1
2	22238	9026.830177245377	0
2	22309	9040.821876709771	1
2	22310	9040.94001262891	0
2	22317	9042.158841994292	1
2	22318	9042.17189698615	0
2	22530	9115.210447093406	1
2	22531	9115.775027496849	0
2	22537	9116.202316189486	1
2	22540	9116.723361334919	0
2	22544	9117.263689573366	1
2	22545	9117.307392570765	0
2	22549	9117.359116366362	1
2	22550	9117.943350570991	0
2	22557	9118.673478517291	1
2	22558	9119.404923106466	0
2	22642	9150.160566970144	1
2	22643	9150.602038062068	0
2	22735	9210.483681574118	1
2	22736	9210.496323491092	0
2	22760	9220.735523728065	1
2	22761	9220.784249103372	0
2	22795	9231.070055128119	1
2	22796	9231.465851461737	0
2	22880	9262.791564597398	1
2	22881	9262.800752808556	0
2	22950	9290.65487558275	1
2	22951	9290.880784355555	0
2	22970	9296.815269299218	1
2	22971	9297.437973255114	0
2	22982	9299.509032872467	1
2	22983	9299.783195405682	0
2	22987	9299.902651326514	1
2	22988	9300.217899756967	0
2	22995	9301.171970180408	1
2	22996	9301.688902203548	0
2	23025	9306.662370244818	1
2	23026	9306.983386794233	0
2	23090	9341.169854391172	1
2	23091	9341.719076857932	0
2	23102	9342.692929790143	1
2	23103	9343.315364230427	0
2	23107	9343.609729869262	1
2	23110	9343.937620303922	0
2	23150	9377.679307950783	1
2	23151	9378.344190429996	0
2	23210	9410.298130218704	1
2	23211	9410.529430791897	0
2	23232	9413.847847603608	1
2	23235	9414.476654578311	0
2	23302	9430.475422692194	1
2	23303	9430.811212702182	0
2	23307	9431.230345872725	1
2	23308	9431.262036708596	0
2	23340	9442.365182284858	1
2	23341	9442.856682216091	0
2	23460	9506.193773136952	1
2	23461	9506.650298952529	0
2	23592	9577.246592956961	1
2	23593	9577.760279832431	0
2	23602	9578.839543158378	1
2	23603	9578.917032041005	0
2	23650	9587.639257209416	1
2	23651	9588.076502987558	0
2	23970	9737.249028838397	1
2	23971	9738.026029765513	0
2	23985	9740.140285073155	1
2	23988	9741.082564719097	0
2	24040	9761.083957933471	1
2	24042	9761.609876104434	2
2	24043	9761.741267880755	1
2	24048	9762.558017723034	0
2	24052	9762.680679271943	1
2	24053	9763.529771318012	0
2	24057	9764.219586253325	1
2	24058	9764.228362874552	0
2	24065	9764.965112768972	1
2	24066	9765.318817766202	0
2	24135	9796.912781384375	1
2	24136	9797.380975561342	0
2	24170	9810.998909709061	1
2	24171	9811.414709277304	0
2	24175	9811.435094867468	1
2	24176	9811.907227524921	0
2	24180	9812.323900444568	1
2	24181	9812.837497037036	0
2	24210	9843.421974629015	1
2	24213	9844.034734591084	0
2	24390	9933.622601901637	1
2	24391	9934.016010193329	0
2	24435	9953.208657082657	1
2	24436	9953.975868066231	0
2	24440	9954.07856282569	1
2	24441	9954.577507081412	0
2	24487	9964.243648789509	1
2	24488	9964.246953961146	0
2	24500	9965.716819420733	1
2	24503	9966.474226852892	0
2	24584	9989.716772073308	1
2	24585	9990.549411877674	0
2	24592	9991.555535743868	1
2	24595	9991.847428212791	0
2	24630	10004.845467128819	1
2	24633	10005.175056424078	0
2	24685	10032.390533954637	1
2	24686	10032.429885108809	0
2	24695	10033.361103342175	1
2	24696	10033.851059429154	0
2	24957	10161.824580323168	1
2	24958	10162.005026076082	0
2	24990	10208.057763012128	1
2	24991	10208.23578749931	0
2	25035	10223.972882082424	1
2	25036	10224.331623847966	0
2	25070	10257.495253513288	1
2	25071	10257.745217943072	0
2	25230	10332.447133836433	1
2	25231	10332.968635407475	0
2	25355	10379.103599822453	1
2	25356	10379.342524791578	0
2	25365	10380.408149778387	1
2	25366	10380.659370948537	0
2	25385	10400.452808077457	1
2	25386	10400.680604031075	0
2	25475	10420.942794661426	1
2	25476	10421.289716454855	0
2	25535	10437.889577887406	1
2	25536	10438.294595545891	0
2	25540	10438.706770666958	1
2	25541	10438.944271999446	0
2	25615	10449.916803767216	1
2	25616	10450.115180214498	0
2	25725	10498.7056486754	1
2	25726	10499.041272752691	0
2	25735	10500.013313757471	1
2	25737	10500.17375449184	2
2	25738	10500.441506110463	1
2	25741	10501.394194128323	0
2	25785	10511.458377152404	1
2	25788	10511.57558415966	0
2	25845	10533.239200635614	1
2	25846	10533.932917243453	0
2	25962	10586.144550894313	1
2	25963	10586.595346916359	0
2	25970	10588.149694780685	1
2	25971	10588.216628662203	0
2	25980	10589.161628063636	1
2	25981	10589.965920375413	0
2	26090	10644.759315423939	1
2	26091	10644.97935930833	0
2	26257	10732.982450296502	1
2	26258	10733.351411731655	0
2	26320	10772.069436442512	1
2	26321	10772.486846915615	0
2	26380	10806.94523768267	1
2	26381	10807.692691268097	0
2	26415	10816.536771702485	1
2	26416	10816.906830511587	0
2	26420	10817.429289651889	1
2	26421	10817.891734616524	0
2	26460	10828.653528651357	1
2	26461	10829.241058712631	0
2	26477	10831.319847825067	1
2	26478	10831.704034166924	0
2	26535	10847.685590914831	1
2	26537	10847.924889739798	2
2	26538	10848.175458183348	1
2	26543	10848.80630985035	0
2	26625	10904.729143640824	1
2	26626	10904.937745666984	0
2	26635	10905.891924963278	1
2	26638	10906.225389017733	0
2	26660	10930.671182194402	1
2	26662	10930.736942381087	2
2	26664	10930.931444560014	3
2	26665	10931.137473964865	2
2	26670	10932.058266844448	1
2	26674	10932.148692647215	2
2	26675	10932.533384654193	1
2	26679	10932.58052914235	2
2	26680	10933.038256752386	1
2	26683	10933.941093206533	0
2	26689	10934.12388206909	1
2	26690	10934.56477272975	0
2	26795	10968.818847041809	1
2	26796	10969.048249463756	0
2	26810	10975.196461703128	1
2	26811	10975.509062213655	0
2	26860	10991.016627171159	1
2	26861	10991.713245907657	0
2	26865	10992.068065659715	1
2	26866	10992.12813012963	0
2	26872	10992.479807586388	1
2	26873	10992.988907229806	0
2	26877	10993.415275481387	1
2	26878	10993.854919914388	0
2	26882	10994.049281500542	1
2	26883	10994.310752644109	0
2	26990	11035.870355644531	1
2	26992	11035.991389311756	2
2	26993	11036.072212623879	1
2	26997	11036.298093242051	2
2	26998	11036.689539561076	1
2	27002	11036.92443074751	2
2	27003	11037.160862866072	1
2	27006	11037.970534914061	0
2	27157	11107.229516878078	1
2	27158	11107.284835698957	0
2	27172	11109.718126960753	1
2	27173	11110.025114227774	0
2	27180	11111.58294932577	1
2	27181	11111.723934866896	0
2	27330	11166.07289069725	1
2	27331	11166.406260559139	0
2	27350	11182.688124133922	1
2	27351	11183.464034098497	0
2	27420	11201.425057737775	1
2	27421	11201.516170943871	0
2	27442	11204.97259998891	1
2	27443	11205.192482288934	0
2	27465	11208.255642008448	1
2	27466	11209.194230039192	0
2	27470	11209.408852134967	1
2	27471	11210.129382507091	0
2	27560	11253.432306671882	1
2	27561	11253.505340346685	0
2	27572	11254.501983098581	1
2	27573	11254.90304833049	0
2	27635	11279.393184550786	1
2	27636	11279.865928185797	0
2	27737	11315.893516814806	1
2	27740	11316.408728150161	0
2	27760	11319.484987107689	1
2	27761	11319.53042135497	0
2	27772	11320.357820792129	1
2	27775	11320.909551245463	0
2	27786	11321.816869282989	1
2	27787	11322.430268663564	0
2	27862	11338.04162865133	1
2	27863	11338.15901880709	0
2	27890	11343.004479493573	1
2	27893	11343.535822962788	0
2	27897	11343.692182035861	1
2	27898	11344.182211043737	0
2	27902	11344.646177454453	1
2	27903	11344.748322740388	0
2	27907	11345.218004523276	1
2	27908	11345.335960388561	0
2	27915	11345.991802637419	1
2	27916	11346.535046534152	0
2	27925	11348.144726493586	1
2	27926	11348.168750600215	0
2	27930	11348.569930911012	1
2	27931	11348.608740388254	0
2	27937	11348.971725872364	1
2	27938	11349.020543042921	0
2	27942	11349.299506189535	1
2	27943	11349.451016227087	0
2	27947	11349.48071654585	1
2	27949	11350.068196032967	2
2	27950	11350.401527875127	1
2	27953	11350.954116875842	0
2	27957	11351.157636913134	1
2	27958	11351.913605759829	0
2	27962	11352.196787685356	1
2	27963	11352.319243416168	0
2	27970	11352.97224455734	1
2	27971	11353.332302943176	0
2	28105	11390.259654438056	1
2	28106	11390.263839375952	0
2	28115	11390.932146148954	1
2	28116	11391.530474503318	0
2	28145	11400.773684795831	1
2	28146	11400.938163027096	0
2	28150	11400.990996878603	1
2	28151	11401.46168733544	0
2	28155	11401.606472289816	1
2	28156	11402.039647032854	0
2	28165	11403.677947357788	1
2	28166	11404.166241199074	0
2	28220	11424.762895943549	1
2	28221	11424.92069013394	0
2	28230	11425.630544683037	1
2	28231	11426.216842186549	0
2	28240	11427.411532317086	1
2	28241	11427.793849941162	0
2	28247	11428.626520761029	1
2	28248	11428.71885889038	0
2	28252	11428.8451458164	1
2	28253	11429.376940505631	0
2	28257	11429.420727336242	1
2	28258	11430.037071016203	0
2	28262	11430.641786407859	1
2	28263	11430.880156735243	0
2	28267	11431.235917546966	1
2	28268	11431.481273660535	0
2	28272	11431.6793863184	1
2	28273	11431.900873765029	0
2	28277	11432.521532172488	1
2	28278	11432.782244786393	0
2	28282	11432.947518876643	1
2	28283	11433.228519945551	0
2	28287	11433.314547354653	1
2	28288	11433.823284573579	0
2	28297	11435.496551669332	1
2	28298	11435.617980428884	0
2	28305	11436.378747228774	1
2	28308	11437.06090815948	0
2	28315	11437.957207736707	1
2	28316	11438.198024136999	0
2	28330	11441.392279719185	1
2	28331	11441.968188761236	0
2	28350	11444.702040830997	1
2	28351	11445.101448187154	0
2	28450	11476.424524613645	1
2	28453	11476.831651110617	0
2	28475	11480.754049689433	1
2	28476	11481.527136204961	0
2	28487	11486.397912980266	1
2	28488	11486.411497011441	0
2	28495	11487.021392865542	1
2	28496	11487.826504079983	0
2	28510	11490.824613658611	1
2	28511	11491.520541282483	0
2	28525	11494.346117453627	1
2	28526	11494.563988950528	0
2	28540	11496.485855478383	1
2	28541	11497.150919027458	0
2	28550	11498.209616977944	1
2	28551	11498.992225435771	0
2	28560	11499.926529719111	1
2	28561	11500.861107495589	0
2	28572	11501.83759599177	1
2	28573	11502.287162405647	0
2	28589	11504.192569021885	1
2	28590	11504.648890905243	0
2	28599	11505.927612329135	1
2	28600	11506.014662009872	0
2	28609	11506.644199557453	1
2	28610	11507.041797853469	0
2	28619	11507.998458733848	1
2	28620	11508.462721681895	0
2	28647	11512.600474993182	1
2	28648	11512.951561334704	0
2	28705	11533.882642347373	1
2	28706	11534.185884973005	0
2	28735	11553.659166561494	1
2	28736	11553.980101929829	0
2	28740	11554.294168635754	1
2	28741	11554.701840085155	0
2	28770	11562.686698642624	1
2	28771	11562.759795460421	0
2	28905	11607.273964501426	1
2	28906	11607.930788388608	0
2	28910	11607.961325520794	1
2	28913	11608.343237056948	0
2	28925	11609.642281276739	1
2	28926	11610.120937402343	0
2	28930	11610.244704887566	1
2	28931	11610.661907940434	0
2	28935	11610.787216894068	1
2	28936	11611.527521724377	0
2	28950	11615.752965178634	1
2	28951	11615.939223842044	0
2	28955	11616.281793716848	1
2	28956	11616.506039103913	0
2	29065	11663.16321871824	1
2	29068	11664.010712300385	0
2	29075	11665.415583436965	1
2	29076	11665.430284510185	0
2	29087	11668.369147618109	1
2	29088	11668.430175739612	0
2	29092	11668.446854993252	1
2	29093	11669.346283894863	0
2	29260	11733.586504237769	1
2	29261	11733.822120458352	0
2	29270	11734.519739170064	1
2	29271	11735.183261586374	0
2	29320	11756.082898166219	1
2	29321	11756.457839690007	0
2	29330	11758.748751243943	1
2	29331	11759.060808680669	0
2	29340	11760.194526426674	1
2	29341	11760.684723164836	0
2	29360	11763.636094533435	1
2	29361	11763.813575435464	0
2	29372	11765.382343062118	1
2	29373	11765.386878197069	0
2	29395	11770.329579895326	1
2	29396	11770.64684198647	0
2	29410	11771.892926860799	1
2	29411	11772.213873670223	0
2	29420	11773.113044197222	1
2	29421	11773.239182542516	0
2	29457	11785.45429036787	1
2	29458	11785.699214268634	0
2	29462	11786.451873275156	1
2	29463	11786.477176079918	0
2	29470	11786.965164559137	1
2	29471	11787.749985296205	0
2	29482	11789.197587526475	1
2	29483	11789.214925348033	0
2	29595	11834.444596458417	1
2	29596	11834.805468351558	0
2	29685	11853.332205595913	1
2	29686	11853.375120495212	0
2	29745	11877.581861421095	1
2	29746	11878.11459128358	0
2	29750	11878.275771991694	1
2	29752	11878.489540476068	2
2	29753	11878.845970845684	1
2	29756	11879.480222029328	0
2	29780	11886.895661827193	1
2	29781	11887.787037043723	0
2	29850	11922.624230036659	1
2	29851	11923.099554155666	0
2	29855	11923.519911650135	1
2	29856	11923.599856944281	0
2	29865	11925.04193803068	1
2	29866	11925.885425411956	0
2	29920	11949.930503236258	1
2	29921	11949.935163794085	0
2	29940	11954.897314641385	1
2	29941	11955.381527037973	0
2	30020	12028.277478402952	1
2	30021	12028.435882331054	0
2	30100	12054.873917293692	1
2	30101	12055.356680383004	0
2	30110	12056.160380927034	1
2	30112	12056.547473873652	2
2	30113	12056.831681315072	1
2	30116	12057.74585036997	0
2	30120	12057.774317424376	1
2	30121	12058.414303138091	0
2	30125	12058.965203650062	1
2	30126	12059.152168935242	0
2	30142	12064.498013959486	1
2	30143	12064.753818487876	0
2	30154	12065.808469102213	1
2	30155	12065.898090452223	0
2	30310	12107.563664190958	1
2	30311	12107.920487594517	0
2	30332	12110.609141087568	1
2	30333	12111.240184020906	0
2	30575	12221.032462222879	1
2	30576	12221.323882510878	0
2	30635	12255.929525751632	1
2	30638	12256.263930760373	0
2	30642	12256.492624513524	1
2	30643	12257.246940776336	0
2	30647	12257.575085767697	1
2	30648	12257.708408891599	0
2	30652	12257.863707892347	1
2	30653	12258.161752766467	0
2	30705	12272.903600936026	1
2	30708	12273.387813669558	0
2	30715	12273.854368483971	1
2	30716	12274.746335748372	0
2	30742	12278.781395905449	1
2	30743	12279.451193593062	0
2	30750	12280.468063278887	1
2	30751	12280.636448143321	0
2	30860	12308.419281232857	1
2	30861	12308.570635353393	0
2	30870	12309.827891963377	1
2	30872	12309.942042775449	2
2	30873	12310.106582528065	1
2	30876	12310.848106155629	0
2	30880	12311.133304296452	1
2	30881	12311.791231416204	0
2	30890	12312.811687261209	1
2	30893	12313.256433746722	0
2	30905	12315.179693166639	1
2	30906	12315.39374435776	0
2	30924	12317.295252384518	1
2	30925	12317.544455637495	0
2	30932	12318.411052261881	1
2	30933	12318.717362596366	0
2	30944	12319.71123977312	1
2	30945	12320.369239918228	0
2	31050	12363.969204379783	1
2	31051	12364.28650340396	0
2	31170	12415.278918248886	1
2	31171	12415.750866990133	0
2	31180	12416.431178615955	1
2	31181	12416.918520278546	0
2	31230	12427.381073270829	1
2	31231	12427.573425133508	0
2	31252	12430.26593622721	1
2	31253	12430.356271695179	0
2	31487	12512.773606906634	1
2	31488	12513.008896213385	0
2	31502	12514.800136820711	1
2	31503	12515.223723140347	0
2	31745	12607.752461815714	1
2	31746	12607.831425438399	0
2	31760	12609.54949281438	1
2	31761	12609.875702477341	0
2	31775	12611.813633635823	1
2	31776	12612.051352347786	0
2	31785	12612.865173415776	1
2	31787	12612.989728033837	2
2	31790	12613.807570120905	1
2	31793	12614.329942763856	0
2	31797	12614.595246828827	1
2	31800	12615.118613965324	0
2	31804	12615.202786621979	1
2	31805	12616.117266565868	0
2	31811	12616.235783063054	1
2	31812	12616.656668187426	0
2	31825	12618.629099005949	1
2	31828	12619.205321390441	0
2	31910	12647.92614885967	1
2	31911	12648.374886105011	0
2	31965	12668.734123894591	1
2	31966	12668.803199042206	0
2	31970	12669.228745596185	1
2	31971	12669.532750162821	0
2	31975	12669.546536351922	1
2	31977	12669.946624816269	2
2	31978	12670.082499183494	1
2	31983	12670.9748992941	0
2	32020	12693.997088289876	1
2	32022	12694.157543577705	2
2	32023	12694.459816159473	1
2	32028	12694.934333254283	0
2	32035	12695.652373248543	1
2	32036	12695.896593786476	0
2	32047	12696.647386250026	1
2	32048	12697.336006461622	0
2	32057	12698.38428382865	1
2	32058	12698.934947276794	0
2	32100	12712.589728300275	1
2	32101	12712.670414887949	0
2	32110	12713.829256001939	1
2	32111	12714.108271560561	0
2	32130	12726.282536851942	1
2	32131	12726.45055897955	0
2	32167	12741.111865525616	1
2	32168	12741.486710470899	0
2	32235	12764.458758795654	1
2	32236	12764.990673546663	0
2	32245	12765.590918607888	1
2	32246	12766.048035880907	0
2	32330	12802.325571502477	1
2	32331	12802.326832999915	0
2	32410	12852.957092414357	1
2	32411	12853.839655838155	0
2	32435	12857.259514676276	1
2	32436	12858.073786624535	0
2	32460	12869.646168194359	1
2	32463	12870.064916514253	0
2	32482	12872.722873072468	1
2	32484	12873.436759211965	2
2	32485	12873.507510012876	1
2	32490	12874.233640147721	0
2	32496	12874.754431623208	1
2	32497	12874.807508903903	0
2	32504	12876.151795785384	1
2	32505	12876.151803564022	0
2	32555	12888.287460931369	1
2	32556	12888.888989994422	0
2	32565	12890.285600889948	1
2	32567	12890.344482646916	2
2	32568	12890.69264942876	1
2	32571	12891.445144670158	0
2	32575	12891.469040232031	1
2	32578	12892.133590364577	0
2	32665	12937.162468251628	1
2	32666	12937.633789546136	0
2	32685	12949.888653453178	1
2	32686	12950.130536819892	0
2	32720	12987.045475929659	1
2	32721	12987.530472587454	0
[...]
6	62660	25088.379989754674	2.388606521551
6	62665	25093.833528227208	0.605346183991
6	62690	25130.043024704264	0.505606384482
6	62700	25137.14032559799	0.628356557852
6	62717	25139.859340940809	1.525736379807
6	62735	25142.115349187583	1.737460085071
6	62760	25149.196241330481	0.820489228331
6	62780	25161.529527199556	2.469486326764
6	62820	25186.878492148555	5.934050283323
6	62830	25191.799472404215	0.560389557295
6	62915	25209.292977208977	0.999322519405
6	62935	25214.460256667064	3.354490857007
6	62945	25216.638600277427	0.77028853665
6	62970	25227.923319168674	0.992097801808
6	63007	25239.364391181548	2.921463836549
6	63057	25257.861930183152	1.30180070517
6	63087	25281.191376164173	1.845751105558
6	63090	25281.826037335479	4.602644029441
6	63095	25287.705092501985	0.898904275103
6	63110	25290.334608293324	2.536489432302
6	63115	25293.267312911657	0.435491190292
6	63130	25297.960614600351	0.784608852724
6	63165	25305.810922414883	1.503662912219
6	63185	25318.013469365193	1.411423129725
6	63239	25396.754509060235	3.682141773352
6	63255	25399.969258257737	3.686275795627
6	63265	25410.215063278429	0.773550168099
6	63280	25412.806146775279	2.081727072224
6	63292	25415.79644240992	0.779170198273
6	63305	25420.361342198113	1.409343732748
6	63334	25430.086060618144	0.917762875091
6	63337	25431.055686001387	1.28267766597
6	63355	25435.806313155103	2.997661992874
6	63365	25445.524432998091	0.75369407665
6	63409	25453.320966636961	1.36965996742
6	63412	25453.785028544873	1.119211841632
6	63437	25462.025732547626	2.606593500597
6	63445	25463.61120336594	5.766185307115
6	63465	25483.791129038499	2.192741217623
6	63495	25492.393863124964	1.928752667504
6	63539	25500.962978404098	0.959368543531
6	63577	25525.281913861217	0.727284917748
6	63580	25525.966572327776	0.824994249077
6	63585	25534.714770633613	0.838913424313
6	63620	25542.510726510476	2.191878298649
6	63625	25548.161443523917	0.739512163028
6	63657	25558.483633456218	3.990521646757
6	63681	25561.798735126748	0.491246964124
6	63704	25565.807182830629	6.644052162937
6	63707	25566.755764935921	1.448999158314
6	63735	25580.435909647299	0.894157219759
6	63772	25594.23225759653	0.793877987051
6	63777	25594.788133063667	7.110622782449
6	63782	25595.250044124375	0.84142240449
6	63820	25604.071456438109	4.425849856883
6	63830	25610.713820280786	1.369404576354
6	63835	25612.502443710267	0.442301693372
6	63844	25614.638701173219	0.780193292676
6	63847	25615.298057852102	0.888375572723
6	63870	25626.4859907579	2.650474610081
6	63900	25659.478840678514	1.535853319381
6	63985	25699.83340564581	1.246984668108
6	64010	25722.085247064704	0.78489197595
6	64035	25742.01967973494	0.996851230646
6	64089	25773.028368974394	2.784642523108
6	64122	25779.221927360748	1.575577089414
6	64145	25788.621373126314	1.658948126525
6	64180	25802.783042083124	4.786704833162
6	64232	25827.392746290314	0.873389684316
6	64271	25835.133347976275	1.08990169498
6	64284	25836.986674370824	1.879972428055
6	64310	25842.023755978752	3.08163463057
6	64332	25846.077177357373	1.178228568117
6	64347	25849.306842830967	0.464321165346
6	64387	25863.931760548179	0.724180815835
6	64400	25867.29437720603	0.405195653159
6	64405	25869.97428840914	0.46322991713
6	64425	25877.030826755859	1.983789175781
6	64457	25886.211797202015	0.870039125253
6	64480	25895.171033032615	2.432023487928
6	64559	25912.842525318295	4.026431419446
6	64635	25933.917548932968	3.664115486627
6	64651	25938.544444093406	0.913664426748
6	64654	25939.223318389496	1.152630237538
6	64677	25944.476178075297	0.634419771796
6	64727	25952.079396679486	5.016255659525
6	64780	25962.771296752198	4.254798472447
6	64820	25981.181046050753	7.038341498286
6	64845	25995.783306449977	0.946066486184
6	64874	26006.536207167283	2.038831605949
6	64890	26010.1313049031	6.999635872141
6	64920	26017.184782903833	2.238468370819
6	64964	26055.935975772913	1.090728699586
6	64980	26059.217719459548	5.754239636843
6	64985	26069.806733052231	0.667401071871
6	65032	26093.097325791565	1.031488888013
6	65042	26094.37857211801	0.604365370059
6	65060	26097.23050326172	7.485675497948
6	65075	26109.606675513195	1.749451666343
6	65090	26119.438794531901	0.817389261629
6	65110	26125.985276672671	4.995363198652
6	65142	26142.645760596415	1.192689876172
6	65152	26144.355983766646	1.191549240701
6	65200	26160.166794083302	0.518999492005
6	65210	26163.047421046124	1.261805048791
6	65217	26172.627867479907	0.923078843346
6	65237	26175.508176556626	1.298091060341
6	65259	26179.013796184584	0.780407852727
6	65262	26179.457268288079	0.795616363198
6	65284	26184.717845655164	1.693305089708
6	65300	26187.502420456639	0.770091553487
6	65312	26190.638199907713	0.849657394458
6	65327	26193.093396114609	1.004031142065
6	65362	26200.904573150773	3.873618152348
6	65375	26209.027485536941	0.845439730585
6	65385	26219.45693803986	0.776765591046
6	65415	26233.422228501184	5.390684825726
6	65425	26238.378505351885	2.02826370608
6	65435	26242.587295141169	1.697370935448
6	65457	26261.096482239813	0.70067592687
6	65470	26263.686471426419	0.921766579151
6	65495	26282.74209962535	1.401212977093
6	65510	26298.697148217923	0.816833925191
6	65585	26317.869307464234	0.64069740111
6	65615	26324.622874314153	3.465538696989
6	65620	26327.002040340229	0.523726656009
6	65645	26336.709983915889	3.502243987005
6	65671	26348.677749441573	2.09924687161
6	65674	26349.665591485155	2.685859108355
6	65705	26359.168678109565	2.425208348066
6	65712	26363.436105511485	0.895528113376
6	65717	26364.321552145256	1.611591006175
6	65735	26369.250846388668	1.306504333763
6	65740	26376.562271345097	0.614695233619
6	65780	26394.315584178845	1.035216248092
6	65840	26405.084717328196	2.56348609256
6	65845	26408.605716795703	0.697647263063
6	65860	26413.721280095018	2.351514712442
6	65865	26423.643845727403	0.830323557183
6	65872	26426.714668743299	0.861133082258
6	65892	26436.036552210153	0.656821045745
6	65895	26437.011645195727	1.622656458666
6	65907	26442.378029929344	1.071838267194
6	65932	26450.975153035444	1.336878255878
6	65945	26454.352980540009	0.74757440298
6	65982	26463.950182467959	1.997178982291
6	65985	26464.482420208472	2.068829704977
6	66037	26499.649726061201	0.429160800111
6	66112	26516.038290766535	9.919231247872
6	66150	26535.771830695062	0.681708906392
6	66167	26538.628370381132	1.132641476461
6	66180	26540.862328210301	4.460661905006
6	66217	26558.201397554974	3.695780184178
6	66235	26562.644075757726	0.577886794275
6	66267	26569.604070640726	0.887140443455
6	66290	26574.242050578091	3.846567822527
6	66300	26576.228912107814	1.050026953072
6	66310	26585.393030374393	0.810001538228
6	66320	26589.258873752529	1.136927822521
6	66330	26590.998181532088	1.48871255201
6	66335	26591.548811314283	0.475264496263
6	66350	26600.422452329596	0.910222359514
6	66377	26616.313858573959	0.443004709299
6	66380	26616.867522580578	3.00616423851
6	66472	26649.363182019011	3.453004960381
6	66487	26651.445621788882	2.694888029354
6	66494	26651.95397888474	0.796125424847
6	66515	26655.361821220869	2.245154074502
6	66572	26663.297721957053	6.773958387622
6	66607	26669.122265788601	3.808973918949
6	66610	26669.618021266503	2.461789172699
6	66630	26672.99332178009	0.875882628979
6	66645	26680.824904372566	2.096931498111
6	66657	26686.266399546541	2.134643499035
6	66709	26695.972687083315	4.742729700287
6	66712	26696.769732975885	1.510641702399
6	66725	26699.665613248177	5.459185241337
6	66730	26701.411320771472	0.677882133145
6	66735	26705.514138292358	0.8686052131
6	66740	26710.21721997109	0.785010378854
6	66752	26720.116575912776	0.519329518266
6	66757	26720.865510490554	0.752388013438
6	66808	26733.440859965865	3.304910655142
6	66821	26735.360670858227	2.075459681041
6	66831	26736.690337645427	3.542721954729
6	66841	26738.118547359367	6.74466131858
6	66935	26755.476586553547	9.406698024521
6	66965	26775.331158230863	0.565086238552
6	67005	26786.103651183926	1.901161144765
6	67046	26791.771734746623	3.892373225226
6	67051	26792.467269681658	4.368364590191
6	67075	26797.558877383639	0.851912057862
6	67117	26817.537226755456	2.850471114965
6	67125	26819.007654220483	8.578250281821
6	67170	26836.222172637207	5.819735285043
6	67215	26848.158951618006	1.086559550888
6	67242	26853.211852830346	2.503116498417
6	67300	26876.210932520503	3.28053318588
6	67310	26877.984223140339	1.381035856629
6	67319	26885.363462265906	0.735668878118
6	67322	26886.190744810783	1.392486614164
6	67337	26889.109050449787	1.429220089478
6	67367	26893.493290961235	4.893549421352
6	67437	26919.235295546261	0.683597478829
6	67445	26920.258150073254	0.997752798087
6	67460	26935.658029480575	0.671914008958
6	67465	26937.47843105458	0.598907548795
6	67470	26941.021635562393	0.476828657463
6	67500	26959.449967968208	0.744329011301
6	67505	26961.106498104938	0.814837690163
6	67510	26963.338520918512	0.98990283045
6	67530	26978.266589639658	0.75929780053
6	67570	26991.600733077222	3.382146796573
6	67582	26993.779736295441	2.097125232813
6	67594	26995.610574380543	1.863935323053
6	67609	26997.822761199811	2.635942678521
6	67681	27008.620516568837	2.582851049491
6	67694	27011.133991892957	3.16502138939
6	67715	27019.100155378958	2.060024248393
6	67720	27021.557738057836	0.844143142365
6	67755	27043.144515820739	3.494881463357
6	67762	27045.23257648752	0.867956325971
6	67817	27064.020216418029	0.871344180312
6	67820	27065.000748144248	2.705397870275
6	67895	27098.009378560226	2.228440337339
6	67922	27119.270709566434	1.717109138078
6	67930	27121.595015838656	2.700142482608
6	67987	27142.588837949448	7.685240841159
6	68030	27159.235621792662	1.1856079799
6	68035	27160.70944213564	0.636381115485
6	68080	27173.55519832724	0.693883488607
6	68165	27195.041815596347	0.606815730408
6	68240	27219.001055143851	0.712633140758
6	68285	27232.71283011673	3.947264639291
6	68350	27267.921635286589	3.659841260701
6	68435	27291.738209334714	3.204721753783
6	68455	27302.105202569898	0.782538591372
6	68460	27305.630896480435	0.562461487902
6	68475	27318.373567382866	0.5403085256
6	68487	27329.012361899256	0.842943024961
6	68495	27330.380421046534	2.188209945666
6	68520	27346.460466462402	1.484004820795
6	68627	27399.649184503794	2.073565233815
6	68665	27410.110778160744	3.704853326663
6	68672	27416.82400915794	0.887010104861
6	68685	27419.112017265278	2.924667713308
6	68727	27436.390587005137	0.982449930348
6	68760	27466.735360533856	1.402872857853
6	68777	27479.825848390364	1.192246313106
6	68790	27482.781100561461	1.088644831229
6	68795	27483.638056780089	2.227482239323
6	68850	27515.411928778316	0.42106649708
6	68865	27524.880272848625	1.741278809695
6	68880	27539.496507174949	0.992281969963
6	68914	27550.330743326031	3.405315659937
6	68917	27550.92790720986	1.025460531982
6	68950	27567.491636841567	0.58548641582
6	68960	27579.363399762437	0.965742685925
6	68970	27582.237693633658	1.741903142717
6	69014	27594.9455824003	5.269712767276
6	69019	27595.90266074407	6.612950107735
6	69030	27597.899356683848	5.46932853919
6	69055	27612.343895169	4.308978614688
6	69085	27630.954069989035	0.926033020532
6	69130	27651.249889881466	2.708658848734
6	69192	27674.350400881289	1.002642502688
6	69217	27697.043668754126	2.065827784873
6	69220	27697.609941370047	0.645583369731
6	69270	27713.578771350486	2.358230680002
6	69280	27715.322800828225	5.346773016134
6	69322	27746.009703063984	0.891288036713
6	69369	27769.607200032191	3.531716914014
6	69392	27773.722581165887	1.389149919356
6	69497	27792.181423891186	0.961102725431
6	69505	27793.564848025589	2.975817163139
6	69525	27799.569450382944	0.442683813302
6	69530	27812.11247534983	0.997450279677
6	69560	27826.341780353918	2.149111778345
6	69655	27869.989087573669	3.024955277749
6	69662	27874.505640963414	0.990232482459
6	69665	27875.104726107135	1.343084929987
6	69680	27878.7927127154	2.638894542099
6	69727	27893.53968440272	3.309586280318
6	69739	27895.453940631071	5.325145681373
6	69760	27899.382962127769	4.244322910992
6	69775	27920.28112905931	0.910357448133
6	69795	27924.198110137908	2.518062861285
6	69825	27941.200179142505	0.553954248456
6	69842	27946.930218328653	3.421301927672
6	69845	27947.494217646426	0.657782918782
6	69890	27961.987840818315	4.107764690268
6	69927	27978.350779137531	0.631477290159
6	69990	27993.582361317	1.452748717609
6	70000	27998.846061152349	2.589398151901
6	70059	28030.88662105529	0.946404903391
6	70062	28031.783315936712	6.441903473813
6	70100	28061.044722994647	2.513656627809
6	70109	28065.133147399115	0.816119338758
6	70119	28066.642337192769	1.640208977557
6	70127	28068.010306596231	3.369122701033
6	70142	28070.989300467015	0.931198737584
6	70145	28071.838466741877	6.273328520352
6	70150	28074.910739347158	0.88837242201
6	70170	28082.659163899988	1.467692511887
6	70175	28083.776525294954	0.812008142099
6	70190	28090.566417282381	2.553221095048
6	70212	28094.909939362051	1.109499021315
6	70220	28096.405524630409	2.952959547699
6	70250	28121.887437585904	1.215475487031
6	70255	28127.377862453121	0.867662994843
6	70265	28129.539345815931	1.177658770087
6	70275	28138.604505963939	2.166516038486
6	70300	28148.076391422648	1.685766519105
6	70310	28152.947978887115	0.503699300904
6	70325	28156.352617359881	3.253643316504
6	70350	28162.133787059202	2.446699853219
6	70365	28177.021765339761	2.60550499811
6	70417	28188.663300768001	0.73460053415
6	70420	28189.239538993075	7.619307010589
6	70430	28192.656417080274	1.457711462652
6	70437	28195.617640832657	0.853909537429
6	70440	28196.282990920156	0.703448400027
6	70445	28200.20271218132	0.993654529657
6	70450	28209.287759546544	0.682983316388
6	70490	28244.377491385244	1.797308159723
6	70500	28249.963571549086	1.372203300074
6	70542	28261.657251746816	0.542179173604
6	70614	28279.004147383791	1.300515171439
6	70625	28281.130894245431	4.512091451388
6	70645	28296.987256413408	0.448677424761
6	70675	28313.230563935547	2.096093183651
6	70732	28360.614862592013	0.851857949141
6	70745	28362.646404275214	3.739310952633
6	70752	28364.401402420444	0.90261257505
6	70755	28364.953868774078	1.191784067763
6	70825	28413.489852117544	3.253452148158
6	70830	28415.012673576191	0.640592063218
6	70855	28428.795260287238	2.682687502142
6	70860	28431.950164665562	0.937069514627
6	70887	28438.971516872368	2.419751920817
6	70890	28439.919841874655	3.980309173862
6	70910	28449.595195058178	0.536992939608
6	70950	28461.91411117943	5.329016920158
6	70964	28472.115476931309	1.544453800469
6	70980	28481.713468620379	1.391192892117
6	71010	28488.027570805761	5.314524280446
6	71020	28490.033379630611	1.54457363533
6	71045	28521.416809269201	0.462200801307
6	71057	28524.938983473424	1.94035182446
6	71149	28552.212544992426	3.178142188276
6	71154	28552.732557100476	2.26641370852
6	71202	28562.992994250969	2.569552860455
6	71225	28571.229600709802	0.851364452438
6	71237	28574.180071619045	1.285312277212
6	71247	28576.480583410384	3.96186213872
6	71270	28589.869584956891	2.031459047785
6	71290	28598.761974224878	3.301146152341
6	71362	28622.654917150699	1.330848460155
6	71367	28623.564829310505	5.449437296506
6	71402	28629.270432210035	4.322334236445
6	71435	28637.311199378028	0.861765470169
6	71480	28671.563260494431	1.110737478037
6	71502	28677.338403241298	1.578319405917
6	71515	28679.876098183795	5.029922679851
6	71532	28687.734192551523	2.259487436403
6	71545	28690.13372519676	2.927091095049
6	71550	28700.652715851793	0.709525485756
6	71560	28702.671457515154	1.90469821752
6	71600	28724.444524044435	1.310699750603
6	71607	28725.924656136647	0.611267064139
6	71629	28728.898803041796	3.442554938076
6	71652	28733.142457777508	1.299050426446
6	71662	28734.153401354615	7.724868407155
6	71676	28735.944654146636	4.485927981924
6	71689	28738.059611769355	4.135711298491
6	71692	28738.478554054964	1.2262231675
6	71775	28803.393584610335	4.325608277644
6	71795	28809.501446176904	1.006223450544
6	71855	28835.581632137007	0.693033646606
6	71867	28845.368234644746	1.219498441867
6	71875	28846.797551739652	3.186031143049
6	71880	28848.3581246969	0.428237461252
6	71890	28861.081728363629	0.503643774148
6	71912	28866.802734746533	4.83625103719
6	71939	28870.865167258941	5.909118422866
6	71942	28871.724762633006	1.630077656995
6	71962	28875.056522421618	8.101764520454
6	71990	28889.94726554014	4.518132605375
6	72032	28935.343675656791	0.888338943836
6	72040	28943.565878349897	0.662316970807
6	72045	28947.768902480638	0.70833449834
6	72070	28958.325482895037	1.684833393537
6	72085	28971.390621526623	2.265231310492
6	72125	28986.82904195044	4.972165945639
6	72135	28995.102913292524	0.438149319496
6	72177	29012.794000162009	1.158388792515
6	72185	29015.011152010381	0.472094071703
6	72217	29042.010303918112	0.969389813347
6	72237	29044.831150093045	2.17076651706
6	72269	29067.441625637048	0.887862755777
6	72305	29077.851153446038	0.655457608495
6	72315	29086.08753150612	0.868353071343
6	72320	29088.741795414631	0.435408401955
6	72335	29104.889122980317	0.476517590228
6	72390	29121.153989725102	6.573662444119
6	72405	29137.747684589886	1.915023998594
6	72460	29163.579678027436	0.445209116582
6	72485	29181.92328352923	2.098586585026
6	72525	29195.66619139653	0.950011301087
6	72535	29200.070176761673	1.629010693423
6	72540	29201.260444272836	0.507802255219
6	72555	29204.702317287918	2.416593236062
6	72574	29211.605999351609	1.561774514998
6	72597	29214.703856958786	5.531069554424
6	72600	29215.617843020113	1.724416451718
6	72657	29238.889158453188	0.422182941157
6	72682	29242.944287779142	3.618652495583
6	72754	29275.284600005209	5.535268559623
6	72757	29276.189118207342	1.543844036206
6	72787	29293.60438381437	0.723439934384
6	72835	29315.92003013879	0.478004194656
6	72862	29338.915480285636	2.105822415976
6	72875	29341.527428123349	5.901837259175
6	72930	29390.606539336912	0.584563734382
6	72951	29399.689813364201	1.516085756944
6	72984	29406.576903033769	0.947969525515
6	73055	29433.30140095563	0.860175065929
6	73060	29437.534524708912	0.938758951612
6	73092	29454.942571904282	2.460779073043
6	73100	29455.945281855533	2.744695269344
6	73105	29457.070101135762	4.087895648984
6	73115	29467.377689445921	0.8323754841
6	73120	29468.490207269457	0.504269624595
6	73175	29490.619131290902	1.072927186607
6	73184	29491.918271349376	0.837965120235
6	73275	29534.025907087646	0.803949138336
6	73285	29541.68003741141	1.197974287603
6	73332	29560.772365486381	0.790484084748
6	73350	29564.052309078689	3.958883670877
6	73395	29582.853310267618	0.609265287966
6	73400	29585.336392909567	0.622208646173
6	73405	29588.381916072705	0.822328545898
6	73457	29603.650718511057	0.717093560814
6	73460	29604.497155049837	6.719015906576
6	73465	29626.811414420708	0.483807478379
6	73470	29628.471373785013	0.89250810598
6	73477	29629.948801125826	0.630945136538
6	73507	29640.887274541435	1.554977857834
6	73525	29650.70993372376	0.627017147187
6	73540	29663.875010752867	1.354136147442
6	73545	29668.455137916552	0.919131916482
6	73555	29674.522574392796	1.702554309032
6	73565	29680.929331051727	0.440786601929
6	73625	29695.093138527809	2.026774164077
6	73659	29708.073950696201	2.518807606352
6	73797	29748.04100913879	3.697640737728
6	73802	29748.480711303358	1.243411377597
6	73815	29751.131358037479	0.56569016641
6	73869	29763.444762321687	0.683170993207
6	73892	29766.586043220348	1.246625595096
6	73895	29767.070833830591	1.094001675972
6	73970	29797.821408832318	0.879618743993
6	74085	29853.204090587491	1.354327449006
6	74107	29859.608426136088	4.229462722547
6	74110	29860.333732650739	0.798880820042
6	74146	29868.758062723106	4.120315758931
6	74151	29869.660997899309	1.724551241584
6	74164	29871.838204987826	5.556921488158
6	74240	29882.720415431785	1.026868386565
6	74243	29883.221499910683	1.511305612884
6	74350	29904.84271918286	1.358425212925
6	74365	29919.642411244789	0.448805762036
6	74377	29924.650198907871	0.921985951983
6	74385	29927.12334605462	0.52988038417
6	74430	29941.015229816173	0.704903289163
6	74524	29973.194479723681	2.367922930948
6	74555	29979.073804223587	0.466806636704
6	74577	29988.092759915078	2.308294978592

