version 2
run First_exit_9-16-20191114-11:42:37-8926
attr configname First_exit_9
attr datetime 20191114-11:42:37
attr experiment First_exit_9
attr inifile omnetpp.ini
attr iterationvars ""
attr iterationvarsf ""
attr measurement ""
attr network ResponseTimeNetwork
attr processid 8926
attr repetition 16
attr replication #16
attr resultdir results
attr runnumber 16
attr seedset 16
param **.Source.interArrivalTime exponential(4s)
param **.jobPriority bernoulli(0.4)
param **.PS.serviceTimeU1 "uniform(0.4s, 1.0s)"
param **.PS.serviceTimeU2 "uniform(1s, 1.2s)"
param **.SS1.serviceTime exponential(0.4s)
param **.SS2.serviceTime exponential(0.8s)
param **.PS.exitProbability bernoulli(0.9)

vector 0 ResponseTimeNetwork.SS1 queueLength:vector ETV
attr interpolationmode sample-hold
attr title "queue length, vector"
vector 1 ResponseTimeNetwork.QueueU1 queueLength:vector ETV
attr interpolationmode sample-hold
attr title "queue length, vector"
vector 2 ResponseTimeNetwork.QueueU2 queueLength:vector ETV
attr interpolationmode sample-hold
attr title "queue length, vector"
vector 3 ResponseTimeNetwork.sink lifeTimeU1:vector ETV
attr interpolationmode none
attr title "lifetime of arrived jobs U1, vector"
attr unit s
vector 4 ResponseTimeNetwork.sink totalServiceTimeU1:vector ETV
attr interpolationmode none
attr title "the total time spent  by arrived jobs U1, vector"
attr unit s
vector 5 ResponseTimeNetwork.sink lifeTime:vector ETV
attr interpolationmode none
attr title "lifetime of arrived jobs, vector"
attr unit s
vector 6 ResponseTimeNetwork.sink totalServiceTime:vector ETV
attr interpolationmode none
attr title "the total time spent  by arrived jobs, vector"
attr unit s
vector 7 ResponseTimeNetwork.SS2 queueLength:vector ETV
attr interpolationmode sample-hold
attr title "queue length, vector"
vector 8 ResponseTimeNetwork.sink lifeTimeU2:vector ETV
attr interpolationmode none
attr title "lifetime of arrived jobs U2, vector"
attr unit s
vector 9 ResponseTimeNetwork.sink totalServiceTimeU2:vector ETV
attr interpolationmode none
attr title "the total time spent  by arrived jobs U2, vector"
attr unit s
1	73018	10000.348575096139	3
1	73019	10000.427409863861	2
1	73023	10000.516497836415	3
1	73026	10001.173405480262	2
1	73030	10001.21884701861	3
1	73032	10001.221098824189	4
1	73033	10002.089935603289	3
1	73036	10002.816994831728	2
1	73040	10002.856541736995	3
1	73042	10002.882673514694	4
1	73043	10003.507813607499	3
1	73046	10004.132761610223	2
1	73050	10004.146395591243	3
1	73052	10004.657300245875	4
1	73053	10004.972023727855	3
1	73056	10005.695460160001	2
1	73060	10005.73488590732	3
1	73061	10006.669859770377	2
1	73065	10006.833418018304	3
1	73066	10007.602807709033	2
1	73070	10007.763311838351	3
1	73071	10008.584817227645	2
1	73075	10008.667601796507	3
1	73076	10009.573643128125	2
1	73081	10010.541165314306	1
1	73085	10011.098277125895	2
1	73086	10011.1904380697	1
1	73090	10011.606779385419	2
1	73092	10011.993182347904	3
1	73093	10012.075398809294	2
1	73097	10012.195214912234	3
1	73098	10012.962446918682	2
1	73102	10012.96876654043	3
1	73105	10013.786496313306	2
1	73108	10014.598880212212	1
1	73112	10014.75664306065	2
1	73113	10015.532024178438	1
1	73117	10015.664880081891	2
1	73118	10015.995445786201	1
1	73121	10016.430926595226	0
1	73125	10016.464136764702	1
1	73127	10016.708569957638	2
1	73128	10017.403646351228	1
1	73132	10017.437462282902	2
1	73133	10017.902317228558	1
1	73137	10018.155193920256	2
1	73138	10018.419798283063	1
1	73142	10018.449097681177	2
1	73143	10018.871151588641	1
1	73147	10018.933472357843	2
1	73148	10019.72371060198	1
1	73151	10020.410397433087	0
1	73155	10020.57442952864	1
1	73157	10020.64504030879	2
1	73158	10021.354085074661	1
1	73162	10021.474295268837	2
1	73165	10022.112276964092	1
1	73169	10022.139245834297	2
1	73170	10022.579089948551	1
1	73176	10023.251660224441	2
1	73177	10023.571152031996	1
1	73181	10024.161487874581	2
1	73182	10024.183541501282	1
1	73185	10024.665489886111	0
1	73189	10025.039557923909	1
1	73190	10025.642365361207	0
1	73196	10025.729773426054	1
1	73197	10026.121792265742	0
1	73201	10026.123149679723	1
1	73202	10027.112046261753	0
1	73206	10027.584836313933	1
1	73207	10027.995371558347	0
1	73211	10028.932848718297	1
1	73212	10028.962110286501	0
1	73216	10028.981354607846	1
1	73217	10029.721662131619	0
1	73221	10029.838547939185	1
1	73222	10030.717873770386	0
1	73229	10032.040113175824	1
1	73232	10032.450994333268	0
1	73241	10033.734989932986	1
1	73242	10033.782729914987	0
1	73249	10034.440312439198	1
1	73250	10034.978623540203	0
1	73261	10036.29632102197	1
1	73262	10036.795261367007	0
1	73300	10043.092892196056	1
1	73305	10043.999772907529	0
1	73314	10044.820408057257	1
1	73317	10045.614345358141	0
1	73331	10047.677144921395	1
1	73332	10047.74654673847	0
1	73343	10048.951810412295	1
1	73346	10049.325671700217	0
1	73352	10049.869374960182	1
1	73353	10049.974313194646	0
1	73362	10051.342439561052	1
1	73363	10051.661545188647	0
1	73367	10051.667083898598	1
1	73369	10051.984699950946	2
1	73370	10052.278436239638	1
1	73374	10052.358772111858	2
1	73375	10052.841615295565	1
1	73381	10052.870878931491	2
1	73382	10053.493789811913	1
1	73388	10053.95326487986	2
1	73389	10054.387164957604	1
1	73393	10054.532058811291	2
1	73394	10055.247354248042	1
1	73397	10055.782725035275	0
1	73403	10056.337671282315	1
1	73404	10056.353229820092	0
1	73411	10056.992655672121	1
1	73413	10057.221362984331	2
1	73415	10057.345686513442	3
1	73416	10057.736295541764	2
1	73419	10058.554082488936	1
1	73423	10058.72162408733	2
1	73425	10058.923439586951	3
1	73428	10059.391479651832	2
1	73432	10059.448341180734	3
1	73433	10059.935068870817	2
1	73437	10060.053522638937	3
1	73438	10060.933171010405	2
1	73442	10061.143966344756	3
1	73443	10061.427858794496	2
1	73447	10061.505368519209	3
1	73448	10062.198711037512	2
1	73452	10062.715381047395	3
1	73453	10062.872799389266	2
1	73456	10063.341055538521	1
1	73460	10063.345933507597	2
1	73462	10063.379796258111	3
1	73463	10064.17179909527	2
1	73466	10064.672294927357	1
1	73469	10065.230217709687	0
1	73473	10065.279377756521	1
1	73474	10066.014969845178	0
1	73478	10066.327091786272	1
1	73480	10066.640517059357	2
1	73481	10066.913610571172	1
1	73484	10067.358534109747	0
1	73488	10067.456941592949	1
1	73489	10068.202909307197	0
1	73493	10068.259003220796	1
1	73494	10069.195553837639	0
1	73498	10069.341027562258	1
1	73499	10069.606643883853	0
1	73503	10069.989060934059	1
1	73505	10070.175139311133	2
1	73507	10070.250771991231	3
1	73508	10070.368765615036	2
1	73511	10071.126593189935	1
1	73515	10071.667139138706	2
1	73516	10071.862430667101	1
1	73520	10072.026457210394	2
1	73522	10072.235722421592	3
1	73523	10072.551901827582	2
1	73527	10072.972129923075	3
1	73530	10073.350228743317	2
1	73534	10073.397534933274	3
1	73535	10074.335099997061	2
1	73539	10074.496669329983	3
1	73540	10074.98189925227	2
1	73544	10075.062878771095	3
1	73546	10075.862353951812	4
1	73547	10075.882183511617	3
1	73551	10075.9114129755	4
1	73552	10076.367548017638	3
1	73556	10076.71595650196	4
1	73557	10077.162051510221	3
1	73560	10078.146373626233	2
1	73563	10078.640973206439	1
1	73567	10078.751270304706	2
1	73569	10078.915657581063	3
1	73572	10079.255628856241	2
1	73576	10079.28691108098	3
1	73577	10080.230695910721	2
1	73581	10080.31025532985	3
1	73582	10080.782402490654	2
1	73586	10080.835690583514	3
1	73588	10081.468568294367	4
1	73589	10081.64518988637	3
1	73593	10081.93231672277	4
1	73594	10082.124377132735	3
1	73598	10082.407704607528	4
1	73599	10082.600252448597	3
1	73603	10082.825536618824	4
1	73604	10083.177797676685	3
1	73607	10083.83793997822	2
1	73611	10084.165343010984	3
1	73612	10084.72777274667	2
1	73616	10084.970503282567	3
1	73618	10085.41380785544	4
1	73619	10085.695368547055	3
1	73625	10086.092170570042	4
1	73626	10086.192656698001	3
1	73630	10086.776979475935	4
1	73631	10086.820228621846	3
1	73635	10087.12675686725	4
1	73636	10087.404860811092	3
1	73640	10087.646995161261	4
1	73642	10087.669253140274	5
1	73643	10087.967757891275	4
1	73647	10088.35109515322	5
1	73648	10088.500429600075	4
1	73652	10088.551626806904	5
1	73654	10088.676155450094	6
1	73655	10089.322351717128	5
1	73658	10089.734896760591	4
1	73662	10089.909709024194	5
1	73664	10090.056089524033	6
1	73665	10090.728546563972	5
1	73669	10090.751522519911	6
1	73670	10091.425056506291	5
1	73674	10091.817293623128	6
1	73675	10092.36778297128	5
1	73678	10093.053617234452	4
1	73682	10093.19854397397	5
1	73684	10093.423415413003	6
1	73685	10093.685285359592	5
1	73689	10093.931333985973	6
1	73690	10094.676892441203	5
1	73693	10095.226540893427	4
1	73697	10095.231434110181	5
1	73698	10096.197705426411	4
1	73701	10096.703381341574	3
1	73705	10096.903000894738	4
1	73707	10096.93515084679	5
1	73709	10097.279493778561	6
1	73710	10097.416577244708	5
1	73713	10098.39998348427	4
1	73717	10098.571909318187	5
1	73718	10099.044157257788	4
1	73722	10099.071597911637	5
1	73723	10099.621316851834	4
1	73729	10100.299048388801	5
1	73730	10100.305837504957	4
1	73734	10100.587279246208	5
1	73735	10100.969968104335	4
1	73739	10101.010029490284	5
1	73740	10101.578273032671	4
1	73744	10102.225562386842	5
1	73745	10102.369503476583	4
1	73749	10102.578725382842	5
1	73750	10103.092657851261	4
1	73754	10103.092895740235	5
1	73755	10103.686289915974	4
1	73759	10104.191347345736	5
1	73760	10104.282501193574	4
1	73763	10105.023722117646	3
1	73767	10105.118788673977	4
1	73768	10105.765495941528	3
1	73772	10106.360303798722	4
1	73773	10106.603077704386	3
1	73777	10106.605083529871	4
1	73778	10107.284291303876	3
1	73782	10107.534388354396	4
1	73783	10107.826874654946	3
1	73787	10108.119812954534	4
1	73788	10108.552978223209	3
1	73792	10109.039717274644	4
1	73793	10109.397843148858	3
1	73796	10110.367395813224	2
1	73800	10110.579929568377	3
1	73801	10110.857363127937	2
1	73804	10111.546329137377	1
1	73808	10112.023797395668	2
1	73809	10112.19378229391	1
1	73813	10112.63360339979	2
1	73814	10112.803561895314	1
1	73818	10112.81670512863	2
1	73819	10113.319769892815	1
1	73823	10114.003244823526	2
1	73824	10114.141916902616	1
1	73828	10114.291076982561	2
1	73829	10114.868547983581	1
1	73833	10114.898199953249	2
1	73834	10115.577556453153	1
1	73838	10115.830572892063	2
1	73839	10116.473639554271	1
1	73843	10116.555856706081	2
1	73844	10117.370582716885	1
1	73847	10117.904471013947	0
1	73854	10118.7431480025	1
1	73856	10119.163146298431	2
1	73857	10119.183181426321	1
1	73861	10119.261718209115	2
1	73862	10119.633203564976	1
1	73868	10120.089681744615	2
1	73869	10120.375145857148	1
1	73873	10120.864116406604	2
1	73874	10121.201457322221	1
1	73878	10121.556970729501	2
1	73879	10121.807524441806	1
1	73883	10122.060403248599	2
1	73886	10122.775517887221	1
1	73890	10123.252230736525	2
1	73891	10123.392698390753	1
1	73895	10123.842187205974	2
1	73896	10124.098239044164	1
1	73899	10124.510838682594	0
1	73906	10125.390490449254	1
1	73907	10125.866927235637	0
1	73914	10126.729452350852	1
1	73916	10126.919675188766	2
1	73917	10127.17144489602	1
1	73923	10127.61151216995	2
1	73926	10127.895353258092	1
1	73929	10128.363983780162	0
1	73933	10128.468024886206	1
1	73935	10128.491970889034	2
1	73937	10128.634276771888	3
1	73938	10129.129955639101	2
1	73942	10129.306643320396	3
1	73943	10129.761615745833	2
1	73947	10129.838817465186	3
1	73948	10130.206679298932	2
1	73952	10130.345889123537	3
1	73954	10130.96365098769	4
1	73956	10131.087746567926	5
1	73957	10131.108218661946	4
1	73961	10131.211944526638	5
1	73962	10131.905197239591	4
1	73966	10132.072925424153	5
1	73967	10132.494777385023	4
1	73971	10132.5298024096	5
1	73972	10133.045597927103	4
1	73976	10133.232161291167	5
1	73978	10133.405521418446	6
1	73979	10133.606704774143	5
1	73983	10134.432833080965	6
1	73984	10134.490590016933	5
1	73988	10134.957122562011	6
1	73989	10135.480811383033	5
1	73992	10135.914543973205	4
1	73996	10135.994722120125	5
1	73998	10136.307463695157	6
1	73999	10136.629719446197	5
1	74002	10137.16746307506	4
1	74006	10137.293354421711	5
1	74008	10137.304205699776	6
1	74009	10137.633266299467	5
1	74014	10138.477171263068	4
1	74018	10138.495993076693	5
1	74021	10138.948594445146	4
1	74025	10139.568743081789	5
1	74026	10139.86152357796	4
1	74032	10140.212468848712	5
1	74033	10140.432560222193	4
1	74037	10140.677502117762	5
1	74039	10140.979745592467	6
1	74040	10141.320189096888	5
1	74044	10141.413776337165	6
1	74045	10141.934524361712	5
1	74048	10142.50682074215	4
1	74052	10143.018755216509	5
1	74054	10143.061276704578	6
1	74055	10143.457385343422	5
1	74059	10143.532870246313	6
1	74060	10144.132904860998	5
1	74064	10144.140973523513	6
1	74065	10144.660888072351	5
1	74069	10144.679887387562	6
1	74072	10145.543664504463	5
1	74076	10145.863099113436	6
1	74077	10146.063477833724	5
1	74083	10146.826853800157	6
1	74084	10146.885762891515	5
1	74088	10146.982879476761	6
1	74089	10147.410314564423	5
1	74093	10147.477996966489	6
1	74096	10148.183191299129	5
1	74099	10148.963757345795	4
1	74103	10149.149555192458	5
1	74104	10149.421365564752	4
1	74108	10149.724538307824	5
1	74109	10150.233334960106	4
1	74113	10150.334259167196	5
1	74114	10150.771391251979	4
1	74118	10150.886300648862	5
1	74119	10151.468970848078	4
1	74123	10151.753497629722	5
1	74126	10152.269205247348	4
1	74130	10152.630180840155	5
1	74131	10153.057627653394	4
1	74136	10153.859096068161	3
1	74139	10154.65617401704	2
1	74143	10154.722753507458	3
1	74145	10155.285894165944	4
1	74146	10155.496010006003	3
1	74149	10155.905717247182	2
1	74152	10156.608656630448	1
1	74156	10156.652942116284	2
1	74158	10157.018046555353	3
1	74159	10157.125137552774	2
1	74162	10157.718287788533	1
1	74166	10158.41588683885	2
1	74168	10158.674094216535	3
1	74169	10158.698514673455	2
1	74172	10159.601144950806	1
1	74176	10160.06721666495	2
1	74177	10160.10211935939	1
1	74180	10161.02854151299	0
1	74184	10161.726155047406	1
1	74185	10161.751966033054	0
1	74192	10162.506456234748	1
1	74194	10162.643370541501	2
1	74196	10162.716576282909	3
1	74198	10162.870951237809	4
1	74199	10163.209603832585	3
1	74204	10163.934137514808	2
1	74208	10164.128218694801	3
1	74209	10164.38738968928	2
1	74213	10164.416523284448	3
1	74214	10165.224256660339	2
1	74219	10166.000579873255	1
1	74222	10166.589075577833	0
1	74226	10166.730601642472	1
1	74227	10167.449072797518	0
1	74231	10167.646372799716	1
1	74233	10167.660662513312	2
1	74234	10168.102977280427	1
1	74237	10168.667833459346	0
1	74244	10169.138195438709	1
1	74245	10169.926144768034	0
1	74252	10170.649425102364	1
1	74253	10171.519660782644	0
1	74262	10172.080913047929	1
1	74265	10172.494422255519	0
1	74274	10173.523476137355	1
1	74277	10174.341675203822	0
1	74304	10177.813573781287	1
1	74307	10178.407952770374	0
1	74311	10178.494960980961	1
1	74314	10179.336861108772	0
1	74324	10180.74060498759	1
1	74326	10180.973074175787	2
1	74327	10181.305658826249	1
1	74330	10181.984071682783	0
1	74334	10182.246066448179	1
1	74335	10182.801167429442	0
1	74339	10183.297556792643	1
1	74340	10183.356143581931	0
1	74344	10183.687612510102	1
1	74347	10184.085523444478	0
1	74351	10184.357677061636	1
1	74352	10184.638770653697	0
1	74356	10184.883849127203	1
1	74359	10185.448975227185	0
1	74363	10185.640843394315	1
1	74364	10186.009489640471	0
1	74368	10186.244337156152	1
1	74369	10186.888759831962	0
1	74373	10187.263084692165	1
1	74374	10187.42625073024	0
1	74378	10187.733792608253	1
1	74383	10188.30684228029	0
1	74387	10188.359036682072	1
1	74388	10188.791391785228	0
1	74392	10189.056033889833	1
1	74393	10189.676646556118	0
1	74397	10190.189721372458	1
1	74398	10190.310735555384	0
1	74402	10190.929722343632	1
1	74403	10191.010334346369	0
1	74407	10191.598560823714	1
1	74408	10191.637925187331	0
1	74412	10191.648436435608	1
1	74413	10192.225705323806	0
1	74425	10193.788029309644	1
1	74428	10194.132341947425	0
1	74528	10209.061793016078	1
1	74531	10209.259284857633	0
1	74538	10210.049926034518	1
1	74541	10210.427915462545	0
1	74545	10210.826821584163	1
1	74550	10211.343105980168	0
1	74554	10211.650532118116	1
1	74555	10212.039374586959	0
1	74559	10212.114620278925	1
1	74560	10212.449874811499	0
1	74564	10212.493299471182	1
1	74567	10213.19904418692	0
1	74573	10213.729879902058	1
1	74574	10213.78288604945	0
1	74580	10214.053697270331	1
1	74581	10214.57204198923	0
1	74587	10214.892382333542	1
1	74588	10215.227259188816	0
1	74729	10235.262284874748	1
1	74730	10235.578429225433	0
1	74741	10236.61591495821	1
1	74742	10236.829313259732	0
1	74748	10236.949949948287	1
1	74751	10237.469293207509	0
1	74760	10238.046994882892	1
1	74763	10238.421543181754	0
1	74772	10239.208585411387	1
1	74773	10239.900294612601	0
1	74780	10240.503579636883	1
1	74781	10240.772371867692	0
1	74788	10242.196272378397	1
1	74793	10242.551121241061	0
1	74800	10243.310949392845	1
1	74804	10243.92891336005	2
1	74805	10244.020835502699	1
1	74810	10244.772287260994	0
1	74816	10245.029781870893	1
1	74817	10245.217086229121	0
1	74821	10245.483004837231	1
1	74822	10245.913169876925	0
1	74826	10246.249016562505	1
1	74827	10246.653502087082	0
1	74831	10247.463207559853	1
1	74832	10247.51229660215	0
1	74836	10248.135820829947	1
1	74837	10248.507278726643	0
1	74841	10248.586573734485	1
1	74844	10249.271086594017	0
1	74848	10249.63922496434	1
1	74849	10249.902126300355	0
1	74856	10250.635643212532	1
1	74858	10250.870953215677	2
1	74860	10250.881174215568	3
1	74861	10251.351719584662	2
1	74864	10252.0908153536	1
1	74871	10252.63804886413	0
1	74875	10252.651349251689	1
1	74876	10253.554138651138	0
1	74880	10254.009943237411	1
1	74883	10254.510136797532	0
1	74887	10254.787405062441	1
1	74888	10255.229606428902	0
1	74892	10255.234199485654	1
1	74893	10255.925945085912	0
1	74897	10256.043767093219	1
1	74898	10256.598773295638	0
1	74904	10257.306275210475	1
1	74905	10257.488738167352	0
1	74912	10258.254402197943	1
1	74913	10258.945380043677	0
1	74920	10259.645536449658	1
1	74922	10260.066168073154	2
1	74923	10260.266694574637	1
1	74928	10261.260983838441	0
1	74935	10261.820880956186	1
1	74938	10262.272562635618	0
1	74945	10263.05835785355	1
1	74946	10263.880175998828	0
1	74955	10265.355970315725	1
1	74956	10265.558999925547	0
1	74967	10266.662813376648	1
1	74968	10267.418564183472	0
1	75005	10272.881085024856	1
1	75008	10273.080181507647	0
1	75018	10274.685739378058	1
1	75019	10275.06382381131	0
1	75030	10276.456133899742	1
1	75031	10276.894680575021	0
1	75040	10277.673335610568	1
1	75041	10278.060494649243	0
1	75050	10279.079567112091	1
1	75051	10279.460666341913	0
1	75060	10280.386726866144	1
1	75061	10280.392528048177	0
1	75070	10282.015377769087	1
1	75071	10282.197457182287	0
1	75086	10284.212155365172	1
1	75087	10284.594991538694	0
1	75096	10285.156060421433	1
1	75099	10285.868237785457	0
1	75110	10287.106394056521	1
1	75111	10287.135933804161	0
1	75118	10288.340011081445	1
1	75119	10288.413622740538	0
1	75136	10290.594442052533	1
1	75141	10291.369440831173	0
1	75151	10293.178888031479	1
1	75154	10293.48036073956	0
1	75163	10293.941449007125	1
1	75164	10294.710089069021	0
1	75173	10295.460518444042	1
1	75176	10296.241239125303	0
1	75188	10297.470690385473	1
1	75191	10298.125745605652	0
1	75198	10299.036180005617	1
1	75199	10299.414890935107	0
1	75208	10300.228280308644	1
1	75209	10300.97158421336	0
1	75218	10301.511444107327	1
1	75220	10301.765758716589	2
1	75221	10302.158678419117	1
1	75224	10302.638338188708	0
1	75228	10302.658060772725	1
1	75231	10303.484867657649	0
1	75235	10303.886027408533	1
1	75236	10304.02816953717	0
1	75240	10304.238485592585	1
1	75241	10304.722352128822	0
1	75245	10304.733551836264	1
1	75246	10305.308448314827	0
1	75250	10305.365189477983	1
1	75253	10306.075647781158	0
1	75257	10306.310387697546	1
1	75258	10306.621572472874	0
1	75262	10307.195265645576	1
1	75263	10307.559575339101	0
1	75267	10307.647197887804	1
1	75268	10308.209877660425	0
1	75272	10308.528673543523	1
1	75273	10309.139918866261	0
1	75277	10309.68236601617	1
1	75278	10310.134943290028	0
1	75282	10310.70230942469	1
1	75283	10310.915607897119	0
1	75287	10311.07149077109	1
1	75288	10311.86221495892	0
1	75292	10312.183559233999	1
1	75293	10312.416037166837	0
1	75297	10312.533401474312	1
1	75299	10312.594641446964	2
1	75300	10313.024243001799	1
1	75305	10313.49574580567	0
1	75309	10313.617537052448	1
1	75310	10314.375789821726	0
1	75314	10314.391060116278	1
1	75315	10315.294423979447	0
1	75319	10315.308051516373	1
1	75320	10315.975948934509	0
1	75324	10316.145520281692	1
1	75325	10316.726558107436	0
1	75329	10316.938570675324	1
1	75330	10317.584335246655	0
1	75334	10317.890009595879	1
1	75335	10318.463884918178	0
1	75339	10318.840289852309	1
1	75340	10319.442868436194	0
1	75347	10320.192234309802	1
1	75349	10320.444930237842	2
1	75350	10320.66967840015	1
1	75355	10321.388411319089	0
1	75362	10322.467695112197	1
1	75363	10323.287411272778	0
1	75370	10324.112093558108	1
1	75373	10324.841334801559	0
1	75385	10326.36273243636	1
1	75388	10326.656245289064	0
1	75400	10328.252128158039	1
1	75402	10328.267508117897	2
1	75405	10328.920730573517	1
1	75414	10329.561552522164	0
1	75418	10329.576741550188	1
1	75421	10330.541898561847	0
1	75431	10331.999940725478	1
1	75434	10332.406494745678	0
1	75446	10334.013198928431	1
1	75447	10334.224714284642	0
1	75454	10334.928688202908	1
1	75457	10335.160508539174	0
1	75464	10335.815077073396	1
1	75465	10336.693273649757	0
1	75907	10400.187396699213	1
1	75912	10400.813405664047	0
1	75995	10412.420540694604	1
1	75996	10412.447540312227	0
1	76012	10413.944248478616	1
1	76014	10413.986806215226	2
1	76015	10414.231276853535	1
1	76018	10414.86348330892	0
1	76022	10415.443208256916	1
1	76023	10415.463317409776	0
1	76027	10415.496458348935	1
1	76030	10416.29240207571	0
1	76043	10417.575025166879	1
1	76046	10417.864129035607	0
1	76178	10435.979217769045	1
1	76179	10436.13484450161	0
1	76189	10437.881721504171	1
1	76190	10437.977206082982	0
1	76205	10440.169186299941	1
1	76206	10440.537320011821	0
1	76215	10441.868769528692	1
1	76216	10442.101720552159	0
1	76223	10442.805506700736	1
1	76226	10443.370827913344	0
1	76492	10480.49247572283	1
1	76493	10480.903804491382	0
1	76559	10489.605763352409	1
1	76560	10489.979641370023	0
1	76575	10492.472582722379	1
1	76576	10492.759958235654	0
1	76587	10493.345223371974	1
1	76588	10494.325310786408	0
1	76597	10495.179766882231	1
1	76598	10495.845965650086	0
1	76611	10498.156503143003	1
1	76614	10498.918359598717	0
1	76620	10499.182200999814	1
1	76621	10499.459644217896	0
1	76627	10499.592871285262	1
1	76630	10500.087437919914	0
1	76634	10500.528047768448	1
1	76637	10500.884173595594	0
1	76644	10501.298214681986	1
1	76646	10501.501254057451	2
1	76648	10501.578685416059	3
1	76649	10501.847126128493	2
1	76652	10502.368800032387	1
1	76662	10503.053576206803	2
1	76663	10503.105553902608	1
1	76667	10503.465437899528	2
1	76668	10503.965431168039	1
1	76672	10504.243351506095	2
1	76673	10504.558344817876	1
1	76677	10505.07750421762	2
1	76680	10505.453801665238	1
1	76684	10505.680449942643	2
1	76685	10506.27767645979	1
1	76689	10506.572357149946	2
1	76690	10506.788684373597	1
1	76694	10506.997701351332	2
1	76696	10507.533087702336	3
1	76697	10507.688055916751	2
1	76701	10507.849683608248	3
1	76702	10508.5373620934	2
1	76706	10508.934484518814	3
1	76707	10509.260615328295	2
1	76711	10509.754218852203	3
1	76712	10509.779709742	2
1	76716	10509.858028313783	3
1	76717	10510.279133136119	2
1	76721	10510.697099132642	3
1	76722	10510.988122034646	2
1	76726	10511.33838272833	3
1	76727	10511.618013466769	2
1	76731	10511.786501979501	3
1	76732	10512.114831939307	2
1	76735	10512.683771695956	1
1	76739	10512.748989400672	2
1	76740	10513.091399912644	1
1	76744	10513.551676594643	2
1	76745	10513.95594098467	1
1	76749	10513.976032026374	2
1	76750	10514.833045851314	1
1	76754	10514.962438915658	2
1	76756	10515.009216193417	3
1	76757	10515.623623651327	2
1	76760	10516.49199514302	1
1	76764	10516.76890258143	2
1	76765	10517.448908532332	1
1	76769	10517.818378988304	2
1	76770	10518.082464038828	1
1	76773	10518.521928497931	0
1	76780	10520.079649181192	1
1	76781	10520.401634417349	0
1	76785	10520.690757165761	1
1	76786	10520.810720990194	0
1	76790	10520.822389531069	1
1	76791	10521.671804150395	0
1	76799	10522.567631783672	1
1	76800	10522.641406246895	0
1	76804	10523.189116916441	1
1	76805	10523.456961107222	0
1	76809	10523.603383459616	1
1	76810	10523.953443541858	0
1	76814	10524.266703630757	1
1	76816	10524.313497080945	2
1	76817	10524.749006480878	1
1	76821	10525.047014708169	2
1	76822	10525.241380954409	1
1	76825	10525.917733529225	0
1	76829	10525.985659899658	1
1	76830	10526.50439972404	0
1	76834	10526.506193017478	1
1	76835	10527.23714703267	0
1	76992	10549.441121363605	1
1	76993	10549.506421121642	0
1	77002	10550.479406229636	1
1	77003	10550.809417813191	0
1	77010	10551.449949680319	1
1	77012	10552.115471086537	2
1	77013	10552.204973750342	1
1	77018	10552.859081089557	0
1	77025	10553.69447134919	1
1	77026	10554.152002876126	0
1	77035	10555.312139165489	1
1	77037	10555.586018988434	2
1	77038	10555.645485693323	1
1	77043	10556.51116321186	0
1	77047	10556.768451448025	1
1	77048	10557.246126373265	0
1	77052	10557.377013513425	1
1	77053	10558.106078639546	0
1	77062	10559.542988580087	1
1	77063	10559.551144690871	0
1	77072	10560.596916674501	1
1	77073	10560.817341487309	0
1	77080	10561.702836750133	1
1	77081	10562.340249285581	0
1	77090	10563.62519385704	1
1	77091	10564.079534453958	0
1	77095	10564.294535201797	1
1	77096	10564.862669665985	0
1	77103	10565.721254435855	1
1	77106	10565.996393208871	0
1	77117	10567.054505081012	1
1	77119	10567.25501998732	2
1	77121	10567.371504889098	3
1	77122	10567.508701889836	2
1	77127	10568.009869554094	1
1	77130	10568.616112501281	0
1	77134	10569.041414954851	1
1	77137	10569.082025737608	0
1	77141	10569.10866899911	1
1	77142	10569.618182605984	0
1	77146	10569.720907345631	1
1	77147	10570.305326051325	0
1	77151	10571.12364278817	1
1	77152	10571.134183869711	0
1	77156	10571.13527064589	1
1	77158	10571.148321274328	2
1	77159	10571.669366531693	1
1	77166	10572.474854822144	0
1	77172	10572.83225622834	1
1	77173	10573.310139964068	0
1	77177	10573.512151901023	1
1	77178	10573.947063504498	0
1	77182	10574.120716364828	1
1	77183	10574.609665171256	0
1	77187	10575.157203502694	1
1	77188	10575.301983672347	0
1	77192	10575.549705461286	1
1	77194	10576.228009431339	2
1	77195	10576.235498102069	1
1	77199	10576.744708050268	2
1	77200	10577.189303181753	1
1	77203	10578.044609405067	0
1	77207	10578.05609702684	1
1	77208	10578.625125854103	0
1	77212	10578.855006565128	1
1	77213	10579.25075320044	0
1	77222	10580.168198156734	1
1	77223	10580.247363677075	0
1	77232	10581.116330578502	1
1	77233	10581.538088461071	0
1	77239	10582.383446894425	1
1	77240	10582.391363180116	0
1	77247	10583.005864977973	1
1	77249	10583.380507013068	2
1	77250	10583.385691305589	1
1	77253	10583.796968719469	0
1	77262	10584.685940634565	1
1	77263	10585.092271728174	0
1	77269	10585.270949810275	1
1	77270	10585.890892771597	0
1	77277	10586.530363653852	1
1	77278	10587.011530136608	0
1	77287	10588.114807720267	1
1	77288	10588.303876885085	0
1	77297	10589.231020993541	1
1	77298	10589.593022844859	0
1	77307	10590.959000933866	1
1	77308	10591.252781770437	0
1	77319	10592.335588058839	1
1	77320	10592.746608269972	0
1	77355	10597.753236866675	1
1	77358	10598.455067613872	0
1	77362	10598.739207506095	1
1	77365	10599.296277496649	0
1	77369	10599.507894999277	1
1	77370	10599.910658671532	0
1	77374	10599.931746506658	1
1	77377	10600.679490819445	0
1	77384	10601.623072602586	1
1	77387	10601.773746677872	0
1	77391	10601.790546236512	1
1	77394	10602.717921999527	0
1	77398	10602.890213088841	1
1	77399	10603.202561474975	0
1	77403	10603.52499070612	1
1	77404	10603.736127617361	0
1	77408	10604.012738380417	1
1	77409	10604.583364994602	0
1	77416	10605.36495112983	1
1	77417	10605.515536456613	0
1	77429	10607.302705951281	1
1	77430	10607.404992840265	0
1	77450	10609.692606381511	1
1	77451	10610.001309965936	0
1	77460	10610.490813165535	1
1	77462	10610.613231940813	2
1	77463	10610.942507717166	1
1	77466	10611.630894616585	0
1	77475	10612.631965061274	1
1	77477	10612.798726882018	2
1	77478	10613.036074085687	1
1	77483	10613.572834966718	0
1	77490	10614.341839586964	1
1	77491	10614.449969133934	0
1	77495	10614.945883232925	1
1	77496	10615.288993443143	0
1	77502	10615.931167257406	1
1	77503	10616.014909550002	0
1	77507	10616.181141159911	1
1	77508	10616.688904998977	0
1	77512	10617.105000119769	1
1	77513	10617.451654680273	0
1	77517	10617.680038203953	1
1	77518	10618.128204380269	0
1	77522	10618.752105837862	1
1	77523	10618.974235223899	0
1	77527	10619.284598460402	1
1	77528	10619.570481953737	0
1	77532	10619.626514670723	1
1	77533	10620.524363467996	0
1	77537	10620.588086771856	1
1	77538	10621.452151286476	0
1	77542	10621.46666167822	1
1	77543	10621.948787012011	0
1	77547	10622.132740074619	1
1	77548	10622.752840034537	0
1	77552	10622.84974774257	1
1	77554	10623.112202184547	2
1	77555	10623.342532838335	1
1	77559	10623.505187140631	2
1	77560	10624.125948451845	1
1	77564	10624.290870316343	2
1	77565	10624.995491663892	1
1	77569	10625.184957047791	2
1	77572	10625.723146219518	1
1	77576	10626.120536890107	2
1	77577	10626.271571372928	1
1	77581	10626.31806286419	2
1	77582	10627.052937240632	1
1	77586	10627.39065411898	2
1	77587	10627.831553183742	1
1	77591	10627.8411101579	2
1	77592	10628.796661578644	1
1	77596	10628.832826867691	2
1	77597	10629.771659180675	1
1	77600	10630.695602068179	0
1	77607	10631.303935676161	1
1	77609	10631.591890537775	2
1	77610	10631.688915236401	1
1	77615	10632.181957683214	0
1	77619	10632.67504904748	1
1	77620	10633.181392577817	0
1	77624	10633.334439654273	1
1	77625	10634.091303237123	0
1	77629	10634.442701762216	1
1	77631	10634.698805759607	2
1	77632	10634.854573875634	1
1	77636	10635.090824347388	2
1	77637	10635.531605261253	1
1	77641	10635.79033359615	2
1	77642	10636.11561999369	1
1	77646	10636.449025799277	2
1	77647	10636.985858384441	1
1	77651	10637.338554166562	2
1	77652	10637.6540231825	1
1	77655	10638.230554235928	0
1	77659	10638.631482561222	1
1	77660	10638.745378289433	0
1	77667	10639.449002785812	1
1	77669	10639.673832121088	2
1	77670	10640.165522704102	1
1	77673	10640.910725020725	0
1	77677	10641.068052503004	1
1	77680	10641.319686020925	0
1	77684	10641.492557070989	1
1	77685	10642.119461556399	0
1	77689	10642.237362896219	1
1	77690	10642.650536814114	0
1	77694	10643.023869689078	1
1	77695	10643.470278117541	0
1	77699	10643.783780330246	1
1	77700	10644.356060204576	0
1	77707	10645.206776191106	1
1	77708	10645.710410822802	0
1	77727	10648.214722148339	1
1	77728	10648.416304510054	0
1	77735	10649.282863448636	1
1	77736	10649.637156779845	0
1	77782	10655.530881865496	1
1	77783	10655.559191992287	0
1	77792	10656.420492305691	1
1	77793	10656.540462569673	0
1	77797	10656.738779669544	1
1	77800	10657.493544349507	0
1	77812	10659.01543967502	1
1	77816	10659.152292930789	2
1	77817	10659.500377342165	1
1	77822	10660.353638048903	0
1	77826	10660.716206527184	1
1	77827	10661.020215960606	0
1	77831	10661.402316915641	1
1	77833	10661.421124090521	2
1	77834	10661.572304887897	1
1	77838	10662.073335151311	2
1	77839	10662.367053175778	1
1	77843	10662.57138884804	2
1	77844	10662.874997730288	1
1	77848	10663.348935374235	2
1	77849	10663.564101599544	1
1	77853	10663.572530096409	2
1	77854	10664.177762704124	1
1	77857	10664.952509649718	0
1	77861	10665.323287217206	1
1	77862	10665.538203197313	0
1	77866	10665.940423552373	1
1	77867	10666.134976804504	0
1	77871	10666.187086816768	1
1	77872	10666.959070862938	0
1	77876	10667.15755166038	1
1	77877	10667.779441525756	0
1	77881	10668.20490342813	1
1	77882	10668.724728944913	0
1	77889	10669.364186374445	1
1	77891	10669.642255707533	2
1	77892	10669.772799325796	1
1	77895	10670.660927427901	0
1	77903	10670.760322801953	1
1	77904	10671.068505086904	0
1	77910	10671.255228138802	1
1	77913	10671.702098817812	0
1	77919	10672.323741061542	1
1	77920	10672.61647582186	0
1	77924	10672.998557840691	1
1	77925	10673.1768856079	0
1	77932	10673.802292054249	1
1	77933	10674.445791622359	0
1	77942	10675.389918493882	1
1	77943	10675.752615896162	0
1	77954	10676.43645224814	1
1	77956	10676.480018506171	2
1	77957	10677.077624736695	1
1	77960	10677.482815139151	0
1	77964	10677.933416185095	1
1	77966	10677.942523549802	2
1	77967	10677.983903620408	1
1	77971	10678.252205788404	2
1	77972	10678.685360236901	1
1	77976	10678.687292722301	2
1	77977	10679.225806653748	1
1	77981	10679.253202308736	2
1	77982	10679.631796941922	1
1	77986	10680.327236910493	2
1	77987	10680.40002504477	1
1	77990	10681.2513520213	0
1	77994	10681.490720276579	1
1	77995	10682.223797770372	0
1	78002	10683.346924761407	1
1	78004	10683.374303933844	2
1	78005	10683.475124283383	1
1	78008	10683.894779503081	0
1	78012	10684.003104840923	1
1	78015	10684.688189615231	0
1	78019	10684.977801687593	1
1	78020	10685.193076194419	0
1	78024	10685.513882721948	1
1	78025	10685.910479979745	0
1	78029	10686.014685162129	1
1	78030	10686.9063041086	0
1	78034	10687.131054172181	1
1	78035	10687.571354860456	0
1	78042	10688.535986340323	1
1	78043	10688.589033019932	0
1	78052	10689.982762769286	1
1	78054	10690.045323954094	2
1	78056	10690.347964013391	3
1	78057	10690.429458162391	2
1	78062	10691.010753849165	1
1	78066	10691.282601992724	2
1	78067	10691.838558032007	1
1	78070	10692.439290128478	0
1	78074	10692.865602231553	1
1	78076	10692.869908893152	2
1	78078	10692.908712873076	3
1	78079	10693.292275758895	2
1	78083	10693.339545448268	3
1	78084	10694.290748672669	2
1	78087	10695.063529455678	1
1	78091	10695.547242195402	2
1	78092	10695.561638134874	1
1	78095	10695.973436455119	0
1	78099	10696.108584940276	1
1	78101	10696.220526716796	2
1	78102	10696.545764127856	1
1	78106	10696.589624323427	2
1	78107	10697.235326570056	1
1	78111	10697.248900692318	2
1	78112	10698.200561570672	1
1	78116	10698.482855192249	2
1	78117	10698.731345813458	1
1	78121	10698.978274944634	2
1	78122	10699.472602300688	1
1	78126	10699.757954395535	2
1	78127	10700.013791895069	1
1	78131	10700.111135122881	2
1	78134	10700.481966420233	1
1	78138	10700.536639000846	2
1	78139	10701.167961039131	1
1	78143	10701.221070213032	2
1	78144	10701.996001995092	1
1	78148	10701.998130551463	2
1	78150	10702.100067038823	3
1	78153	10702.597878837835	2
1	78157	10702.870404194371	3
1	78158	10703.568672446597	2
1	78162	10703.777535177446	3
1	78163	10704.367040179966	2
1	78167	10704.426702301217	3
1	78168	10704.890641591761	2
1	78172	10704.944886285483	3
1	78173	10705.860194202343	2
1	78177	10706.071602894183	3
1	78178	10706.29337484936	2
1	78182	10706.46698684539	3
1	78185	10706.836118512151	2
1	78189	10707.087622647432	3
1	78190	10707.598684699617	2
1	78196	10708.136863504655	3
1	78197	10708.532122041115	2
1	78200	10709.267438504768	1
1	78203	10710.125443443719	0
1	78207	10710.451520707273	1
1	78209	10710.66091905854	2
1	78210	10710.792304830549	1
1	78216	10710.981463197514	2
1	78218	10711.269814288457	3
1	78219	10711.280693487281	2
1	78223	10711.592050623268	3
1	78224	10711.941223784599	2
1	78228	10712.2661501155	3
1	78229	10712.412809693085	2
1	78233	10712.75928735847	3
1	78234	10713.066486855706	2
1	78238	10713.148579875361	3
1	78239	10713.555597582243	2
1	78242	10714.189762094074	1
1	78248	10714.330048734837	2
1	78249	10714.865125451486	1
1	78253	10714.915608111147	2
1	78254	10715.595438697764	1
1	78258	10715.603165287814	2
1	78259	10716.31535560481	1
1	78262	10716.84644887747	0
1	78266	10717.152380577934	1
1	78267	10717.431837777251	0
1	78271	10717.493764619333	1
1	78272	10717.950225107854	0
1	78279	10718.84295279844	1
1	78282	10719.315650385076	0
1	78299	10720.878657407303	1
1	78300	10721.693888001393	0
1	78311	10722.430695392735	1
1	78312	10722.689869574473	0
1	78326	10724.510796269356	1
1	78327	10724.56927394957	0
1	78343	10726.511894522948	1
1	78344	10726.647350617607	0
1	78353	10727.53462912313	1
1	78354	10727.737780846625	0
1	78370	10729.157501534793	1
1	78371	10729.504586358152	0
1	78383	10730.812381663294	1
1	78384	10731.711591133817	0
1	78397	10732.914368743942	1
1	78400	10733.345235002336	0
1	78409	10734.188789720955	1
1	78411	10734.436772891915	2
1	78412	10734.663550121772	1
1	78415	10735.442121944359	0
1	78419	10735.537749811642	1
1	78422	10736.22516113009	0
1	78426	10736.657904687139	1
1	78427	10737.001692592089	0
1	78438	10738.157659211303	1
1	78441	10738.382609375675	0
1	78450	10740.091560623632	1
1	78451	10740.179960002952	0
1	78470	10743.085025961211	1
1	78471	10743.169207434045	0
1	78478	10744.504801195397	1
1	78479	10744.604618425729	0
1	78490	10745.643870212355	1
1	78491	10746.406070300626	0
1	78497	10746.958168805783	1
1	78498	10747.31094889931	0
1	78502	10747.891130209594	1
1	78503	10747.918811524954	0
1	78507	10748.254833847104	1
1	78508	10748.406010914376	0
1	78512	10749.026272848503	1
1	78513	10749.349120312059	0
1	78517	10749.393364415945	1
1	78518	10750.006002647817	0
1	78522	10750.320946681812	1
1	78523	10750.500207488021	0
1	78529	10751.029103193848	1
1	78530	10751.397110088371	0
1	78534	10751.846605846149	1
1	78535	10752.323194355021	0
1	78539	10752.699889702122	1
1	78540	10753.098044810134	0
1	78544	10753.349316180956	1
1	78545	10753.7606983666	0
1	78552	10754.733204819221	1
1	78553	10755.683082100252	0
1	78557	10755.899224215529	1
1	78560	10756.490295437506	0
1	78564	10756.712550979303	1
1	78566	10756.923060330437	2
1	78567	10757.488597458244	1
1	78571	10758.099417442116	2
1	78572	10758.152672594987	1
1	78576	10758.2749819299	2
1	78577	10758.685091223676	1
1	78580	10759.164128409108	0
1	78584	10759.446442687035	1
1	78585	10759.742512172149	0
1	78589	10759.872380130103	1
1	78590	10760.508081995757	0
1	78600	10761.986264602215	1
1	78602	10762.065801511974	2
1	78603	10762.230798009285	1
1	78607	10762.469018424428	2
1	78612	10763.030513575734	1
1	78616	10763.270083969313	2
1	78617	10763.463231874179	1
1	78621	10763.601797403912	2
1	78622	10764.416676840201	1
1	78626	10764.54192895305	2
1	78627	10765.382360313568	1
1	78631	10765.562276227695	2
1	78632	10765.910145200431	1
1	78635	10766.348792228257	0
1	78644	10767.213469521585	1
1	78645	10767.679125668729	0
1	78651	10767.747497709613	1
1	78652	10768.594268989811	0
1	78665	10770.813468067027	1
1	78666	10771.192673383668	0
1	78676	10771.902246225715	1
1	78677	10772.101597038811	0
1	78681	10772.239661084011	1
1	78683	10772.306706426989	2
1	78685	10772.769450270967	3
1	78686	10773.01988118027	2
1	78691	10773.945920446018	1
1	78695	10774.131359257832	2
1	78696	10774.396604487222	1
1	78700	10774.725438215059	2
1	78701	10775.272545833109	1
1	78704	10775.7437598047	0
1	78713	10776.769245168601	1
1	78714	10777.280430927981	0
1	78718	10777.300225629833	1
1	78720	10777.312045040136	2
1	78721	10777.960561409142	1
1	78724	10778.940683042925	0
1	78730	10779.368767209092	1
1	78731	10779.521277097488	0
1	78735	10779.530898906209	1
1	78736	10780.300222171253	0
1	78743	10781.110568043623	1
1	78744	10781.508872241449	0
1	78754	10782.447739991734	1
1	78755	10782.866375319814	0
1	78764	10783.621171979609	1
1	78767	10784.156054118569	0
1	78780	10785.01954035392	1
1	78783	10785.364939130717	0
1	78792	10786.751822893253	1
1	78795	10786.844917665762	0
1	78802	10787.360979389065	1
1	78807	10788.271883222661	0
1	78814	10789.291931530333	1
1	78817	10789.7559058156	0
1	78831	10791.792003665117	1
1	78832	10792.511769814291	0
1	78841	10793.540523426513	1
1	78842	10793.955251626824	0
1	78851	10794.73539577726	1
1	78852	10795.264443754745	0
1	78864	10796.79797006052	1
1	78867	10797.657568632919	0
1	78873	10798.269761331007	1
1	78874	10798.600719647171	0
1	78878	10798.965477876076	1
1	78879	10799.54194980512	0
1	78883	10799.863330210549	1
1	78884	10800.150756430175	0
1	78888	10800.154373392963	1
1	78889	10800.818434107924	0
1	78893	10801.301695984584	1
1	78894	10801.583739696086	0
1	78898	10801.596747904109	1
1	78899	10802.565699856325	0
1	78906	10803.256064959188	1
1	78908	10803.259446319665	2
1	78909	10803.60605219795	1
1	78912	10804.018047626751	0
1	78916	10804.259030036185	1
1	78917	10804.609154964999	0
1	78924	10805.033955319201	1
1	78926	10805.297073507523	2
1	78927	10805.434125082862	1
1	78931	10805.464243760899	2
1	78932	10805.957885660991	1
1	78936	10806.296437059421	2
1	78939	10806.620229452491	1
1	78942	10807.428414740429	0
1	78946	10807.743301736255	1
1	78947	10808.07574377299	0
1	78954	10808.695251861473	1
1	78955	10809.095218349218	0
1	78959	10809.171988579116	1
1	78961	10809.183413660417	2
1	78964	10810.081555778317	1
1	78968	10810.182124453637	2
1	78969	10811.044740460643	1
1	78972	10811.896928538445	0
1	78976	10812.304479304877	1
1	78977	10812.339535942737	0
1	78981	10812.584287959971	1
1	78982	10812.83968426042	0
1	78986	10812.950972073223	1
1	78987	10813.773030975664	0
1	78994	10814.979328216734	1
1	78995	10815.5215046541	0
1	79004	10816.785536346415	1
1	79005	10817.119167022703	0
1	79024	10819.578591222473	1
1	79025	10820.187554246716	0
1	79035	10821.98601965674	1
1	79040	10822.679192657273	0
1	79049	10823.881920528128	1
1	79050	10824.075324558716	0
1	79066	10825.411157944731	1
1	79067	10825.561500451497	0
1	79074	10826.618296931044	1
1	79077	10827.236268140438	0
1	79086	10828.114890914757	1
1	79087	10828.668249450407	0
1	79096	10829.246093972448	1
1	79097	10829.908347962254	0
1	79236	10850.661574769094	1
1	79241	10851.412107448762	0
1	79252	10852.892374102518	1
1	79253	10852.991256190946	0
1	79265	10854.492282891459	1
1	79268	10855.070383169565	0
1	79275	10855.836016561483	1
1	79276	10856.695574813678	0
1	79287	10857.757649315067	1
1	79288	10857.859284016971	0
1	79297	10859.120160543381	1
1	79299	10859.156112261926	2
1	79300	10859.400400336754	1
1	79303	10859.81766499017	0
1	79312	10861.13948692114	1
1	79314	10861.324754620959	2
1	79315	10861.382856720841	1
1	79318	10862.319239157733	0
1	79322	10862.578441034945	1
1	79323	10862.827800315354	0
1	79329	10863.367024818428	1
1	79330	10863.667243146818	0
1	79334	10864.358774407103	1
1	79335	10864.522996983599	0
1	79339	10865.353381473612	1
1	79340	10865.397762364257	0
1	79347	10866.452979400498	1
1	79348	10866.867921380154	0
1	79357	10867.79230751733	1
1	79358	10868.13765221803	0
1	79373	10869.294920003065	1
1	79374	10869.545905432306	0
1	79384	10870.898088917579	1
1	79385	10870.992569674753	0
1	79399	10872.334411026063	1
1	79402	10872.923050486219	0
1	79444	10879.357161640253	1
1	79445	10879.823690318239	0
1	79456	10881.585637332229	1
1	79457	10881.65551759835	0
1	79472	10882.695946655656	1
1	79473	10883.317668363142	0
1	79480	10884.35181960652	1
1	79481	10885.033857011392	0
1	79490	10885.969276266257	1
1	79491	10886.465730692276	0
1	79502	10887.839745210601	1
1	79503	10888.075800720478	0
1	79512	10888.518198433115	1
1	79517	10889.166144502738	0
1	79537	10891.450998272409	1
1	79539	10891.647906889036	2
1	79542	10892.156810061418	1
1	79547	10892.83548665719	0
1	79556	10893.944749624676	1
1	79558	10894.143914233018	2
1	79561	10894.36037565574	1
1	79564	10894.946028973693	0
1	79571	10896.128196806843	1
1	79573	10896.24743184564	2
1	79576	10896.864846704593	1
1	79579	10897.503459328152	0
1	79585	10897.677907670216	1
1	79586	10897.937510427851	0
1	79590	10898.10490706951	1
1	79591	10898.774574571308	0
1	79595	10899.021744459962	1
1	79596	10899.208595406609	0
1	79600	10899.324318488989	1
1	79603	10899.738996362007	0
1	79607	10900.13867961605	1
1	79610	10900.493553449047	0
1	79614	10900.738545727579	1
1	79616	10900.79674124149	2
1	79617	10900.941512277602	1
1	79621	10901.066335041012	2
1	79622	10901.643150720206	1
1	79625	10902.236133770664	0
1	79629	10902.779942020962	1
1	79630	10902.992792963023	0
1	79634	10903.520810121928	1
1	79635	10903.626741627856	0
1	79639	10903.829138919737	1
1	79641	10904.134662446927	2
1	79642	10904.363364317939	1
1	79646	10904.505083146104	2
1	79647	10904.806791979047	1
1	79651	10904.963201169407	2
1	79653	10905.070683674884	3
1	79654	10905.368758497825	2
1	79657	10906.019878244558	1
1	79661	10906.55914278894	2
1	79663	10906.69331826041	3
1	79664	10906.988603291958	2
1	79668	10907.011557262498	3
1	79670	10907.344468277799	4
1	79671	10907.711914500007	3
1	79675	10907.943874410364	4
1	79678	10908.409738514218	3
1	79682	10908.626240700748	4
1	79684	10908.807191480924	5
1	79685	10909.104580737622	4
1	79689	10909.510617457539	5
1	79690	10909.534064348572	4
1	79694	10909.592216437098	5
1	79696	10909.96434421109	6
1	79698	10910.173938216847	7
1	79699	10910.190210728365	6
1	79702	10910.633529106499	5
1	79705	10911.253566097672	4
1	79708	10912.156812340132	3
1	79714	10912.618928572461	4
1	79716	10912.696142621818	5
1	79718	10912.970282490964	6
1	79719	10913.137619922887	5
1	79723	10913.269289149952	6
1	79724	10913.80750840946	5
1	79728	10913.872994140014	6
1	79729	10914.50676888043	5
1	79732	10914.956280001411	4
1	79735	10915.387489444269	3
1	79739	10915.439394001691	4
1	79741	10915.464781566627	5
1	79742	10915.921214295896	4
1	79746	10916.085011143876	5
1	79749	10916.678962442344	4
1	79753	10916.734467236906	5
1	79754	10917.233829290904	4
1	79759	10917.911695047347	3
1	79763	10918.459310567189	4
1	79765	10918.742643052535	5
1	79766	10918.895172269754	4
1	79770	10919.019398107536	5
1	79771	10919.589970589727	4
1	79775	10919.865926564837	5
1	79776	10920.100373748243	4
1	79780	10920.652767144213	5
1	79781	10920.672955858261	4
1	79785	10920.687541432001	5
1	79786	10921.396127046059	4
1	79789	10921.796559764325	3
1	79793	10922.158857673603	4
1	79794	10922.707552074009	3
1	79798	10922.770426743527	4
1	79800	10922.793774064931	5
1	79801	10923.497288661051	4
1	79805	10923.851547154705	5
1	79806	10923.924698279865	4
1	79809	10924.740493695645	3
1	79813	10924.976621410745	4
1	79815	10924.993964877381	5
1	79817	10925.081809101933	6
1	79818	10925.649217880911	5
1	79822	10925.900755411438	6
1	79825	10926.427946956663	5
1	79828	10927.072501194405	4
1	79834	10927.65429950029	5
1	79836	10927.771211746344	6
1	79837	10927.833171328178	5
1	79841	10928.160405373284	6
1	79842	10928.830134491736	5
1	79846	10928.964879520337	6
1	79847	10929.559114950869	5
1	79851	10929.67524147029	6
1	79852	10930.027756178446	5
1	79860	10930.686111640808	6
1	79861	10930.890726691086	5
1	79865	10931.035834947993	6
1	79867	10931.249120713469	7
1	79868	10931.454149556879	6
1	79872	10931.903659479199	7
1	79873	10931.992511009678	6
1	79877	10932.424200327666	7
1	79878	10932.644916579893	6
1	79881	10933.485423879113	5
1	79885	10933.846209047682	6
1	79886	10934.304623335388	5
1	79890	10934.811627459586	6
1	79891	10934.841313086192	5
1	79895	10934.8803375675	6
1	79896	10935.47771578396	5
1	79899	10935.991784471807	4
1	79903	10936.083195723472	5
1	79906	10936.47591972465	4
1	79910	10936.822871887235	5
1	79912	10936.851229897536	6
1	79913	10937.020254696648	5
1	79917	10937.062920368917	6
1	79920	10937.72423809918	5
1	79923	10938.218925336631	4
1	79926	10938.657018564431	3
1	79930	10938.947757482084	4
1	79931	10939.069242740957	3
1	79934	10939.911037070513	2
1	79938	10940.243935638824	3
1	79940	10940.643910448377	4
1	79941	10940.815270971343	3
1	79944	10941.748411915194	2
1	79948	10941.752750900318	3
1	79950	10941.79318322792	4
1	79952	10942.094512345025	5
1	79954	10942.11248970468	6
1	79955	10942.446500190835	5
1	79959	10942.603081497318	6
1	79960	10942.982841804878	5
1	79964	10943.298372259773	6
1	79965	10943.712803364241	5
1	79969	10943.837389898038	6
1	79970	10944.519476650444	5
1	79974	10944.807990301984	6
1	79975	10945.44614112682	5
1	79980	10945.988075687991	4
1	79984	10946.174263612483	5
1	79985	10946.448187888203	4
1	79988	10947.086346009908	3
1	79992	10947.321836192134	4
1	79993	10947.718530726827	3
1	79997	10948.029456370689	4
1	80000	10948.613433252529	3
1	80004	10948.870941239966	4
1	80006	10949.347723522593	5
1	80007	10949.585081378438	4
1	80011	10949.712148326047	5
1	80013	10949.746747540179	6
1	80014	10950.564387781334	5
1	80020	10951.128099318164	6
1	80021	10951.549434779978	5
1	80025	10951.749786589584	6
1	80027	10951.781049365344	7
1	80028	10952.077146609195	6
1	80032	10952.763079257835	7
1	80033	10953.068944719129	6
1	80037	10953.088378670798	7
1	80038	10953.820581135361	6
1	80042	10954.219855942114	7
1	80043	10954.72153138092	6
1	80046	10955.308178670911	5
1	80050	10955.679008790798	6
1	80051	10956.288841702297	5
1	80055	10956.443798649239	6
1	80058	10956.764641458375	5
1	80061	10957.386921727771	4
1	80065	10957.488831179243	5
1	80066	10958.276422265239	4
1	80070	10958.824299879811	5
1	80071	10959.032336438142	4
1	80075	10959.145580299024	5
1	80077	10959.181933767615	6
1	80079	10959.357903344876	7
1	80080	10959.860748956885	6
1	80084	10959.908808170015	7
1	80085	10960.274393470792	6
1	80089	10960.660699200941	7
1	80090	10961.127869624851	6
1	80094	10961.322866193296	7
1	80096	10961.723171830961	8
1	80097	10961.931068612329	7
1	80100	10962.494849576076	6
1	80104	10962.694782329207	7
1	80105	10963.238608324874	6
1	80109	10963.898471559115	7
1	80110	10963.914000242643	6
1	80114	10964.442819526449	7
1	80115	10964.751025902267	6
1	80119	10965.372109205011	7
1	80121	10965.580902557488	8
1	80122	10965.696891059607	7
1	80125	10966.252146776926	6
1	80130	10966.805546261298	5
1	80133	10967.571309428031	4
1	80137	10968.05811338285	5
1	80139	10968.227050728695	6
1	80140	10968.557678365263	5
1	80144	10969.44086108645	6
1	80145	10969.511960389067	5
1	80148	10970.195625508318	4
1	80152	10970.248145702132	5
1	80154	10970.467009724586	6
1	80155	10971.046457746366	5
1	80159	10971.14888157559	6
1	80160	10971.847067859976	5
1	80164	10971.873965661216	6
1	80165	10972.601825351196	5
1	80171	10973.078591757046	6
1	80172	10973.125715557693	5
1	80176	10973.293416059357	6
1	80177	10973.549635918599	5
1	80181	10973.896293651086	6
1	80182	10974.077598071818	5
1	80186	10974.079357745192	6
1	80189	10974.939017623777	5
1	80192	10975.574405756847	4
1	80196	10975.942019421334	5
1	80197	10976.01332602843	4
1	80201	10976.310942180986	5
1	80202	10976.947696607395	4
1	80205	10977.792793880657	3
1	80209	10977.898589175133	4
1	80211	10978.273950616552	5
1	80212	10978.452201499578	4
1	80216	10978.979611239845	5
1	80217	10979.184896465458	4
1	80221	10979.29831948394	5
1	80222	10979.948522631193	4
1	80226	10980.135570632372	5
1	80227	10980.746958373787	4
1	80230	10981.328317771547	3
1	80234	10981.445965999849	4
1	80236	10981.491656980484	5
1	80237	10982.205494448191	4
1	80240	10983.060970588888	3
1	80243	10983.626297896703	2
1	80247	10984.071522828208	3
1	80249	10984.173837381834	4
1	80250	10984.578885992359	3
1	80254	10984.622287108988	4
1	80255	10985.304131398046	3
1	80259	10985.739411694046	4
1	80260	10985.819769526854	3
1	80264	10986.047820536336	4
1	80265	10986.301545579754	3
1	80269	10986.931844828214	4
1	80272	10987.162500568362	3
1	80276	10987.814955730405	4
1	80277	10988.073939525778	3
1	80281	10988.58994341013	4
1	80282	10988.684373214026	3
1	80286	10989.408393044912	4
1	80287	10989.469958986086	3
1	80291	10989.632256538525	4
1	80292	10990.095052098553	3
1	80296	10990.503205067034	4
1	80298	10990.734029601048	5
1	80299	10991.032698450447	4
1	80303	10991.549560488063	5
1	80304	10991.982631439832	4
1	80307	10992.389342464949	3
1	80311	10992.826566590846	4
1	80312	10993.03197900902	3
1	80316	10993.580806587581	4
1	80318	10993.641284270167	5
1	80319	10993.698405322968	4
1	80323	10994.26993783501	5
1	80324	10994.517175129591	4
1	80328	10995.012192603293	5
1	80329	10995.32648393705	4
1	80332	10996.201868666732	3
1	80338	10996.414761905808	4
1	80340	10996.424548841649	5
1	80345	10996.801590362075	4
1	80349	10997.209590533607	5
1	80350	10997.415146886627	4
1	80354	10997.63033713486	5
1	80355	10997.924007615982	4
1	80359	10998.201758050116	5
1	80360	10998.431594417174	4
1	80364	10998.827764864349	5
1	80365	10999.412312534707	4
1	80369	10999.857640702796	5
1	80370	11000.152353012445	4
1	80374	11000.272679235477	5
1	80375	11000.619380891719	4
1	80379	11000.839129517905	5
1	80380	11001.278999524913	4
1	80383	11002.081614374067	3
1	80387	11002.088974268486	4
1	80388	11002.570818319382	3
1	80392	11002.890068032072	4
1	80393	11003.127299932228	3
1	80396	11003.856465210091	2
1	80400	11003.956293144668	3
1	80401	11004.266098459042	2
1	80405	11004.285920671499	3
1	80407	11004.523905928135	4
1	80408	11004.739842162631	3
1	80412	11005.336571241421	4
1	80413	11005.40150682733	3
1	80417	11005.441677559447	4
1	80419	11005.558243932532	5
1	80424	11006.112592525152	4
1	80427	11006.798812520015	3
1	80430	11007.447403030959	2
1	80434	11007.498466554292	3
1	80436	11007.620559348293	4
1	80438	11008.092727273101	5
1	80439	11008.140981970518	4
1	80442	11008.600180066074	3
1	80446	11008.605362040924	4
1	80450	11008.860101080468	5
1	80451	11009.151576360804	4
1	80455	11009.231676053611	5
1	80456	11010.025776662468	4
1	80460	11010.221606134684	5
1	80461	11010.467925944622	4
1	80465	11010.968249055164	5
1	80467	11011.086313952539	6
1	80468	11011.33953592151	5
1	80472	11011.455204722011	6
1	80473	11011.756901798701	5
1	80477	11011.78829724684	6
1	80478	11012.724262555014	5
1	80482	11013.338379618428	6
1	80483	11013.497837545421	5
1	80487	11013.981133983582	6
1	80488	11014.36651830657	5
1	80492	11014.567969078908	6
1	80494	11015.010531472529	7
1	80495	11015.161347089639	6
1	80498	11015.699462363707	5
1	80501	11016.368471582072	4
1	80505	11016.562700779726	5
1	80507	11016.759762994616	6
1	80509	11017.037603271853	7
1	80510	11017.245148569742	6
1	80514	11017.631224597069	7
1	80515	11017.938333955478	6
1	80519	11018.103319020673	7
1	80520	11018.69673515584	6
1	80524	11019.385233242939	7
1	80525	11019.582178208862	6
1	80529	11020.357011786497	7
1	80530	11020.511637764682	6
1	80533	11021.284633456196	5
1	80537	11021.549822538481	6
1	80538	11021.73177744013	5
1	80542	11021.944083365338	6
1	80543	11022.232785588109	5
1	80547	11022.75685060474	6
1	80548	11022.778609423178	5
1	80552	11023.219693476065	6
1	80553	11023.339074238927	5
1	80556	11024.173993845076	4
1	80560	11024.565022251362	5
1	80561	11024.773567454681	4
1	80564	11025.73020780699	3
1	80568	11026.05868032021	4
1	80571	11026.235085706158	3
1	80575	11026.82113790536	4
1	80576	11026.821168313899	3
1	80579	11027.321977616033	2
1	80584	11027.918883371192	1
1	80588	11028.212991691644	2
1	80589	11028.524592624583	1
1	80593	11028.538108548268	2
1	80595	11028.763342960658	3
1	80597	11029.103160077964	4
1	80598	11029.124574322651	3
1	80602	11029.554686313403	4
1	80603	11029.608293249437	3
1	80607	11030.362875221195	4
1	80608	11030.377222103139	3
1	80612	11030.432262455187	4
1	80613	11030.822275772297	3
1	80616	11031.493766713773	2
1	80620	11031.743201159955	3
1	80621	11032.46520259327	2
1	80625	11032.665110043867	3
1	80626	11033.05187310239	2
1	80630	11033.243800217856	3
1	80631	11033.503134086893	2
1	80635	11034.132790125841	3
1	80636	11034.307987734701	2
1	80640	11034.487277286336	3
1	80641	11035.024389147784	2
1	80645	11035.060350616124	3
1	80646	11035.517666807843	2
1	80650	11035.57109758996	3
1	80651	11036.11592131376	2
1	80655	11036.700554634688	3
1	80656	11036.755491896651	2
1	80660	11037.644346529034	3
1	80661	11037.727766471754	2
1	80665	11037.894628536655	3
1	80666	11038.272435267295	2
1	80670	11038.482439564813	3
1	80671	11039.225960594814	2
1	80675	11039.302955854575	3
1	80676	11039.791550574012	2
1	80679	11040.630075212547	1
1	80683	11040.988847248417	2
1	80685	11041.038668378603	3
1	80686	11041.237338775049	2
1	80689	11041.845118041688	1
1	80693	11042.367228047668	2
1	80694	11042.409223750119	1
1	80698	11042.594756991389	2
1	80699	11042.885605986721	1
1	80703	11043.01263763424	2
1	80704	11043.35516675811	1
1	80708	11043.53333206539	2
1	80710	11043.934196517739	3
1	80711	11044.072617768615	2
1	80715	11044.340732343	3
1	80716	11044.953236555241	2
1	80720	11045.448741867866	3
1	80721	11045.950757735062	2
1	80725	11046.023679064733	3
1	80726	11046.533859465343	2
1	80730	11046.533957827841	3
1	80734	11046.645796958186	4
1	80735	11047.127457725422	3
1	80739	11047.568142016591	4
1	80740	11047.837623334469	3
1	80743	11048.513266901139	2
1	80747	11049.068887235956	3
1	80748	11049.198981169684	2
1	80751	11050.131200673038	1
1	80755	11050.146069827639	2
1	80757	11050.435002262959	3
1	80758	11050.941534354098	2
1	80762	11051.626499716692	3
1	80763	11051.895683708859	2
1	80766	11052.673970146642	1
1	80770	11052.736722304505	2
1	80771	11053.634408123444	1
1	80775	11054.200383801984	2
1	80776	11054.472158208887	1
1	80780	11054.505007092717	2
1	80781	11055.224228618692	1
1	80785	11056.061946384856	2
1	80786	11056.096449756462	1
1	80789	11056.697255744718	0
1	80793	11057.454796873824	1
1	80794	11057.66580507418	0
1	80798	11057.80635189017	1
1	80799	11058.201987997702	0
1	80805	11058.414611597373	1
1	80807	11058.415100246451	2
1	80810	11058.805037819341	1
1	80814	11059.100079937791	2
1	80815	11059.213294581117	1
1	80819	11059.578858420882	2
1	80821	11059.620552490697	3
1	80822	11060.102501529574	2
1	80826	11060.109842233072	3
1	80827	11060.685888285355	2
1	80831	11060.810213806475	3
1	80832	11061.644033404838	2
1	80836	11061.674541822112	3
1	80839	11062.465908416154	2
1	80844	11063.261710652921	1
1	80848	11063.354261272825	2
1	80850	11063.459580800952	3
1	80851	11063.902394156556	2
1	80855	11064.099173895771	3
1	80856	11064.312406275633	2
1	80860	11064.33943220026	3
1	80861	11065.082075268009	2
1	80865	11065.38010506488	3
1	80866	11065.646683037074	2
1	80869	11066.397369444769	1
1	80873	11067.212636368916	2
1	80874	11067.243675246256	1
1	80877	11068.056588074545	0
1	80889	11069.624754315495	1
1	80891	11070.126720037078	2
1	80892	11070.217929620416	1
1	80896	11070.636550600711	2
1	80900	11070.745614895317	3
1	80901	11071.013011760478	2
1	80904	11071.7006682955	1
1	80908	11071.754431750543	2
1	80909	11072.170350603088	1
1	80913	11072.41300593317	2
1	80915	11072.436399334705	3
1	80916	11072.632589512718	2
1	80920	11072.751080253808	3
1	80921	11073.134948262599	2
1	80927	11073.559822967241	3
1	80928	11073.969466643947	2
1	80931	11074.615117651204	1
1	80935	11075.163372369974	2
1	80936	11075.307743741878	1
1	80940	11075.4239921099	2
1	80942	11075.681282990684	3
1	80943	11076.292021205396	2
1	80947	11076.766070574737	3
1	80948	11077.271496843247	2
1	80951	11078.043987350472	1
1	80955	11078.54080249738	2
1	80956	11078.706141009954	1
1	80960	11078.878022885818	2
1	80961	11079.693513466492	1
1	80964	11080.192063646093	0
1	80968	11080.53606133911	1
1	80969	11080.654854454035	0
1	80976	11081.291774007769	1
1	80977	11081.994316678755	0
1	80981	11082.076275236303	1
1	80983	11082.591994661866	2
1	80984	11082.636575023113	1
1	80988	11083.109691055745	2
1	80991	11083.337647009436	1
1	80995	11083.522752922523	2
1	80996	11084.103477469021	1
1	81000	11084.367435758203	2
1	81001	11084.504907637815	1
1	81005	11084.6022658504	2
1	81006	11085.183799938791	1
1	81010	11085.583656894369	2
1	81011	11085.814797819153	1
1	81015	11085.97075356583	2
1	81016	11086.747311140623	1
1	81019	11087.576548959853	0
1	81023	11087.944593091616	1
1	81024	11088.087437322995	0
1	81028	11088.135067574171	1
1	81029	11088.922464896998	0
1	81033	11089.239114508509	1
1	81034	11089.52480278381	0
1	81038	11089.810383087826	1
1	81039	11090.012346846171	0
1	81043	11090.291070469501	1
1	81044	11090.705555789385	0
1	81048	11091.054161051801	1
1	81049	11091.511037888264	0
1	81056	11092.409487602687	1
1	81057	11092.535053165934	0
1	81066	11093.710007582487	1
1	81067	11094.382171541663	0
1	81084	11096.369860837164	1
1	81087	11097.288026957657	0
1	81094	11097.861903196062	1
1	81095	11098.267169929599	0
1	81104	11098.84230586153	1
1	81105	11099.780870918721	0
1	81119	11101.627253846856	1
1	81120	11101.965238130256	0
1	81127	11102.81053124669	1
1	81130	11103.338965454722	0
1	81401	11141.074174414859	1
1	81402	11141.463347976164	0
1	81411	11142.429682135211	1
1	81412	11142.786077411214	0
1	81421	11143.4090640124	1
1	81422	11143.790525992701	0
1	81433	11144.788603155305	1
1	81435	11145.161426008696	2
1	81436	11145.270494751374	1
1	81444	11146.015722414234	2
1	81445	11146.112257676593	1
1	81449	11146.244042115226	2
1	81450	11146.831436259507	1
1	81454	11146.988741289411	2
1	81457	11147.598852847026	1
1	81461	11147.704065955678	2
1	81464	11148.423345141134	1
1	81468	11148.465208730162	2
1	81471	11149.418007585288	1
1	81475	11149.720389531078	2
1	81476	11150.23102515817	1
1	81483	11150.993150908196	0
1	81487	11151.051473798492	1
1	81488	11151.431371787492	0
1	81492	11151.9309912258	1
1	81493	11152.018137367092	0
1	81497	11152.400654228791	1
1	81498	11152.477399431098	0
1	81505	11153.109482053219	1
1	81507	11153.319001146674	2
1	81508	11153.610316155314	1
1	81513	11154.583342334277	0
1	81517	11154.613480637982	1
1	81518	11155.135621026319	0
1	81524	11155.37327882128	1
1	81525	11156.107606859945	0
1	81532	11156.718274791358	1
1	81534	11156.729187069494	2
1	81535	11157.11133338378	1
1	81539	11157.163868380621	2
1	81540	11157.818784967924	1
1	81546	11158.23143145458	2
1	81547	11158.350950487026	1
1	81550	11158.954223047684	0
1	81557	11159.738641047239	1
1	81559	11159.891580968999	2
1	81560	11160.18103688883	1
1	81564	11160.365967016002	2
1	81567	11161.157822111364	1
1	81570	11161.949711965745	0
1	81577	11162.543827554752	1
1	81579	11162.618145464999	2
1	81580	11162.965651913941	1
1	81583	11163.366536899166	0
1	81587	11163.461200080127	1
1	81590	11163.771155080966	0
1	81594	11164.09095571964	1
1	81595	11164.769187648942	0
1	81599	11164.873945964979	1
1	81600	11165.625436042737	0
1	81609	11166.752096674002	1
1	81610	11166.785645896591	0
1	81621	11167.732979177154	1
1	81623	11167.865538248516	2
1	81624	11167.993695186194	1
1	81629	11168.935741893364	0
1	81633	11169.056327837649	1
1	81634	11169.731465478683	0
1	81638	11169.781334357828	1
1	81639	11170.337598320492	0
1	81643	11170.35223326112	1
1	81645	11170.87340048704	2
1	81648	11171.158464205986	1
1	81652	11171.297623451797	2
1	81653	11171.727591778174	1
1	81657	11171.746891261201	2
1	81658	11172.21240322024	1
1	81661	11173.205808217147	0
1	81668	11174.477895906781	1
1	81669	11174.901943767233	0
1	81678	11176.141146974894	1
1	81679	11176.278049687645	0
1	81688	11177.229203925386	1
1	81689	11177.881675183423	0
1	81693	11178.248267895846	1
1	81694	11178.314117572805	0
1	81698	11178.542531056905	1
1	81699	11179.229654862614	0
1	81703	11179.355253891292	1
1	81704	11180.008415154948	0
1	81711	11180.689158130365	1
1	81713	11181.348382879206	2
1	81714	11181.494062315927	1
1	81717	11182.324345635365	0
1	81721	11182.354461113037	1
1	81722	11182.851159196974	0
1	81728	11182.882515410936	1
1	81731	11183.431483285104	0
1	81738	11184.62465386585	1
1	81739	11184.628829343126	0
1	81748	11185.404133298587	1
1	81749	11185.957847572046	0
1	81763	11188.198358261589	1
1	81764	11188.318191064821	0
1	81771	11189.455057588208	1
1	81772	11190.096393060937	0
1	81783	11191.116380790857	1
1	81786	11191.935463334966	0
1	81798	11193.446246314839	1
1	81799	11193.794612147027	0
1	81805	11194.37627978288	1
1	81806	11194.583208473652	0
1	81810	11194.607414313655	1
1	81811	11195.003815244158	0
1	81820	11196.116760047369	1
1	81822	11196.228113570668	2
1	81825	11196.266954770611	1
1	81828	11196.691634835649	0
1	81837	11197.496158865208	1
1	81839	11197.700473464083	2
1	81840	11198.205529530693	1
1	81845	11199.080067871299	0
1	81849	11199.482667177078	1
1	81850	11199.863292626499	0
1	81854	11200.249177845972	1
1	81857	11200.721898433075	0
1	81864	11201.26059713425	1
1	81865	11202.1670928566	0
1	81874	11203.259249647378	1
1	81875	11203.328102985791	0
1	81879	11204.242024203712	1
1	81880	11204.321948129985	0
1	81884	11204.478199536348	1
1	81885	11204.756291294585	0
1	81891	11205.268663275117	1
1	81892	11205.660523441223	0
1	81899	11206.775165799814	1
1	81901	11206.903969542308	2
1	81903	11206.935252486405	3
1	81904	11206.954443421795	2
1	81907	11207.47320403375	1
1	81911	11207.551772363203	2
1	81915	11208.239813883523	3
1	81916	11208.331863445251	2
1	81920	11208.405533237054	3
1	81921	11208.971568605465	2
1	81925	11208.975408597496	3
1	81926	11209.97068793678	2
1	81930	11210.160411390209	3
1	81931	11210.954317408915	2
1	81935	11211.034309912808	3
1	81936	11211.876733499787	2
1	81940	11212.033760390475	3
1	81941	11212.497224297256	2
1	81945	11212.649633554898	3
1	81946	11213.419977230833	2
1	81950	11213.826282617948	3
1	81951	11214.047042328374	2
1	81955	11214.118679713743	3
1	81956	11214.724663098271	2
1	81960	11214.726621009521	3
1	81962	11214.931689011889	4
1	81963	11215.254302614343	3
1	81966	11215.670422509054	2
1	81970	11216.46408111093	3
1	81971	11216.563699386569	2
1	81975	11216.995547817532	3
1	81976	11217.096599266	2
1	81982	11217.377570445343	3
1	81984	11217.776287797593	4
1	81985	11218.073995817473	3
1	81988	11218.630805332886	2
1	81991	11219.396712450704	1
1	81995	11219.463069792602	2
1	81996	11219.93286165369	1
1	82000	11220.547505351061	2
1	82001	11220.84929103127	1
1	82005	11221.037509308767	2
1	82006	11221.517776400664	1
1	82010	11221.714763820023	2
1	82011	11222.072736275078	1
1	82015	11222.640489705768	2
1	82016	11222.870374979147	1
1	82020	11222.901808738143	2
1	82021	11223.317681303502	1
1	82028	11223.968509756888	0
1	82032	11224.086506629649	1
1	82033	11224.875586625908	0
1	82037	11224.897035027587	1
1	82038	11225.704367488644	0
1	82042	11226.141220824688	1
1	82043	11226.55365594581	0
1	82047	11226.615688028843	1
1	82049	11226.871142769484	2
1	82051	11227.116402557984	3
1	82052	11227.532263530998	2
1	82058	11227.90213534401	3
1	82059	11228.476765500589	2
1	82063	11229.092396186942	3
1	82064	11229.341614414493	2
1	82068	11229.528094994357	3
1	82069	11229.903432593841	2
1	82073	11230.152398164979	3
1	82074	11230.352106597947	2
1	82078	11230.573334961851	3
1	82080	11230.738967830949	4
1	82081	11230.839504615285	3
1	82085	11231.461858863889	4
1	82086	11231.573219246531	3
1	82090	11231.706214122585	4
1	82091	11232.196134699902	3
1	82095	11232.719305288665	4
1	82096	11232.933002318416	3
1	82100	11233.119413751078	4
1	82101	11233.660912272308	3
1	82104	11234.155211755235	2
1	82108	11234.532251839188	3
1	82109	11234.889704985099	2
1	82113	11235.092081468698	3
1	82114	11235.297607599592	2
1	82118	11235.572109975444	3
1	82119	11235.726384793941	2
1	82123	11235.785220730837	3
1	82124	11236.500856658883	2
1	82128	11236.65536631547	3
1	82131	11237.378535226427	2
1	82135	11237.992475568721	3
1	82136	11238.299272211848	2
1	82140	11238.687259037873	3
1	82141	11238.88843668529	2
1	82145	11239.040465325462	3
1	82148	11239.664711646942	2
1	82152	11239.759407311003	3
1	82154	11240.220308680741	4
1	82155	11240.516529568864	3
1	82159	11240.601596005087	4
1	82160	11241.412990831418	3
1	82164	11241.620477991324	4
1	82165	11242.388033200635	3
1	82169	11242.632668814063	4
1	82173	11243.284520205372	5
1	82174	11243.342569306746	4
1	82178	11243.4497543067	5
1	82179	11244.259447250536	4
1	82183	11244.410055317907	5
1	82184	11244.690691937341	4
1	82188	11244.750550935399	5
1	82189	11245.572531320874	4
1	82193	11245.866076381691	5
1	82194	11246.042088609862	4
1	82198	11246.083593188963	5
1	82199	11246.712603691055	4
1	82203	11246.761831089225	5
1	82204	11247.406421110288	4
1	82208	11248.180197095615	5
1	82209	11248.227901040318	4
1	82213	11248.327166227412	5
1	82215	11248.834025167454	6
1	82216	11248.931509429656	5
1	82220	11249.059899337025	6
1	82221	11249.386195271669	5
1	82224	11250.164564290617	4
1	82228	11250.531289114386	5
1	82229	11250.733924684694	4
1	82233	11250.859866079719	5
1	82235	11250.954738096984	6
1	82236	11251.495816867121	5
1	82240	11252.200327871431	6
1	82241	11252.359609964231	5
1	82245	11252.41134079837	6
1	82246	11252.780506293869	5
1	82250	11253.07566412829	6
1	82251	11253.711693149966	5
1	82254	11254.162756824189	4
1	82258	11254.20576726303	5
1	82260	11254.331527054617	6
1	82262	11254.71752421144	7
1	82263	11254.779134841099	6
1	82266	11255.286050571896	5
1	82270	11255.40831206239	6
1	82271	11256.173992700944	5
1	82275	11256.29631401578	6
1	82276	11256.967329865251	5
1	82280	11257.26810216966	6
1	82281	11257.496921489643	5
1	82285	11257.921813941662	6
1	82286	11258.485093156736	5
1	82290	11258.813947445236	6
1	82294	11258.966147844658	7
1	82295	11259.334089408744	6
1	82299	11259.544011362415	7
1	82300	11259.757247690087	6
1	82303	11260.63340873809	5
1	82307	11260.633609435174	6
1	82308	11261.41235076629	5
1	82311	11262.027636188012	4
1	82315	11262.129286164264	5
1	82316	11262.864549108524	4
1	82320	11262.998768421448	5
1	82321	11263.345731784845	4
1	82324	11264.260839587054	3
1	82328	11264.31580149602	4
1	82330	11264.381284966354	5
1	82331	11264.797753155906	4
1	82335	11264.890091357137	5
1	82336	11265.675026520737	4
1	82340	11265.966180304832	5
1	82341	11266.597453584079	4
1	82345	11266.723275174358	5
1	82346	11267.074429997871	4
1	82350	11267.3719479746	5
1	82351	11267.531604544562	4
1	82355	11268.134291211164	5
1	82356	11268.496622289461	4
1	82360	11269.033094452865	5
1	82361	11269.463139476231	4
1	82365	11269.796287758952	5
1	82366	11270.422747574211	4
1	82370	11270.696212721712	5
1	82371	11270.851233708509	4
1	82375	11270.960002882487	5
1	82378	11271.767706511193	4
1	82382	11271.974924950166	5
1	82383	11272.627069853642	4
1	82388	11273.468210055842	3
1	82391	11274.071726618032	2
1	82394	11274.493544155429	1
1	82397	11274.906007286743	0
1	82401	11275.339100646553	1
1	82402	11275.731899041985	0
1	82406	11276.007731883957	1
1	82408	11276.410060221019	2
1	82410	11276.510512447307	3
1	82411	11276.61478115858	2
1	82415	11276.748300490301	3
1	82417	11276.766969917613	4
1	82419	11277.285993001748	5
1	82420	11277.32047586285	4
1	82424	11277.364658984568	5
1	82425	11278.184134550415	4
1	82428	11278.603803133102	3
1	82432	11279.044628720681	4
1	82433	11279.318150455201	3
1	82436	11279.890667080482	2
1	82440	11280.677274728854	3
1	82441	11280.792954865166	2
1	82445	11281.022779612003	3
1	82446	11281.233948045245	2
1	82449	11281.773675863373	1
1	82455	11281.884395151763	2
1	82458	11282.46262882191	1
1	82462	11282.90571854359	2
1	82463	11283.050995043547	1
1	82467	11283.180110375592	2
1	82468	11283.905964251489	1
1	82472	11283.939041780466	2
1	82473	11284.819349983169	1
1	82476	11285.645082122807	0
1	82480	11286.153581954235	1
1	82481	11286.198783089148	0
1	82485	11286.547213258563	1
1	82487	11286.687041362935	2
1	82488	11287.03343086417	1
1	82492	11287.2669586902	2
1	82493	11287.877321480747	1
1	82497	11287.917479821178	2
1	82498	11288.783638816906	1
1	82502	11289.669767578646	2
1	82503	11289.729757707028	1
1	82507	11290.157998329572	2
1	82508	11290.504076078089	1
1	82511	11291.1709549444	0
1	82515	11291.278670302928	1
1	82516	11291.906974511148	0
1	82520	11292.248668917387	1
1	82522	11292.514470346569	2
1	82523	11292.712638451365	1
1	82527	11292.937906299274	2
1	82528	11293.421911735573	1
1	82531	11294.359639244686	0
1	82535	11294.475708773642	1
1	82537	11294.632997904965	2
1	82539	11294.66777877071	3
1	82540	11295.310394715165	2
1	82544	11295.339005321318	3
1	82545	11296.224670608036	2
1	82548	11296.82738280466	1
1	82551	11297.4845924339	0
1	82555	11297.486581509539	1
1	82557	11297.494254158199	2
1	82559	11297.617936725975	3
1	82562	11298.324734109754	2
1	82566	11298.78227629237	3
1	82567	11299.223087970002	2
1	82571	11299.316662669543	3
1	82572	11299.905859607991	2
1	82575	11300.841250738289	1
1	82579	11300.849576110347	2
1	82580	11301.615867299327	1
1	82586	11302.512597273334	2
1	82587	11302.582987428942	1
1	82591	11302.939645693661	2
1	82592	11303.152521852703	1
1	82596	11303.343533246191	2
1	82597	11304.056113846154	1
1	82601	11304.146059700185	2
1	82602	11304.588373676195	1
1	82606	11304.60046548825	2
1	82608	11304.746811848649	3
1	82610	11304.866696993868	4
1	82611	11305.028615906901	3
1	82614	11305.741866296596	2
1	82618	11306.124918670382	3
1	82619	11306.43305187353	2
1	82625	11306.928642570639	3
1	82626	11307.418747435203	2
1	82630	11307.811006335214	3
1	82631	11307.858553037485	2
1	82635	11308.150318795781	3
1	82636	11308.794092367096	2
1	82642	11309.291930893201	3
1	82643	11309.692382887676	2
1	82647	11309.931391727774	3
1	82648	11310.372710495414	2
1	82652	11310.616727860883	3
1	82653	11311.000959385484	2
1	82657	11311.105622946329	3
1	82659	11311.343736543755	4
1	82661	11311.489179561621	5
1	82662	11311.572543451814	4
1	82666	11311.579965630273	5
1	82667	11312.443126530172	4
1	82671	11312.796236183248	5
1	82672	11313.400393000589	4
1	82676	11313.789324483085	5
1	82677	11314.083136800741	4
1	82681	11314.295267708274	5
1	82683	11314.427362459958	6
1	82684	11314.983357935836	5
1	82688	11315.730070735748	6
1	82689	11315.754601357942	5
1	82693	11316.356720866982	6
1	82694	11316.406996499672	5
1	82697	11317.404081216612	4
1	82701	11317.48730864895	5
1	82703	11317.663754463526	6
1	82704	11317.868220421597	5
1	82708	11317.873767744176	6
1	82710	11317.925300700506	7
1	82711	11318.468995608035	6
1	82715	11318.876877909834	7
1	82716	11319.134403959121	6
1	82720	11319.981652183375	7
1	82721	11320.021188017185	6
1	82724	11320.508092313324	5
1	82728	11320.595766156457	6
1	82730	11320.703681855338	7
1	82731	11320.915589942894	6
1	82735	11321.306347426415	7
1	82736	11321.354264115653	6
1	82740	11321.685999441326	7
1	82743	11322.288816651626	6
1	82746	11322.710405221133	5
1	82749	11323.144726315344	4
1	82752	11324.055632575432	3
1	82756	11324.081919626193	4
1	82758	11324.139149237199	5
1	82760	11324.193357373251	6
1	82762	11324.229456923752	7
1	82763	11324.521012665022	6
1	82767	11324.550720941204	7
1	82768	11325.236172667954	6
1	82771	11325.924925958382	5
1	82775	11326.151243089872	6
1	82776	11326.600907990772	5
1	82780	11326.715958228927	6
1	82782	11326.810541902203	7
1	82785	11327.406568467028	6
1	82789	11327.454996382285	7
1	82790	11328.395864042284	6
1	82793	11328.951950530538	5
1	82797	11329.003416182113	6
1	82800	11329.430280052701	5
1	82804	11329.517532626127	6
1	82806	11329.879602030339	7
1	82807	11330.366413136495	6
1	82810	11330.910841099143	5
1	82814	11330.966525074648	6
1	82818	11331.038537105222	7
1	82819	11331.401030924886	6
1	82823	11331.755271429649	7
1	82826	11332.280146525165	6
1	82830	11332.690926188519	7
1	82831	11333.059419954119	6
1	82834	11333.512125553626	5
1	82838	11333.633078528018	6
1	82840	11334.297617651108	7
1	82841	11334.349803700407	6
1	82847	11335.042141663444	7
1	82848	11335.133170420739	6
1	82851	11336.013590970046	5
1	82855	11336.139514937987	6
1	82857	11336.356558253192	7
1	82858	11336.959095843851	6
1	82862	11337.184695893102	7
1	82863	11337.462499301711	6
1	82867	11337.642679162605	7
1	82868	11338.26835937022	6
1	82872	11338.280924652013	7
1	82873	11338.796547454705	6
1	82877	11339.066059128702	7
1	82878	11339.707003606732	6
1	82882	11339.732963601752	7
1	82883	11340.236621834726	6
1	82886	11340.637829791444	5
1	82890	11340.715762350774	6
1	82891	11341.056713726853	5
1	82895	11341.435998286488	6
1	82896	11341.909474356255	5
1	82900	11341.927714635207	6
1	82903	11342.359636920426	5
1	82907	11342.836556122771	6
1	82908	11343.037788240487	5
1	82912	11343.174618262699	6
1	82915	11344.028461046392	5
1	82919	11344.210831742168	6
1	82920	11344.743306602646	5
1	82924	11344.871594961925	6
1	82925	11345.17942680406	5
1	82929	11345.50373495929	6
1	82930	11345.785233947463	5
1	82934	11345.972782199406	6
1	82935	11346.426250479897	5
1	82939	11346.751686000976	6
1	82941	11346.881507607963	7
1	82942	11347.410451224973	6
1	82946	11347.99448486342	7
1	82947	11348.002578666541	6
1	82951	11348.0471963649	7
1	82953	11348.053447194969	8
1	82954	11348.876609481233	7
1	82958	11349.105872134273	8
1	82959	11349.850660670004	7
1	82962	11350.416178320083	6
1	82965	11351.092497367566	5
1	82968	11351.568311877889	4
1	82972	11351.575723884576	5
1	82974	11351.648670979572	6
1	82976	11351.951453592342	7
1	82977	11351.979361306657	6
1	82981	11352.20806350595	7
1	82982	11352.439756798712	6
1	82986	11352.646723769845	7
1	82987	11353.34445393492	6
1	82991	11353.563730053661	7
1	82993	11353.579545621674	8
1	82994	11354.240176690198	7
1	82998	11354.33241971913	8
1	82999	11355.161489204611	7
1	83003	11355.456967705327	8
1	83004	11355.609478950654	7
1	83009	11356.43079836207	6
1	83013	11356.694077596566	7
1	83014	11356.836681376691	6
1	83018	11357.077838195694	7
1	83021	11357.736352236769	6
1	83024	11358.188323836368	5
1	83028	11358.317533864986	6
1	83030	11358.468791854294	7
1	83033	11359.164476193361	6
1	83037	11359.344436907398	7
1	83038	11359.969215259574	6
1	83042	11359.976194555019	7
1	83043	11360.797113201826	6
1	83047	11361.008575126025	7
1	83048	11361.554965896032	6
1	83051	11362.09367893223	5
1	83055	11362.171824594955	6
1	83057	11362.296117458544	7
1	83058	11362.967561744026	6
1	83062	11363.002735018489	7
1	83063	11363.54732496409	6
1	83067	11363.585553288658	7
1	83068	11364.128290852171	6
1	83072	11364.323012943355	7
1	83073	11365.127435881144	6
1	83077	11365.655973542194	7
1	83078	11365.763348923216	6
1	83082	11366.435496559671	7
1	83083	11366.590800998232	6
1	83086	11367.470188199834	5
1	83089	11367.893633318984	4
1	83093	11368.411785938438	5
1	83094	11368.438020878763	4
1	83098	11368.636898780185	5
1	83099	11369.155077544333	4
1	83103	11369.754362657039	5
1	83104	11369.800397016028	4
1	83107	11370.208860641358	3
1	83111	11370.284929193728	4
1	83112	11370.986992233678	3
1	83116	11371.13891319709	4
1	83117	11371.418895568338	3
1	83121	11371.585321709125	4
1	83123	11372.17710320729	5
1	83124	11372.199891136133	4
1	83128	11372.444751644616	5
1	83129	11373.172777385509	4
1	83132	11373.945387222676	3
1	83136	11373.975086498535	4
1	83138	11374.46635722504	5
1	83139	11374.605844586401	4
1	83144	11375.200572459644	3
1	83148	11375.457346261749	4
1	83149	11375.687383246154	3
1	83153	11375.807052498754	4
1	83155	11375.85136146819	5
1	83156	11376.646185780375	4
1	83160	11377.011949227617	5
1	83161	11377.26684806851	4
1	83165	11377.759978983073	5
1	83166	11377.945208207064	4
1	83170	11377.983436580818	5
1	83171	11378.440679017792	4
1	83174	11379.27866159376	3
1	83178	11379.476050466897	4
1	83181	11380.077586564992	3
1	83185	11380.34389783204	4
1	83186	11380.807364034711	3
1	83189	11381.237607563252	2
1	83193	11381.400066324266	3
1	83195	11381.579801010384	4
1	83196	11381.851882408105	3
1	83200	11381.890151162556	4
1	83201	11382.513142333331	3
1	83204	11383.320991459594	2
1	83208	11383.411141015094	3
1	83210	11383.755571299287	4
1	83211	11384.083521713561	3
1	83216	11384.54784052429	2
1	83220	11384.560613055081	3
1	83222	11384.819467955524	4
1	83223	11385.081258466106	3
1	83227	11385.362300745696	4
1	83228	11385.527992328826	3
1	83231	11385.931875679234	2
1	83235	11386.098315664234	3
1	83236	11386.456123345543	2
1	83240	11386.707035051156	3
1	83241	11387.165610316314	2
1	83244	11387.656622283964	1
1	83247	11388.495150367043	0
1	83251	11388.552295087585	1
1	83253	11388.83647786571	2
1	83255	11389.31270159752	3
1	83256	11389.361005842744	2
1	83260	11389.756881366324	3
1	83261	11390.162114597869	2
1	83265	11390.51958795968	3
1	83267	11390.837498760329	4
1	83268	11390.887112806703	3
1	83272	11391.036556850872	4
1	83273	11391.586446333083	3
1	83277	11391.637992857456	4
1	83278	11392.15964516775	3
1	83282	11392.635286028006	4
1	83285	11392.849037857552	3
1	83288	11393.337624853861	2
1	83292	11393.751636403763	3
1	83293	11393.806485315144	2
1	83296	11394.293904167518	1
1	83300	11394.712076456662	2
1	83301	11395.260796527995	1
1	83305	11395.413798202495	2
1	83307	11395.517683761974	3
1	83309	11395.575168149853	4
1	83310	11396.069918814359	3
1	83314	11396.156209109522	4
1	83315	11396.616209577873	3
1	83319	11397.106183251873	4
1	83321	11397.581235082583	5
1	83322	11397.599475745216	4
1	83326	11397.756696888207	5
1	83327	11398.403098778624	4
1	83330	11398.84086241225	3
1	83334	11399.109474809293	4
1	83335	11399.327805595111	3
1	83339	11399.455502283039	4
1	83340	11399.735278046422	3
1	83343	11400.436479122436	2
1	83346	11401.270768827863	1
1	83350	11401.34871880217	2
1	83351	11402.009982087474	1
1	83355	11402.233260910271	2
1	83356	11402.934092493459	1
1	83360	11403.68000835879	2
1	83361	11403.68071358801	1
1	83366	11404.490704069251	0
1	83370	11404.626473813907	1
1	83371	11404.924160229984	0
1	83378	11405.605009980979	1
1	83379	11406.246372619514	0
1	83383	11406.451848005402	1
1	83384	11407.01311587967	0
1	83388	11407.443781519296	1
1	83389	11407.75384836454	0
1	83393	11407.96303594543	1
1	83398	11408.661662784322	0
1	83402	11408.926697956783	1
1	83403	11409.505818785085	0
1	83407	11409.704200900966	1
1	83408	11410.410334501286	0
1	83412	11410.860831179845	1
1	83413	11410.99167845972	0
1	83417	11411.417458276489	1
1	83418	11411.678433016884	0
1	83425	11412.600244606487	1
1	83426	11412.969977481999	0
[...]
9	127821	17420.720083332625	0.793154280121
9	128727	17539.36525708647	6.541678284678
9	128763	17545.612618749825	3.681991647128
9	129411	17634.713850217871	0.733137077047
9	129429	17637.996572108379	9.640869854606
9	129587	17660.045714706088	0.982534603076
9	129616	17663.714950848229	16.681140360199
9	129684	17674.083828349317	5.579261939021
9	129772	17687.584093660022	8.858267802843
9	129858	17700.391146604018	0.601143208006
9	129957	17714.225794751149	0.661044703098
9	129990	17719.170508523376	0.792202314967
9	130003	17721.243826085652	0.552021954767
9	130010	17721.874572158974	0.630746073322
9	130036	17726.000972271103	0.819529053802
9	130041	17726.553336891064	0.552364619961
9	130092	17733.438175488681	5.428247977801
9	130162	17743.748684036451	13.18125822644
9	130169	17744.180554243874	1.624263164951
9	130174	17744.890116715895	17.54290866618
9	130233	17752.95263697337	3.311076481839
9	131027	17860.145980447203	0.775564850727
9	131075	17867.018093665454	11.433443362583
9	131101	17870.761008666919	0.7924546252
9	131195	17883.446223137293	3.588531373217
9	131207	17884.872766959153	3.418840263842
9	131220	17887.096513091491	17.210228896221
9	131310	17901.057646220825	0.99933179412
9	131333	17904.747030003971	0.995366828144
9	131782	17964.195710356254	5.319991566769
9	131829	17971.193356812187	10.514561273849
9	131898	17981.481484879323	0.801958986744
9	131910	17982.523927223638	6.375425861939
9	132846	18107.276429713237	0.908925367566
9	132992	18126.402240766818	9.754946827719
9	133069	18137.266450002325	0.632595011778
9	133141	18147.494878758352	1.568571551319
9	133319	18172.946235211429	4.786500969019
9	134026	18266.817272645097	7.337767052542
9	134029	18267.32675373098	0.509481085883
9	134034	18267.906561408938	5.000737064672
9	134124	18281.148659144203	0.613562349975
9	134236	18295.165642990312	14.893900970468
9	134252	18298.045168285399	0.532196136937
9	134262	18299.324675709057	0.826998013072
9	134275	18301.607177857217	6.010138313575
9	134283	18303.122718445818	6.150946416329
9	134337	18309.371156160767	6.422593098781
9	134568	18341.19020287399	0.985122223431
9	134590	18344.009041883654	9.477744075146
9	134720	18362.381901999326	11.88556185728
9	134729	18364.031742617019	0.55283389492
9	134734	18364.819855713375	2.946310450009
9	134755	18368.699749556833	4.81242470604
9	134777	18372.066784336741	12.666893066141
9	134805	18376.280747687487	4.439770480832
9	134811	18377.672303124001	8.573727425762
9	137501	18749.81237734775	9.882918288104
9	137818	18790.653421452876	14.911466504186
9	137894	18801.124724241767	4.891775972906
9	137931	18807.162289163937	2.709188909182
9	138170	18837.860743124596	0.738471340761
9	138231	18848.029094059671	0.579448713595
9	138261	18852.448822321323	0.826218980132
9	138325	18861.458004555012	0.965374158369
9	138630	18901.208914084689	0.569085779041
9	138651	18904.844731918493	0.819011464156
9	138906	18939.093246606695	0.444128689542
9	139192	18977.275275199537	16.841797511495
9	139900	19073.123344770918	22.473940420408
9	140146	19105.119663954579	1.612434927611
9	140193	19113.058243545336	4.55464590467
9	140311	19129.998821353404	0.568115416868
9	140336	19133.322467822958	3.561174817468
9	140375	19138.438469327291	0.598141807877
9	140387	19140.055954837523	6.073580654244
9	140390	19140.632377119692	1.285750184371
9	140406	19143.130098231792	3.724146650787
9	140418	19144.770939084704	4.303584920759
9	140446	19149.58798459736	2.322525758356
9	140710	19184.323188854107	1.562494396517
9	140747	19190.205645865813	10.601342408604
9	140764	19193.24384075441	0.913339386042
9	140974	19219.820901701511	3.291623830542
9	141087	19233.544909630859	5.989381757562
9	141337	19267.963506231647	4.290784751899
9	141396	19278.120442766141	3.809996067557
9	141447	19284.881411522446	2.565809186178
9	141598	19306.227934577691	0.684714583959
9	141606	19307.634637888244	8.220522342289
9	141753	19327.502860313798	2.120608740756
9	141785	19331.358784637556	2.49355312346
9	141823	19336.246864254683	6.773487200501
9	141919	19348.271659212423	0.560841944255
9	142147	19378.656452176913	4.922002340959
9	142200	19385.914244813293	4.384834768382
9	142269	19395.375734273769	13.421096751918
9	142279	19397.059166837396	0.700996619882
9	142282	19398.036380947666	6.218799633881
9	142295	19400.526059138547	4.025552940129
9	142386	19414.28557825699	2.470428732645
9	142391	19415.204857282019	0.919279025029
9	142409	19417.882748818076	0.674064114224
9	142441	19423.476676247554	8.42352101863
9	142555	19438.250678350034	23.255984305693
9	142930	19490.14836476455	3.627040047983
9	143047	19505.418947123089	4.33148436848
9	143151	19520.489928227294	3.212637970325
9	143171	19522.418502048174	2.653116325683
9	143174	19523.141390122105	12.384573290993
9	143197	19526.339802821263	0.457878290582
9	143813	19607.810161485666	9.202514579684
9	144179	19655.996977447954	3.767738290989
9	144182	19656.863455622506	5.586619815322
9	144329	19677.453954026709	4.870253800823
9	144347	19680.022928686673	22.761656164185
9	144368	19683.768115576496	21.168019108662
9	144524	19703.823940103593	6.684436519553
9	144542	19706.976682741473	0.980179945147
9	144602	19714.979919022739	1.658706026734
9	144766	19736.533981170688	0.883466672199
9	144809	19743.476295043944	7.618379080797
9	144842	19748.448382909407	0.633805664675
9	144897	19755.560664663739	4.245746810992
9	144943	19763.20080753285	0.679659723584
9	145008	19772.309414019059	8.412804499746
9	145238	19803.920149527629	1.441309577465
9	145555	19846.393127184917	0.730982126761
9	145583	19850.127217589781	0.576922406582
9	145586	19850.639555858584	5.101327901046
9	145705	19869.958925079505	0.788220163435
9	145802	19881.973446935226	0.642577588418
9	146033	19914.945562392238	2.639030479426
9	146063	19918.872036175195	5.70159978105
9	146193	19935.870391573849	2.821726135142
9	146196	19936.752458735182	0.882067161333
9	146209	19938.708805242087	4.742991459943
9	146700	20004.223293711983	1.747801089107
9	146782	20015.552290778508	4.664966456935
9	146788	20016.934743962291	0.921661362797
9	146880	20029.261648376698	9.843928294576
9	146903	20032.325367589148	11.416261558115
9	146937	20038.090100733881	11.208198934192
9	146995	20047.419880728927	0.963927156897
9	147026	20052.229490538259	1.601238561007
9	147076	20059.414155162817	0.900783566106
9	147109	20062.821855696704	0.957644330727
9	147135	20066.479642253503	0.567497547809
9	147253	20081.072100719288	1.846796581793
9	147341	20093.728264677656	0.568981177919
9	147405	20102.39986766115	0.975577686308
9	147436	20107.72234947448	0.838408208173
9	147610	20131.78442242471	0.675023073237
9	147681	20143.182905687621	0.622682881542
9	147744	20151.80503089777	10.745675948588
9	147868	20170.463903001044	0.822923233407
9	147874	20172.025113069545	0.86536656823
9	147891	20174.439134483552	15.607262464668
9	147924	20179.828045182302	4.143289055147
9	147927	20180.529089801711	8.37070883617
9	147985	20188.675791232615	7.905164518869
9	148134	20210.801027547196	1.469357527919
9	148139	20211.728609759827	3.880068000858
9	148162	20214.958959226124	8.990749366009
9	148480	20257.930863013442	1.284035874494
9	148491	20259.868390600987	1.882001447443
9	148536	20265.223402736287	1.693622181821
9	148709	20287.66932235029	0.480090165231
9	149060	20333.588794098179	0.437411598302
9	149078	20336.130152960437	0.543853007536
9	149128	20343.125972785043	0.781795814633
9	149170	20347.839064353319	3.362466651279
9	149193	20350.608147791994	0.716629111115
9	149226	20355.215611001278	1.85974065066
9	149373	20375.435160339472	7.390440583665
9	149498	20391.605267161863	5.656292352331
9	149530	20396.272787385234	7.129249905854
9	149673	20416.947511699407	6.532541329203
9	149730	20424.315856165515	5.835555714604
9	149752	20427.250782338466	5.251840528833
9	149776	20431.639084105224	0.630361438822
9	149804	20436.108887366002	3.024203207075
9	149818	20438.842469173233	9.617847471636
9	149828	20440.617005712102	3.495688945969
9	149833	20441.6069002386	4.97148655704
9	149874	20447.929938562893	3.229473626799
9	149898	20450.281902345017	0.972009586543
9	150212	20490.609319727103	0.621187563846
9	150225	20491.958990417075	0.476617354853
9	150297	20502.132474670167	2.968882864999
9	150580	20538.057969842319	0.461369506083
9	150586	20539.481970104276	0.711179086613
9	150609	20542.7486783915	4.931322933676
9	150619	20544.084025326398	1.243004049122
9	151051	20601.706243825592	0.676264821459
9	151081	20607.541775944531	2.534976038844
9	151098	20609.927247976493	2.698810815768
9	151152	20616.837472448943	2.795603688891
9	151189	20621.451611917864	6.236303849124
9	151302	20637.021410361052	11.026815491505
9	151351	20644.91310800349	3.614309054165
9	151407	20650.402976090067	1.717529013595
9	151467	20659.373034730532	2.168428862266
9	151753	20697.350661342059	2.047994302392
9	151825	20707.131352047833	2.934101731222
9	151832	20707.970525726747	3.080726625486
9	151958	20724.808712347389	45.061563521445
9	151968	20726.519737588499	12.694801811943
9	152048	20737.124460298218	6.610485863654
9	152226	20765.194776567794	8.619813632986
9	152229	20765.66030708279	9.630460770464
9	152303	20774.251617111942	0.537634928152
9	152333	20778.262181712897	2.172848210046
9	152758	20832.833883583942	2.234294464051
9	153030	20869.730739565591	11.514950425454
9	154014	21010.398915557911	0.790623708395
9	154192	21033.601356834472	2.010192227627
9	154238	21038.877342978047	2.00754273905
9	154286	21046.601000108963	0.781414763117
9	154418	21064.386716558431	0.510090190405
9	154617	21091.071851357648	18.398904799625
9	154635	21093.432209519826	6.54211009162
9	154917	21130.865283446032	0.983247050596
9	154972	21138.507302091429	2.189612033367
9	155082	21155.209494299881	9.164790549261
9	155144	21164.690115168897	16.68527883357
9	155189	21172.251541803563	2.8272909191
9	155192	21172.975809169393	2.646817537003
9	155220	21175.648344142799	8.69566412502
9	155230	21176.779989481642	13.542842556493
9	155287	21183.31156007342	11.417977160259
9	155348	21190.791617037794	5.122820620967
9	155404	21196.941906538625	0.832921743486
9	155690	21235.294801815105	4.53306373727
9	155702	21237.063611051085	0.891393738519
9	155725	21240.368290280289	0.580115403607
9	155806	21253.609636732209	0.984209803818
9	156029	21282.022849172374	10.911775812506
9	156048	21284.678407756818	0.875395742245
9	156114	21294.09363422652	0.654950882914
9	156243	21310.624938972689	3.325240075882
9	156267	21313.983669992139	14.938656622041
9	156281	21316.010290658215	2.624321783163
9	156400	21332.150119157621	0.630243832199
9	156555	21352.418201598313	7.882437620884
9	156611	21360.386345313744	7.068730387042
9	156754	21381.046326983555	0.787741123838
9	156776	21384.160892351226	0.50595303583
9	156807	21388.340244876614	0.46809242079
9	156861	21394.612459155053	0.706646232726
9	157298	21452.794074045051	0.588939676946
9	159164	21709.901027450495	11.724518352024
9	159901	21810.215958431013	1.455457087175
9	160904	21943.670971395562	0.637175681489
9	160959	21951.719613295025	0.936014073901
9	160970	21953.077910161834	2.539135182301
9	161061	21967.262653438026	2.244952205509
9	161148	21979.391948800884	1.348346586432
9	161157	21979.878549877764	2.742607306605
9	161237	21992.369994402792	0.617287948495
9	161637	22046.081859151065	2.742215571696
9	161642	22046.576509685559	2.619732871096
9	161681	22051.215232230559	5.459453603201
9	164614	22449.737904432851	0.835861140862
9	164776	22473.034097976625	6.742252520485
9	164847	22484.147532771589	2.452108320693
9	164854	22484.911869040845	2.57444130705
9	164901	22489.38361186545	2.061468531231
9	165024	22506.444874904646	11.002462502397
9	165192	22531.044207748878	12.749814832489
9	165306	22546.282326803976	1.712835931363
9	165474	22568.303782193519	4.161353235743
9	165925	22627.803866921476	4.969733879203
9	166112	22655.890057143866	3.297700430653
9	166269	22676.980112007882	1.789277718564
9	166304	22682.592873680981	0.803774932912
9	166354	22691.342726157762	18.086785576114
9	166383	22694.879230180492	3.546764430623
9	166511	22715.179743761537	6.238476034962
9	166518	22715.736721767732	4.370330576711
9	167296	22817.415697104824	0.639734044531
9	167382	22827.648889666251	2.934516741369
9	167600	22857.514748960093	3.550337370236
9	167619	22859.113634455913	1.204710508299
9	167858	22893.139916378967	6.106878817981
9	168412	22970.266801873695	5.805102765261
9	168531	22986.411919065105	0.751703683659
9	169120	23066.11456472562	6.842210614977
9	173421	23652.088436626974	4.106394233009
9	174127	23745.684993963227	11.163547679271
9	174437	23787.483360226224	14.953275894095
9	174718	23826.748957056927	0.729576893849
9	175135	23882.914577802836	0.663635531068
9	175167	23886.701676869307	0.544331338583
9	175234	23896.294133442928	0.795975297922
9	175863	23983.727978083074	4.213590496225
9	176205	24031.543771212876	3.669566608881
9	176230	24035.589337384098	5.998189934728
9	176241	24037.811319465566	2.27520675807
9	176319	24048.720542827952	4.900447324763
9	176342	24052.721945505734	8.7951583847
9	176374	24056.762503562406	1.85194218739
9	176489	24070.976911216932	1.56822045317
9	176524	24076.788495884049	2.73914307304
9	176579	24083.560113602649	2.261100150252
9	176593	24085.289858119055	3.159399336172
9	176890	24122.572155783242	7.77144969192
9	177003	24138.658604043638	10.604046070705
9	177017	24140.524457234712	1.931503466712
9	177169	24162.98786034599	1.515543745971
9	177196	24166.406072833214	4.92480157271
9	177601	24219.08210924367	1.824883903746
9	178885	24394.765205414464	7.453990442349
9	178940	24405.664421309401	2.666460231697
9	179085	24426.449761844343	3.630923574843
9	180078	24558.93706316096	4.986720850167
9	180131	24566.874218134258	4.618953415143
9	180474	24613.952051197878	14.568693701957
9	180493	24618.093594900799	9.228488108472
9	180798	24657.049116702657	1.484772662406
9	180897	24671.608243819048	1.948235122806
9	181152	24704.810112780616	2.15986751759
9	181551	24760.477066047356	0.423448379431
9	182261	24855.796931985357	6.921688550161
9	182312	24863.972038373964	10.816686383239
9	182503	24889.866858505745	21.792786448128
9	182511	24891.130483415778	3.618202024087
9	182545	24895.353215935137	2.674280045541
9	182711	24917.732356087174	10.627328587931
9	183977	25089.51689951062	0.621632572915
9	184092	25104.548102064017	5.720793500234
9	184127	25109.786816387069	3.363321781932
9	184572	25171.077885996596	2.392659073692
9	184580	25172.422571146674	1.652611147311
9	184729	25191.460481530891	2.423902637555
9	184800	25201.236087190918	0.632275432302
9	184863	25208.928084221155	10.881396783044
9	185113	25245.06301926109	0.98847370632
9	186682	25456.831133291541	11.130066220938
9	187025	25502.097878305609	6.353078246379
9	187297	25537.995961020044	6.794697096685
9	187477	25561.097785767162	4.714271184366
9	187496	25564.363578185759	5.284558370431
9	187499	25565.217718843691	4.515569289776
9	187547	25571.8303622222	1.208582827055
9	188013	25634.162335853595	22.442029090381
9	188159	25654.989305290666	6.278282010153
9	188164	25655.904003200627	4.966280343003
9	188236	25665.805571316175	4.452677798796
9	188253	25667.546338005171	2.051293124351
9	189154	25786.628927232041	2.019687412121
9	189259	25799.420680973721	3.840605225564
9	189292	25804.564482584452	2.284999948476
9	189302	25805.950215408714	2.644668098203
9	189666	25856.156487912076	5.177820427569
9	189809	25877.310619729569	3.359342679055
9	189884	25887.28872810034	4.895560144711
9	189988	25901.274516675108	3.665619926463
9	191043	26046.050774167008	2.050520739452
9	191253	26075.966884391146	4.231546273526
9	191310	26084.067076944741	0.788847744605
9	191350	26089.767725449701	4.300152766196
9	191443	26104.476573165268	7.421638204889
9	194054	26458.580345858996	1.642591385787
9	194270	26488.623998177179	6.028759649531
9	194398	26504.00568099691	2.958814434748
9	194458	26512.826749009764	3.310442724415
9	194519	26520.879127932883	5.961950647821
9	194689	26544.926261075526	2.360966017229
9	194739	26549.795164734669	0.513020879682
9	194761	26552.276530440695	23.532924964167
9	194810	26559.894359358757	32.217777379188
9	194821	26561.74553158156	0.453181357868
9	195035	26589.271482880585	2.706210575962
9	195314	26626.410686547759	7.407897107729
9	197261	26889.873983924209	4.677335079198
9	197271	26891.613760094696	0.848867496755
9	197499	26923.262698642096	0.729643098172
9	197730	26953.965720201168	4.171402040112
9	199550	27194.007225652806	11.192306320682
9	199558	27194.962414891853	1.592135197054
9	199673	27210.256777171298	0.464672867907
9	200174	27277.613688121523	1.526300294073
9	201602	27472.770693399219	5.293742652432
9	204138	27808.760771832582	19.255767616759
9	204177	27814.484633828015	16.544508204995
9	204652	27878.015963487112	4.771906293282
9	205648	28012.106668934764	2.236474203139
9	205832	28038.643890280115	12.149349472537
9	205860	28042.578856559169	12.672766520513
9	205971	28056.069128737761	0.40462726485
9	206134	28078.683167441024	8.851063957375
9	207254	28229.169374377486	1.92261362026
9	207375	28246.485649754592	11.206414879237
9	207512	28264.702879772265	3.880686589823
9	207520	28265.725619797991	3.84522605037
9	207713	28290.898435604829	5.276845941736
9	207795	28302.063955983962	2.812776837818
9	207883	28314.855047766515	0.81940689343
9	207922	28319.40858963572	1.641523173713
9	208106	28344.004839440087	2.092474538368
9	208109	28344.622440286843	0.617600846756
9	208127	28346.824140876091	2.275705844767
9	208151	28350.815989653839	1.472730277736
9	208441	28390.438904056581	0.544569848152
9	208534	28403.185885872201	2.772747068896
9	208537	28403.673619610605	1.422784736702
9	208542	28404.643141044279	0.969521433674
9	208786	28438.848414431069	0.960697031254
9	208789	28439.471372183574	1.597732542191
9	208924	28457.904005993413	0.903766370285
9	208945	28461.225905020696	1.957064720597
9	208993	28468.629133420971	6.829642993656
9	209060	28477.006227838734	7.018551568805
9	209072	28477.947630301046	10.845771979376
9	209282	28505.543174031444	7.461471111385
9	209955	28595.150288674766	0.587610440375
9	209976	28598.762814306067	0.99386737803
9	209991	28600.89406675228	0.817449473171
9	210867	28720.277070608658	4.090173472828
9	210882	28722.631662746395	3.0504840318
9	210934	28729.753804300695	3.017558641082
9	211036	28741.919030973054	3.321484416622
9	211047	28743.858831186238	1.717294402341
9	211056	28744.308288802876	3.321604285034
9	212666	28960.921115515816	2.8842737917
9	212788	28976.781375757434	4.515176801477
9	212913	28992.353810571941	1.861651728958
9	212933	28995.599729198232	0.669305833103
9	212956	28998.661279452979	1.64051756496
9	212980	29001.69062944042	1.788122414102
9	213213	29036.694395982163	0.929905111529
9	213216	29037.382429718055	2.205527400977
9	213258	29043.037044153936	0.827023082366
9	213593	29088.571277895588	0.406373174768
9	213648	29096.779434368964	0.803171313647
9	213687	29101.128341897642	0.93987068506
9	213810	29119.941304090079	0.535774354497
9	213834	29122.904171848131	0.860793159204
9	213899	29130.471495241087	0.495599659439
9	213959	29138.015260624581	1.363169597974
9	214055	29150.678515797783	0.511361554405
9	214263	29179.099379672037	3.730501706027
9	214542	29218.412229407272	0.962696712511
9	214580	29223.503746130336	7.00696108558
9	214897	29262.956488496734	3.101842204419
9	215042	29282.823007437931	5.466177205894
9	215081	29289.255667761173	8.640052081774
9	215285	29317.449479675688	0.77385187191
9	215467	29341.844005466784	20.40718862161
9	215472	29342.376151404223	0.532145937439
9	215574	29357.784932912159	0.425837134803
9	215601	29361.063352622762	13.048033739325
9	215659	29369.668817669405	5.192409519575
9	216863	29528.061628589014	3.126048606525
9	216866	29528.730399504004	1.282607482393
9	216869	29529.296215006409	0.565815502405
9	216875	29530.24607227056	1.938006143749
9	216885	29531.744990731568	0.900078041479
9	216911	29535.202977627355	0.499937769445
9	216927	29536.62647328044	10.160753213547
9	216930	29537.244146876528	0.617673596088
9	216936	29539.021507974273	14.387407172003
9	217036	29552.099516578975	4.994115585842
9	217623	29630.467787268506	8.108165594821

