version 2
run First_exit_2-12-20191125-12:13:48-725
attr configname First_exit_2
attr datetime 20191125-12:13:48
attr experiment First_exit_2
attr inifile omnetpp.ini
attr iterationvars ""
attr iterationvarsf ""
attr measurement ""
attr network ResponseTimeNetwork
attr processid 725
attr repetition 12
attr replication #12
attr resultdir results
attr runnumber 12
attr seedset 12
param **.Source.interArrivalTime exponential(4s)
param **.jobPriority bernoulli(0.4)
param **.PS.serviceTimeU1 "uniform(0.4s, 1.0s)"
param **.PS.serviceTimeU2 "uniform(1s, 1.2s)"
param **.SS1.serviceTime exponential(0.4s)
param **.SS2.serviceTime exponential(0.8s)
param **.PS.exitProbability bernoulli(0.2)

vector 0 ResponseTimeNetwork.sink lifeTimeU2:vector ETV
attr interpolationmode none
attr title "lifetime of arrived jobs U2, vector"
attr unit s
vector 1 ResponseTimeNetwork.sink totalServiceTimeU2:vector ETV
attr interpolationmode none
attr title "the total time spent  by arrived jobs U2, vector"
attr unit s
vector 2 ResponseTimeNetwork.sink lifeTime:vector ETV
attr interpolationmode none
attr title "lifetime of arrived jobs, vector"
attr unit s
vector 3 ResponseTimeNetwork.sink totalServiceTime:vector ETV
attr interpolationmode none
attr title "the total time spent  by arrived jobs, vector"
attr unit s
vector 4 ResponseTimeNetwork.sink lifeTimeU1:vector ETV
attr interpolationmode none
attr title "lifetime of arrived jobs U1, vector"
attr unit s
vector 5 ResponseTimeNetwork.sink totalServiceTimeU1:vector ETV
attr interpolationmode none
attr title "the total time spent  by arrived jobs U1, vector"
attr unit s
vector 6 ResponseTimeNetwork.QueueU1 queueLength:vector ETV
attr interpolationmode sample-hold
attr title "queue length, vector"
vector 7 ResponseTimeNetwork.QueueU2 queueLength:vector ETV
attr interpolationmode sample-hold
attr title "queue length, vector"
vector 8 ResponseTimeNetwork.SS1 queueLength:vector ETV
attr interpolationmode sample-hold
attr title "queue length, vector"
vector 9 ResponseTimeNetwork.SS2 queueLength:vector ETV
attr interpolationmode sample-hold
attr title "queue length, vector"
0	15675	10003.558284069799	3.428747170812
0	15680	10004.803476547728	0.840818520961
0	15685	10007.321149006995	0.835842899466
0	15690	10008.198843001132	0.537530032825
0	15705	10014.808091169336	0.444851393439
0	15712	10015.809392147102	0.845503152395
0	15720	10020.574554439632	0.413372448925
0	15725	10021.638144003211	0.96375795058
0	15730	10026.075941629044	0.402876170585
0	15745	10043.2231542763	0.913680959677
0	15755	10046.018956727687	2.066039392932
0	15760	10047.004909828428	0.866099898005
0	15765	10053.191356495923	0.650196295697
0	15770	10054.068908451199	0.715559595497
0	15780	10062.355442062765	1.970408326818
0	15790	10065.407730942657	2.420813570789
0	15795	10068.09928793876	0.828656443022
0	15802	10073.834236261754	0.779441903671
0	15815	10083.238797960201	0.777663795091
0	15820	10088.172758253931	0.541610837402
0	15825	10090.964879458868	0.566698847013
0	15837	10093.496202355485	2.062589308989
0	15840	10094.384542798578	1.409613198487
0	15845	10109.184798387168	0.439250719314
0	15850	10115.235261924381	0.860630260548
0	15860	10124.249978358435	0.964018301433
0	15865	10126.770195389986	0.635756955668
0	15875	10136.102202910948	0.740267291479
0	15880	10136.915520339136	3.224384306069
0	15885	10137.854396574851	0.800456048362
0	15915	10163.402874213332	2.49349304875
0	15920	10166.804019814113	0.765677456744
0	15927	10171.342244956213	0.456043156004
0	15930	10172.279976528454	1.248043268563
0	15935	10173.75989900377	0.998525408236
0	15955	10196.57749277905	1.712986041109
0	15960	10197.9513047359	0.570189639926
0	15965	10200.122334832711	0.470071239909
0	15970	10205.72611690404	0.404056228558
0	15982	10211.244157276882	1.976473191046
0	15985	10211.909570654875	0.745381894462
0	16000	10224.279518764981	1.364999040562
0	16005	10226.772835258399	0.419443370029
0	16010	10235.398544729479	0.740687500173
0	16015	10236.763460695085	0.587633282319
0	16030	10242.096773152568	0.780147689461
0	16052	10245.023727750163	4.368066106259
0	16062	10253.335145925067	0.958701979881
0	16070	10254.393073120237	0.71844075101
0	16080	10266.589788082607	0.77804254354
0	16085	10273.90296287812	0.595054328116
0	16090	10276.351626635168	0.605293047335
0	16095	10279.05248191186	0.995878003119
0	16100	10284.989968806432	0.926173139131
0	16105	10287.288435840756	0.911520191189
0	16110	10291.177231081158	0.638235526066
0	16117	10292.995079590479	0.800625596102
0	16122	10293.916343999334	1.317518911638
0	16125	10294.451349771029	1.290785579944
0	16130	10297.181915690365	0.754032504512
0	16140	10302.100342345051	2.159356886387
0	16147	10313.300576325954	0.625952233514
0	16155	10314.413342236197	0.638398159899
0	16170	10332.487444450456	0.812767610978
0	16187	10342.903879354491	0.522155324509
0	16190	10343.355306822729	0.808761435627
0	16200	10347.911886308099	0.958063121838
0	16210	10355.68284773171	0.502626906103
0	16215	10357.878312513832	0.916105658142
0	16230	10361.923681839217	2.148348571128
0	16235	10362.475643212761	1.763643858382
0	16240	10364.583728631486	0.945843796479
0	16262	10370.87401815006	1.185211845557
0	16265	10371.701427896185	4.505082282153
0	16272	10372.715448632913	0.67297054911
0	16275	10373.293156196533	1.200643165151
0	16290	10379.418886835633	3.250844111538
0	16295	10381.020580204805	0.629085722379
0	16300	10382.751765346927	0.889414394414
0	16305	10385.330040687137	0.999273692025
0	16310	10385.851345070915	0.454509206256
0	16315	10389.588461138895	0.610493382066
0	16325	10397.005915267662	1.804948692992
0	16335	10423.090127330876	0.592766911769
0	16350	10444.176130853226	1.387770660632
0	16365	10461.487041826817	0.596221262263
0	16402	10490.730557073952	0.622791669285
0	16405	10491.177717814707	0.891499110487
0	16412	10494.276187130146	0.998269887595
0	16415	10494.84621822791	0.614713017734
0	16420	10497.084915363002	0.540359597933
0	16470	10513.051132401523	3.08645230928
0	16475	10520.009178518957	0.962671013735
0	16492	10526.970031880628	0.694033925468
0	16495	10527.477681157173	4.002409403069
0	16500	10532.902396267472	0.960546085611
0	16515	10547.202496457141	0.656642024778
0	16535	10563.954967722326	1.690722550113
0	16570	10585.181291303411	1.270737423076
0	16575	10587.240000880646	0.710796473268
0	16584	10592.672158422667	0.905552237993
0	16622	10609.387443390298	0.867501615407
0	16630	10610.824336135045	0.670399035001
0	16641	10612.230633696824	5.039346289416
0	16647	10613.229051759795	1.673449555276
0	16662	10615.852981250257	4.238174609084
0	16665	10616.633453440982	0.835843730397
0	16672	10617.536126041417	0.901276694005
0	16675	10618.178828942501	0.834436029461
0	16687	10620.86523578096	2.619083800947
0	16690	10621.41954950773	1.13992345663
0	16705	10642.116899283513	0.69742490137
0	16710	10651.199038178222	0.738359636394
0	16715	10652.874202082303	0.93761624326
0	16720	10672.329286201838	0.606216373341
0	16740	10689.777484435221	0.516106289532
0	16760	10701.273148799228	1.018981431133
0	16772	10712.8719267488	1.189705760558
0	16775	10713.302723562579	0.598402961612
0	16790	10742.28798956356	0.796546565834
0	16795	10750.107572464152	0.808915443346
0	16805	10765.221968445243	0.616681514448
0	16815	10773.04576741266	0.438349404465
0	16847	10788.77806301132	1.180821644649
0	16850	10789.761662379011	2.613597003137
0	16855	10791.172431372385	0.546532529732
0	16865	10793.671529579599	0.428352852399
0	16870	10797.55039557084	0.578000420053
0	16887	10813.704845708592	0.925012866501
0	16940	10842.976969125419	0.976353698969
0	16945	10851.939145153283	0.502450932516
0	16950	10859.201293143259	0.675122733926
0	16955	10864.019191416633	0.585257443599
0	16960	10866.707684652527	0.723114199238
0	16970	10870.478880505396	0.660912297107
0	16975	10871.522113511606	0.606337453984
0	17002	10885.982549977558	0.436830912344
0	17005	10886.511376040684	0.622139130043
0	17010	10892.989580508686	0.892844942398
0	17035	10901.484998964474	1.23181586954
0	17040	10902.556225896864	4.419234619943
0	17047	10904.032183464789	0.509591552382
0	17052	10904.888512768815	6.630925005585
0	17065	10912.346118923391	0.78504489176
0	17085	10922.418230089672	1.978042275015
0	17090	10927.229728850324	0.904909237335
0	17110	10939.44094895446	0.669874903036
0	17115	10947.10282840441	0.849018335529
0	17122	10959.048353922536	0.513646400161
0	17140	10970.500710581625	0.806074003456
0	17145	10975.876504244667	0.499639663007
0	17150	10982.556030785333	0.873266321979
0	17175	11004.688439501986	0.6380275195
0	17205	11012.70248534184	0.76769743464
0	17210	11017.670040779738	0.955629386101
0	17215	11024.025812949237	0.847067648312
0	17247	11033.861349201934	0.622611216828
0	17250	11034.277784065516	0.917030426664
0	17270	11050.898286817063	2.184274356783
0	17275	11051.519880558615	0.451209381595
0	17305	11066.902913718298	0.906315348148
0	17315	11069.878870635797	1.418713247583
0	17330	11089.463219184932	0.91215314907
0	17335	11091.999615045473	0.414492940623
0	17360	11103.802867310915	1.4615550978
0	17370	11107.918271718571	0.637989034131
0	17385	11118.1314020129	2.012974255088
0	17395	11131.579967599017	0.79814533256
0	17400	11133.569736228923	0.570811136533
0	17410	11143.702115449178	0.467400925374
0	17417	11156.893840716456	0.742301338259
0	17420	11157.863121630859	1.237209853996
0	17435	11164.704266358366	0.874674925394
0	17447	11176.629561580948	0.811774014868
0	17455	11181.177799886368	0.841617577989
0	17462	11182.101861738272	0.753620269941
0	17470	11183.97781338258	2.347408140814
0	17485	11192.750944991344	2.081990758199
0	17505	11202.052567267874	2.275708439223
0	17510	11203.273199488746	0.665513151698
0	17525	11214.651775745808	2.445128926118
0	17530	11216.217936929539	0.723335651355
0	17535	11219.220218654942	0.764743502066
0	17550	11238.022184919973	0.606082322542
0	17555	11240.485665547092	0.465718227718
0	17565	11242.634565447603	1.570872663582
0	17580	11247.284177438343	3.344980225722
0	17585	11249.730529923551	0.826726681087
0	17610	11269.241505519188	2.437171256181
0	17615	11270.170776786603	0.892085853079
0	17620	11272.703405674215	0.729130626237
0	17645	11278.48203580804	1.445951231531
0	17662	11285.866824656623	0.702340383967
0	17665	11286.46558033092	0.843509091781
0	17672	11288.103768798644	0.745454130648
0	17680	11290.16498972311	2.611743280615
0	17685	11292.938757000674	0.805822402332
0	17702	11329.983364804786	2.154756634335
0	17710	11335.691846958224	0.65776158357
0	17730	11339.677153536324	2.973793194253
0	17747	11342.377570994835	0.479038713733
0	17750	11343.165962657457	5.956882454219
0	17755	11344.141098114592	0.484369887877
0	17765	11351.785419490419	0.453391503915
0	17770	11358.021407968181	0.709630232304
0	17775	11364.050251575118	0.425278148334
0	17790	11366.485249216585	0.988849392864
0	17795	11368.245746344199	0.554831793485
0	17800	11369.322846945505	0.867189859319
0	17805	11370.960082126139	0.709201451298
0	17812	11373.883943995636	0.434652352892
0	17832	11384.901058866788	0.798991095647
0	17835	11385.733798443578	1.520603503898
0	17847	11396.850968261097	0.903213686087
0	17850	11397.489187643059	2.402145438781
0	17855	11399.178180412531	0.561373361945
0	17865	11407.765091775507	0.418865654059
0	17870	11410.256639798077	0.510031373333
0	17877	11411.84694307814	0.678499233723
0	17880	11412.842840268553	1.369924401883
0	17885	11424.561056657688	0.979940329306
0	17892	11429.248844349002	0.989822686464
0	17915	11434.132150281454	2.195622504847
0	17925	11436.397730467422	0.427659927867
0	17937	11438.855366678556	1.502482990309
0	17940	11439.405781583881	2.021149619474
0	17957	11443.10844676326	1.366394735174
0	17975	11446.035314849429	1.657347998306
0	17984	11452.258938160994	0.999107066356
0	17995	11455.946215851838	0.820367840771
0	18017	11474.757467412542	1.175891144962
0	18030	11476.644921418191	2.169214473792
0	18035	11480.136609006917	0.631106780702
0	18055	11484.740565731453	0.969531253073
0	18060	11486.067118128511	0.956891480135
0	18065	11489.081376704488	0.794038743712
0	18082	11492.947086305705	1.829475636408
0	18090	11495.720068623059	0.51338781775
0	18120	11512.658699815523	0.596623692103
0	18130	11527.170944445631	0.471788734337
0	18137	11531.724698055396	0.904960103193
0	18140	11532.474607085996	0.78735989931
0	18145	11535.199440127129	0.9691254206
0	18152	11536.59544917023	0.907713262644
0	18165	11545.862475568659	0.780153009947
0	18170	11546.448488524176	0.534194834437
0	18180	11553.046297585056	0.460635229852
0	18205	11569.019097819144	3.880916504063
0	18210	11571.703731341224	0.836899909843
0	18215	11572.587406604485	0.670940783387
0	18225	11576.753119450872	0.566639309935
0	18230	11579.899329909706	0.448809221946
0	18250	11592.631299624078	0.69195075375
0	18260	11598.117766085017	0.409379210649
0	18272	11606.594260757445	0.815792725339
0	18290	11611.023123261783	0.687764364295
0	18295	11615.003025389117	0.723556897696
0	18307	11617.819755178316	1.99229256521
0	18315	11619.369612937384	2.219049128737
0	18320	11622.309415832245	0.848464856111
0	18325	11623.012808647741	0.699447765294
0	18355	11641.429543459893	0.544823367195
0	18365	11651.574933506069	0.701521121524
0	18375	11665.382059706738	0.507140569761
0	18392	11680.750661127402	0.984074625874
0	18405	11684.23972280165	0.769002043782
0	18410	11702.004948738255	0.577144378796
0	18430	11713.403824721079	1.898070274195
0	18452	11718.362747221872	0.578502277844
0	18460	11724.489250416224	0.472928049276
0	18465	11728.594010969554	0.448296000948
0	18470	11731.527178969774	0.91718731802
0	18482	11736.609171410481	1.16921455275
0	18485	11737.02266768582	1.803247681959
0	18515	11767.642127474227	0.771593369637
0	18520	11769.272453477824	4.469585507576
0	18535	11776.029188442708	0.997807446541
0	18582	11800.286163077936	1.955948854129
0	18595	11811.626432214495	0.886928870948
0	18605	11816.3231544074	0.849462567177
0	18625	11823.076670295891	1.519335672302
0	18630	11830.563893257708	0.92755556209
0	18635	11831.867711459163	0.957307164976
0	18645	11834.73779685712	0.772163628927
0	18650	11836.113482630958	4.138186218239
0	18675	11846.915804109714	0.620535352593
0	18680	11857.211197099665	0.744000429101
0	18685	11860.29170811515	0.545821481291
0	18695	11868.451119621408	0.953066084161
0	18705	11887.451634498889	0.887955553504
0	18717	11891.965426048192	0.701230694167
0	18739	11901.753088796773	0.730084074289
0	18745	11903.511197871046	1.873000182565
0	18750	11904.377363469476	3.262080915228
0	18770	11917.088295406813	0.531194599252
0	18780	11921.642853210739	1.49661362856
0	18795	11931.571940672434	1.960635837852
0	18805	11935.607253327287	2.447295819044
0	18810	11939.824167710099	0.486907969788
0	18830	11943.731522497496	1.338005906999
0	18835	11944.810688181111	0.879711067723
0	18845	11951.046977484859	0.715736032324
0	18866	11963.582064937986	5.284272345573
0	18869	11964.275002268701	1.396807614517
0	18872	11964.699050644458	1.545825498821
0	18880	11966.314420430789	3.093376837975
0	18885	11969.501849015326	0.497246313933
0	18920	11991.187443236586	1.336060837821
0	18942	11996.518113177643	0.975062159169
0	18945	11997.344758539182	2.653922434211
0	18952	12017.242515350819	0.825150577072
0	18955	12018.146584716147	1.135072864254
0	18960	12019.469846989354	0.473008089187
0	18969	12020.956336350481	0.954706511181
0	18972	12021.396959271862	0.981721805988
0	18980	12023.753251035273	2.895289661069
0	18987	12026.028406929365	0.881667606346
0	19016	12029.717547828705	1.985947643164
0	19019	12030.357579716762	3.909624492535
0	19022	12031.270219358477	4.326051228343
0	19027	12032.20789420996	2.573434103645
0	19030	12032.790800087016	0.893428710178
0	19035	12033.631746298081	0.824825175805
0	19042	12037.747905213208	0.736608885787
0	19050	12042.766011094001	0.511644869717
0	19065	12049.524535945775	1.248987811264
0	19070	12052.242816252839	0.431674035545
0	19082	12069.228047964792	0.782470915886
0	19085	12069.761799171637	0.947462095386
0	19102	12077.331389863626	1.249403210009
0	19105	12077.830548617453	1.817335069925
0	19115	12086.717556216872	1.842656852911
0	19135	12096.183728062318	2.911569032219
0	19147	12107.219856277661	0.737502027582
0	19160	12110.461260899062	3.804348524246
0	19170	12112.582157496665	3.662207594073
0	19175	12120.114887173153	0.596511349035
0	19185	12125.542859489391	1.360231245722
0	19195	12127.195173740265	1.4262884621
0	19205	12131.166463685085	1.432341170306
0	19225	12148.537153867466	0.611541498965
0	19245	12155.741666870739	0.864822040265
0	19260	12165.321875409755	0.461651973845
0	19265	12169.879786438812	8.380181512935
0	19272	12173.112235362677	0.687413652195
0	19280	12176.712438800334	0.711224173289
0	19305	12191.064092132299	0.97063950859
0	19310	12192.115746175695	0.668910005968
0	19320	12193.863585858648	0.517340143956
0	19325	12196.530368111599	0.54105641474
0	19330	12199.736179017525	0.894069094071
0	19340	12203.934063372576	3.74772393297
0	19350	12206.911828978103	0.878331329487
0	19365	12212.217263644115	4.649335114627
0	19377	12215.807762870459	1.426700366996
0	19380	12216.266243713569	0.697654824191
0	19392	12220.356923710282	1.974264756115
0	19395	12220.933874173329	0.965593089064
0	19400	12225.271965169932	0.408376302663
0	19405	12226.707653651791	0.91071332139
0	19412	12228.179957772348	0.470345643861
0	19420	12229.656755641322	1.562320587627
0	19435	12242.526174847051	0.978829256073
0	19440	12244.111033022435	0.481308609108
0	19445	12245.025968671683	4.908304384812
0	19455	12249.521389410773	0.545156325027
0	19465	12254.297618638434	0.926992216893
0	19475	12276.639146668363	0.972949036676
0	19487	12289.985705387181	2.46762174658
0	19490	12290.560424955011	1.172710670363
0	19505	12297.48877627771	3.761476178719
0	19514	12298.423922281605	0.6780311835
0	19532	12301.522281686295	0.849978627963
0	19547	12304.780011272323	1.412668220221
0	19555	12306.354857361906	1.794812515585
0	19560	12307.914143932621	0.474095528247
0	19567	12311.67685961928	0.855117532006
0	19577	12313.451694485336	1.82669333107
0	19580	12314.261169533595	1.029470279636
0	19585	12330.168325755567	0.702352601988
0	19595	12346.750396620047	0.828591260447
0	19600	12348.296173174693	0.455931637296
0	19625	12363.628437176729	1.691696688898
0	19630	12367.593430644107	0.596264214907
0	19635	12368.752589221826	0.444118325319
0	19640	12376.887871806202	0.592616445292
0	19650	12381.582770180013	1.976018496232
0	19662	12382.842569434187	1.072071842226
0	19675	12385.989016251978	1.970760777091
0	19690	12419.622482613502	1.969520805087
0	19697	12421.489859523594	0.633267290564
0	19715	12433.471074236753	0.523862999259
0	19720	12437.504461412991	0.754785476299
0	19725	12438.571722728098	0.745051869564
0	19740	12454.862768938609	0.832722464716
0	19760	12460.188767376227	0.537692392385
0	19782	12475.213969600848	1.151530621275
0	19785	12475.781695103594	1.329689026273
0	19795	12481.484317178288	2.120643480496
0	19800	12491.351900527185	0.835825656354
0	19805	12492.957108221835	0.681251218868
0	19820	12503.830005942636	0.758038717834
0	19850	12517.090084889233	3.880522253676
0	19865	12526.981306880587	0.431489504315
0	19870	12529.976850654792	0.56620689258
0	19875	12536.07090194338	0.843881478347
0	19880	12538.242669063762	0.980856344476
0	19889	12539.064238808113	0.535115186824
0	19900	12544.939817012698	0.563983124215
0	19905	12548.985716133487	0.486058255471
0	19915	12555.945219979519	0.949949868303
0	19920	12564.516265197661	0.985555634741
0	19925	12569.196511916272	0.543625748297
0	19940	12583.379240726797	0.952306452114
0	19945	12596.362559109078	0.524696096312
0	19950	12600.528762250833	0.47825846849
0	19955	12601.264998156515	0.5316239167
0	19960	12603.571371656416	0.966503797937
0	19970	12609.078733514322	0.68356313468
0	19980	12612.071600665741	1.137356382424
0	19985	12619.890873148599	0.907107192371
0	19990	12625.318481151286	0.415945338923
0	20002	12634.98254535424	0.4914726499
0	20005	12635.393542628572	0.458124092752
0	20020	12643.894234565002	2.097504465213
0	20030	12649.903398403107	0.624522787798
0	20035	12653.269812855963	0.49981865827
0	20060	12662.821736259565	6.426835978642
0	20065	12665.892192339099	0.989170746505
0	20072	12668.413421022952	0.884317237558
0	20075	12669.068363537793	1.292935067682
0	20080	12672.906500231923	0.992339799087
0	20085	12673.990803418622	0.501083902502
0	20095	12680.782746557694	0.460243238136
0	20105	12686.015733729522	0.820920850663
0	20110	12687.011098224558	0.621512532746
0	20115	12699.525728979541	0.96569234631
0	20135	12721.29291448074	0.959033175837
0	20140	12726.373468972033	0.409895959171
0	20175	12747.787750145795	0.690439969773
0	20197	12755.029658041442	5.406780569039
0	20200	12755.49299985656	1.29437301973
0	20220	12774.51810886855	0.809315119172
0	20232	12781.883945367926	0.689029126707
0	20235	12782.70210292891	0.875045217869
0	20262	12790.322056544187	0.474913968688
0	20292	12799.552070110133	4.087208821548
0	20310	12811.57338523482	1.480324963438
0	20315	12819.473186286762	0.54018465546
0	20327	12828.241336366132	3.553969436442
0	20330	12828.711829986626	0.969358073324
0	20340	12839.443982221376	0.998464829067
0	20345	12852.091254200171	0.974614368845
0	20350	12859.232993853593	0.745305162854
0	20357	12863.665179829142	0.612019425584
0	20360	12864.488832774834	0.926848934215
0	20365	12865.442951908545	0.73839215776
0	20370	12867.26549870636	0.569404879073
0	20390	12879.976252365043	2.457188192289
0	20395	12880.524145612969	0.407142320834
0	20400	12882.997904545169	5.260002953468
0	20405	12891.587433208596	0.960175860859
0	20412	12895.598983330423	0.69846988162
0	20420	12897.51695565636	0.635054212017
0	20427	12904.946104202343	0.715255876118
0	20445	12910.599204238306	1.699673205113
0	20467	12923.620527848693	0.679512607772
0	20470	12924.210321088925	2.024957837057
0	20475	12926.0677818082	0.553590139002
0	20497	12946.581060648475	4.156468899432
0	20500	12947.368168127256	0.879104586204
0	20505	12952.403516162154	0.541673164396
0	20510	12955.656288383393	0.79527544044
0	20515	12959.18776772737	0.86166213206
0	20537	12966.27220628013	3.218296181001
0	20542	12966.800423075846	0.68577349806
0	20547	12967.624023184814	5.086812076897
0	20552	12968.05352224459	0.857474451161
0	20562	12970.435490030008	0.824642048264
0	20585	12976.812960803185	0.735157400696
0	20590	12978.82103437216	3.636535671869
0	20600	12980.9811719293	0.720024863025
0	20605	12992.364391705994	0.980839138804
0	20625	13010.202625163937	0.670131143229
0	20630	13012.011326381914	0.530838790676
0	20645	13026.597886421339	3.446367910669
0	20657	13037.253602645338	0.99640147211
0	20660	13037.680564576924	0.850126731878
0	20665	13043.129032978592	0.720322403964
0	20682	13053.344686374396	0.611127468292
0	20695	13063.595603026584	0.936314119911
0	20705	13076.40204591068	2.692011702247
0	20712	13080.944635910775	0.898378253682
0	20715	13081.768975719764	1.242730855724
0	20720	13084.261029027678	0.707752995705
0	20725	13086.574889698929	0.498175520822
0	20732	13091.979077165945	0.85715721813
0	20750	13096.451177133108	5.19669204708
0	20765	13108.012366973663	0.723729655985
0	20770	13108.602335097925	0.444824291253
0	20775	13111.348668170214	0.771465532063
0	20785	13120.691997611991	0.500873030163
0	20795	13129.167929262366	0.560327543365
0	20815	13139.971013681794	0.81103517497
0	20820	13140.691574704029	0.524962327909
0	20857	13162.150547419244	0.503579820367
0	20884	13179.464393167313	3.819596142607
0	20889	13180.268365693953	1.377996381906
0	20892	13180.724404484661	1.824040131848
0	20895	13181.138030289601	1.564091035537
0	20910	13217.758005822343	2.877586168571
0	20920	13225.286225432881	0.860368570825
0	20945	13273.221344634908	1.058621628237
0	20952	13275.355661064225	3.255221774389
0	20960	13277.294875961566	2.586537425645
0	20970	13279.705895300699	1.586990849517
0	20975	13283.974662959627	0.572922994616
0	20980	13291.397220771563	0.598760235449
0	20985	13293.85456720392	0.580432157684
0	20990	13295.078717637193	0.675835279655
0	20995	13301.683321528119	0.668460291717
0	21000	13306.795644199612	0.778903802112
0	21010	13317.856623738556	0.42394883954
0	21015	13319.31329026031	0.475801710179
0	21020	13333.36483359139	0.50406453521
0	21030	13339.052562801193	1.558361137934
0	21050	13350.197913332983	0.487014568318
0	21055	13355.760203338397	0.541601323802
0	21060	13368.576343607812	0.457570679905
0	21070	13373.73656525591	2.46734426862
0	21077	13375.571101936437	0.563354662945
0	21080	13376.280841270527	0.826017265533
0	21085	13379.28304809011	0.554912547115
0	21090	13380.343532694518	0.533545094728
0	21097	13383.876991881548	0.660633456754
0	21100	13384.640154537816	0.964253490989
0	21105	13391.554834890371	0.663956110505
0	21110	13393.01439594247	0.920380719332
0	21115	13396.586370745353	0.714062568592
0	21120	13406.302453356055	0.40190299293
0	21125	13409.90828846111	0.66565339393
0	21130	13418.343868154783	0.661783495918
0	21157	13427.308851720304	2.578746317039
0	21160	13428.223253153828	1.192202114033
0	21170	13442.989626442099	0.438426775159
0	21180	13448.654967123387	1.797169159074
0	21187	13453.569869702231	0.709586676164
0	21205	13459.783948329596	0.573158703512
0	21220	13468.690076058021	2.494079722857
0	21230	13474.559095745758	0.521233855095
0	21235	13481.607069562715	0.939454782149
0	21240	13487.876323249453	0.971648357669
0	21255	13492.465710999023	2.756082656789
0	21260	13497.348492688279	0.63172556744
0	21270	13500.051488489707	1.439217130654
0	21340	13522.901274001469	9.368305814904
0	21355	13535.930493390683	0.436129343836
0	21370	13547.5735276568	0.428795974003
0	21382	13552.831603168863	0.6070705513
0	21385	13553.30671495174	0.939694663101
0	21397	13557.215302769622	1.277710466839
0	21407	13559.053201670028	3.524806555547
0	21410	13560.029587511779	3.670867092818
0	21420	13571.488678888047	0.504457332147
0	21430	13576.430509618403	0.494150803968
0	21445	13581.398612672627	6.179217833385
0	21455	13588.626742753409	0.48252497022
0	21465	13592.052582986886	2.869471946338
0	21490	13618.099923762286	0.623278807336
0	21505	13626.208009773847	0.730434179259
0	21522	13632.882932355493	1.326274581182
0	21525	13633.871404130064	3.097902599583
0	21545	13641.014736219359	1.475223650167
0	21552	13643.248802266569	0.85653689513
0	21559	13644.049857190876	0.948145848054
0	21565	13645.29004690663	1.423917324184
0	21572	13649.815915776253	0.803056211676
0	21587	13653.053445384183	0.771708666626
0	21592	13653.764075423309	1.200299820332
0	21597	13654.60973680103	1.029878110182
0	21620	13662.17231043443	1.471093091948
0	21677	13706.504260930074	0.971334777679
0	21680	13707.136576789273	1.125519599624
0	21700	13713.16470494795	2.610977976278
0	21717	13716.575466887287	2.313142788764
0	21720	13717.206954544463	0.733954008839
0	21775	13748.922023158663	1.397947903751
0	21780	13750.655156665507	0.657181665534
0	21792	13773.099443680887	0.760211219266
0	21795	13773.759145019297	0.775305850226
0	21800	13780.279498879586	0.607169069396
0	21817	13793.415983388673	0.833588345842
0	21820	13794.091902935791	0.702341456976
0	21847	13820.39918084014	0.939025845937
0	21850	13821.374003459465	1.634957017869
0	21875	13837.558345145617	0.414717803756
0	21890	13862.10594383573	0.617628136696
0	21897	13871.64572504941	0.610272302106
0	21900	13872.419855885306	1.350654473804
0	21920	13889.022069709625	2.924603086571
0	21925	13895.682983842444	0.676456539333
0	21930	13897.722483871038	0.65163621502
0	21942	13910.775078832962	0.596922484739
0	21950	13913.417107681024	5.725291514822
0	21955	13918.694427214398	0.708006383013
0	21960	13922.43977642731	0.863025030075
0	21965	13930.833646128201	0.998096036585
0	21970	13937.015307882273	0.59455179642
0	21975	13939.826052976835	0.516456633527
0	21985	13949.185006316097	0.815089447191
0	22000	13954.179555829622	1.816813126853
0	22010	13957.71633589785	0.493738296069
0	22020	13969.284968590106	1.609762994321
0	22025	13974.59025121102	0.851518312469
0	22057	14009.478479131562	0.653723807912
0	22082	14014.839376798479	0.677409551804
0	22087	14015.706675613739	2.090592863085
0	22090	14016.658960229459	1.19933852884
0	22120	14052.89038245696	0.818906163145
0	22125	14054.199928708128	0.414801923279
0	22130	14057.727044069847	0.531074679503
0	22145	14060.296898483383	0.688529434878
0	22165	14087.733023040854	0.877849597484
0	22170	14090.397979909553	0.445857877145
0	22180	14094.656207689007	1.50362597444
0	22185	14106.169637133417	0.888636869239
0	22200	14115.756153586139	0.468778722361
0	22210	14125.990644042716	0.831954996008
0	22215	14132.750966978369	0.964443970658
0	22225	14136.538304969137	2.462343582948
0	22230	14140.053357212578	0.438541476335
0	22245	14167.116270746423	1.369110681977
0	22250	14170.581461763374	0.536463278485
0	22255	14173.48849243392	0.93916347581
0	22265	14176.773074434813	1.802150021111
0	22307	14193.134739989923	0.679057797883
0	22325	14201.474270515361	0.786734890937
0	22330	14202.598704559404	2.367158008803
0	22355	14228.285725129156	0.551557608228
0	22390	14240.4948911984	1.872282085899
0	22395	14252.514959142503	0.977094138972
0	22405	14254.405725056673	1.142722708855
0	22410	14255.801100233611	2.793132629478
0	22415	14266.777643462809	0.80223978553
0	22437	14275.695875215427	3.207869746228
0	22440	14276.43319864924	2.072974422505
0	22450	14277.868773100083	1.4224035391
0	22455	14288.928500902886	0.431365961907
0	22460	14291.160233254858	0.714251502836
0	22465	14292.30430146453	0.826704736706
0	22470	14294.220556220696	0.857842927519
0	22485	14307.75031647559	0.838868442969
0	22490	14308.809822335959	0.977655045036
0	22500	14311.09084949864	1.733912312717
0	22530	14333.379639414634	0.595435438165
0	22552	14346.668091312847	2.427370396955
0	22555	14347.65528502055	2.592111047242
0	22560	14349.788622053245	0.627606816869
0	22565	14352.559345076612	0.699881529342
0	22570	14355.28515872956	0.545305143064
0	22580	14358.265481855334	0.405039429991
0	22587	14360.298876855901	3.597364942407
0	22595	14364.173026539853	0.651317342836
0	22600	14367.594464525557	0.50829109801
0	22605	14368.956979083124	0.83931663367
0	22617	14375.962391283217	0.736116027087
0	22625	14379.54466948027	5.765951644069
0	22630	14381.126562425754	0.984845736437
0	22650	14417.973862030148	0.617300961679
0	22657	14419.287873263317	0.926015038555
0	22660	14419.768735401411	4.230350113254
0	22665	14426.133181715111	0.683364599524
0	22670	14428.516785794907	0.457721599843
0	22675	14431.603969040783	0.812120177271
0	22680	14433.085790138388	0.732398332562
0	22700	14444.416364032778	3.571769759674
0	22725	14460.42441650769	0.638212625729
0	22737	14462.514982688122	0.627790876108
0	22755	14474.255232653388	0.658841459919
0	22760	14477.953063777777	0.585708954372
0	22770	14480.090982657603	1.854039903156
0	22782	14488.366350345715	1.603855060042
0	22785	14488.998665678809	1.113433836858
0	22802	14496.483971228517	0.437568676844
0	22820	14504.58861032832	0.643852155562
0	22830	14507.065459067587	1.728358781721
0	22842	14509.855013393668	2.500122579729
0	22845	14510.394836305046	1.302500315982
0	22864	14530.345949728713	1.468429547729
0	22872	14531.580851599314	2.370028184687
0	22885	14533.503588034622	0.494263554597
0	22895	14542.175181700122	2.804737898609
0	22900	14549.354606153553	0.796391277248
0	22915	14567.126101935027	0.524877384445
0	22920	14570.459313374928	0.668926322879
0	22927	14581.316180077191	0.859668217693
0	22935	14582.493485100982	0.579828091511
0	22945	14588.899294998488	0.449273323454
0	22950	14599.284859552446	0.836224284023
0	22957	14602.753730726459	0.939806400333
0	22975	14606.350193168064	2.790836393086
0	22985	14608.302821471341	0.846439905372
0	22992	14613.844439426395	0.794119175617
0	23000	14615.108854994567	1.478407710255
0	23010	14622.043041917539	0.691459776065
0	23015	14626.205083294433	0.454327995796
0	23025	14632.162564057095	4.16416977905
0	23030	14634.498102218116	0.922060346557
0	23035	14639.75880877193	0.969087198563
0	23055	14655.767940560682	2.662449915196
0	23065	14661.837650005186	0.519774783822
0	23085	14678.190814816653	0.996287219366
0	23097	14686.73623471317	2.360437846559
0	23100	14687.34450089099	0.670117064278
0	23110	14691.829879790008	0.82063140315
0	23115	14696.216637732547	0.766332628345
0	23140	14706.643941534726	3.899195233153
0	23145	14707.861543758254	4.340773112391
0	23155	14712.38263670276	2.845934120032
0	23165	14721.049040404961	1.756228335683
0	23170	14732.66651311339	0.806081938883
0	23200	14739.193435837492	2.743170321958
0	23220	14748.579169910144	0.7370966624
0	23225	14750.389359394787	4.612218928015
0	23242	14763.915730887088	1.210175970353
0	23250	14765.174496116345	0.832975988243
0	23255	14766.139506943775	4.470822440251
0	23267	14769.387650879961	2.657325266067
0	23270	14769.836009390628	0.913428955656
0	23275	14773.585351583874	0.510931308661
0	23280	14778.925840393001	0.888161146361
0	23290	14801.458982667804	2.754601415893
0	23305	14825.943500579293	0.877677160807
0	23310	14840.099998589243	0.666256333422
0	23315	14840.859254505454	0.492551684007
0	23320	14843.350031841893	0.403098533116
0	23325	14845.224173080209	0.48994041062
0	23330	14848.665774771574	0.432147152768
0	23337	14854.119822055062	0.791878712596
0	23345	14855.894328974902	2.153123050395
0	23354	14863.062552959388	0.997684224881
0	23362	14864.971734388648	2.74109413296
0	23370	14877.116485528997	0.995464866795
0	23385	14894.637633563232	0.701316526672
0	23405	14911.684017960242	0.521696914732
0	23410	14913.214390739484	0.516091637965
0	23420	14922.192972708522	0.707428937219
0	23430	14930.19968765754	0.88276367513
0	23440	14933.772601560538	0.732131260401
0	23445	14934.978010372541	0.449107876699
0	23457	14938.503860381417	0.859319028305
0	23460	14939.119109228704	1.260120394779
0	23465	14940.013454238334	0.469329463691
0	23475	14943.0463265393	0.421778864972
0	23480	14947.018434629941	0.448173492448
0	23492	14953.923624697664	1.300519854746
0	23495	14954.728337720606	0.952230045222
0	23515	14961.703808735147	0.932270790683
0	23525	14967.821158286056	0.642723435909
0	23540	14971.06482356779	1.40230533346
0	23557	14983.433458437591	0.8164309295
0	23560	14983.976888424444	2.096549470675
0	23565	14993.879394654376	0.939141834155
0	23570	14996.962457423557	0.443586607417
0	23580	15001.796276110771	0.882034278288
0	23590	15018.659944431349	0.472202673089
0	23595	15023.456403937845	0.638514882326
0	23600	15026.057004861962	0.869425129471
0	23610	15036.226294871741	0.897383141285
0	23615	15048.849047688847	0.431495459657
0	23640	15071.133240934905	0.81266390672
0	23652	15084.197841298072	1.260514055069
0	23685	15097.849360519185	5.684395060097
0	23692	15103.112245496825	0.60489682206
0	23695	15104.01211649887	1.240739354081
0	23700	15114.60114940397	0.848256124509
0	23715	15125.560619121468	0.56046996587
0	23720	15130.353171353807	0.474759239191
0	23725	15142.831299627982	0.42018930451
0	23732	15144.6429285348	0.680102181481
0	23735	15145.242648477347	1.050486117145
0	23740	15149.681922437201	0.695904707024
0	23752	15158.600469039094	0.613656043587
0	23765	15167.237748629069	0.981672041537
0	23772	15175.303220917223	0.844394986564
0	23785	15185.264066478244	0.533093792805
0	23795	15190.378568381606	0.559914659463
0	23800	15191.943799708964	0.476146251801
0	23805	15195.988375561525	0.790628285473
0	23830	15213.128213921393	5.007683007527
0	23835	15214.225040511927	0.543196025025
0	23840	15216.803825440044	0.518983435631
0	23852	15222.082017341493	0.682667100988
0	23855	15222.499763595736	1.049308398393
0	23860	15229.202896630094	0.456617515022
0	23865	15231.383581186623	0.97892147922
0	23870	15236.758300348407	0.680932244705
0	23875	15238.414544971968	0.825637440477
0	23900	15265.164666892095	0.453052758239
0	23905	15271.148818022342	0.952543325815
0	23930	15296.159277313171	4.241231902657
0	23935	15298.373315682702	0.578465393418
0	23940	15302.505876802604	0.953708002297
0	23947	15315.586478699362	0.85953851277
0	23955	15316.946828201534	0.619993301621
0	23972	15328.776634823553	0.941493618209
0	23975	15329.468655178532	0.706762160695
0	23985	15331.134158599345	1.280679494025
0	23997	15333.193252801795	1.692217676934
0	24000	15333.599878869618	0.748605236768
0	24005	15335.909485387645	0.571661081212
0	24024	15339.376508120602	2.485379641197
0	24027	15340.362280343581	1.601187037946
0	24030	15341.295402736744	3.468112546857
0	24070	15356.992305074895	0.933471423294
0	24077	15364.264006787877	0.442056941101
0	24080	15364.768281422894	0.889286020653
0	24100	15375.356998434533	1.986376357131
0	24112	15385.517831311449	0.456748041511
0	24150	15394.692318855696	2.695623834281
0	24167	15411.467681073729	2.907084862658
0	24170	15412.224276538618	1.125419697133
0	24184	15414.947581682735	1.159309726934
0	24200	15419.472859821349	4.726058168293
0	24205	15422.38371406025	0.815161707159
0	24220	15436.430722671557	0.578958402574
0	24245	15454.982393747208	2.202342071482
0	24250	15457.190540203783	0.779065750679
0	24265	15465.249046605371	1.147466110036
0	24280	15476.868228119807	0.472547149612
0	24285	15482.696378298651	0.442748332722
0	24310	15495.529941604376	3.709332833856
0	24315	15498.129371423323	0.601621052902
0	24325	15526.890874998808	1.610364348146
0	24330	15527.742819370297	0.52445762502
0	24350	15543.487371515396	0.875463806931
0	24360	15546.353557996863	9.730580746085
0	24365	15554.781129491341	0.5930244477
0	24372	15557.436939241146	0.900877942704
0	24380	15558.986112721092	0.683444618649
0	24395	15564.047093823217	0.671806973591
0	24405	15567.510986660122	1.485436029216
0	24410	15569.999801051519	4.288182964656
0	24422	15573.981963732483	1.254007394268
0	24435	15576.15633626228	0.916720788642
0	24449	15582.399807112806	0.694838968571
0	24462	15585.64185026161	3.304308850069
0	24465	15586.379944763599	1.502813912675
0	24470	15587.332408712582	0.483804121288
0	24480	15593.261355316035	0.442599127023
0	24495	15597.568847602589	2.159929719055
0	24502	15599.067229751237	3.61465204764
0	24510	15609.918937295993	0.860674312199
0	24515	15613.619896987979	0.587784021767
0	24530	15623.169817686701	0.417055036686
0	24545	15646.096624546157	0.665913623245
0	24550	15648.687407187286	0.887811366608
0	24560	15665.064543547011	0.855861620093
0	24569	15668.365473697376	0.701940026693
0	24572	15668.79427245473	0.748495837403
0	24575	15669.467154655787	1.200597835764
0	24580	15673.628343609637	0.986375467433
0	24590	15680.896758826373	0.666719999849
0	24600	15708.020345585812	0.409464216419
0	24610	15711.821539756226	0.746973130014
0	24615	15716.83996436702	0.61282316139
0	24632	15722.751107038103	1.205327456605
0	24645	15726.050106125463	0.988937320421
0	24665	15740.422389983714	1.621140792374
0	24670	15747.259611649677	0.468956014421
0	24677	15748.028823215209	0.610942007788
0	24680	15748.496516866537	0.913221935998
0	24685	15750.895188390567	0.543462518416
0	24710	15772.210386233184	3.81594070657
0	24715	15773.236740430096	0.435784869688
0	24735	15780.184379071121	0.567445931351
0	24740	15794.107442185849	0.57787502259
0	24755	15802.614292027185	0.608246722165
0	24760	15804.625994417277	0.854315782711
0	24765	15808.303368083805	0.547846553987
0	24770	15820.18491632104	0.899674472678
0	24775	15828.419368297136	0.914253424481
0	24780	15830.669018666671	0.535178972268
0	24790	15833.509864456258	1.034337499721
0	24797	15834.580473839872	0.444963084394
0	24800	15835.39664364565	1.07427234442
0	24805	15836.228955402562	0.808957212744
0	24815	15844.756885820481	0.618829901563
0	24830	15848.497649514555	3.235071576169
0	24842	15864.747249593699	1.195291883387
0	24845	15865.577964624317	1.389174320366
0	24880	15888.72446998975	0.85343729388
0	24885	15906.483105334988	0.467011087248
0	24895	15916.424955817068	1.955669555495
0	24900	15924.664078772827	0.867200608412
0	24925	15945.438382951287	1.744097565427
0	24930	15948.085103113282	0.830092204083
0	24950	15965.673866960295	0.572185886977
0	24955	15973.568812952499	0.506575162057
0	24975	15985.93505951255	0.819581926148
0	24980	15987.227161361224	0.793509189738
0	24985	15992.946520252298	0.800506183319
0	24995	15999.116832554104	0.608171373187
0	25000	16002.24407929587	0.550192022976
0	25005	16002.956686466425	0.678569794958
0	25010	16006.054841106232	0.825382081745
0	25022	16010.965321762888	1.19283229988
0	25027	16011.685775548434	2.109082968766
0	25052	16024.871048093153	0.956445884689
0	25067	16028.68304745342	5.202109648967
0	25084	16030.602091633262	2.559697750666
0	25102	16034.651523980561	3.24189962033
0	25110	16035.883572006865	1.430895257992
0	25120	16038.241851617883	2.202767948247
0	25130	16047.117249826036	1.685681418832
0	25145	16058.322024485738	4.607243403466
0	25150	16067.686494574543	0.558030641777
0	25160	16070.755887783159	1.10693409091
0	25165	16073.129113443204	0.467576728528
0	25180	16105.187555928293	0.871910059499
0	25185	16114.813072712058	0.847428901913
0	25195	16121.13192253227	0.481098657101
0	25205	16125.985969823058	1.068662396655
0	25210	16127.360551582214	0.618051010137
0	25225	16131.156427026073	3.313056504311
0	25240	16156.22652105671	1.88657467992
0	25245	16160.629834495743	0.819168757135
0	25255	16172.578129617581	1.305804617945
0	25270	16185.301608928613	4.864947942684
0	25275	16189.622039794615	0.450625219103
0	25280	16199.078061317548	0.655432439456
0	25290	16201.44579958715	1.059727801595
0	25295	16202.054375303416	0.413352390612
0	25302	16204.365627068434	0.846260998538
0	25307	16205.118015827671	1.193094061226
0	25310	16205.789226217907	0.970442390219
0	25315	16211.433509565598	0.912276486401
0	25335	16230.898944804101	1.45653556368
0	25345	16238.546617794147	0.999794024788
0	25357	16241.145413187666	0.985548602467
0	25375	16250.493218309708	4.670046437937
0	25380	16255.098914859444	0.406508812401
0	25385	16256.154624728821	0.946082841093
0	25400	16267.048309966383	0.955475445045
0	25410	16270.672064021797	0.547362739919
0	25415	16274.096491335109	0.901355845854
0	25420	16277.431411409367	0.970343148103
0	25435	16283.628383939241	0.927874034038
0	25440	16302.059040548445	0.633249653503
0	25450	16328.681808056128	0.840459360601
0	25455	16332.383140148931	0.734411139181
0	25462	16335.474386047036	0.981438596873
0	25465	16335.98116541265	1.147196851149
0	25470	16345.131004049059	0.828962582536
0	25480	16347.643984863659	0.968338069181
0	25485	16361.74549531841	0.907496521855
0	25490	16369.941002254374	0.729535871278
0	25495	16373.49325518216	0.816162070259
0	25507	16383.942665626214	0.941401262148
0	25515	16385.377141800023	2.828293179255
0	25535	16389.385542246821	6.140859617437
0	25540	16391.035387687989	0.995941835362
0	25560	16423.819444590518	0.403021754185
0	25567	16425.778795594926	0.570461355522
0	25575	16428.281733309567	2.571642778816
0	25600	16459.203065811111	2.112289824088
0	25605	16466.66464966069	0.789274091925
0	25625	16487.395006953719	0.513240608759
0	25630	16491.683093652182	0.487406447856
0	25635	16496.99321610829	0.6371836612
0	25672	16508.109011855569	0.599672510754
0	25675	16508.709147877885	1.143331800358
0	25680	16515.473712861922	0.672722397977
0	25687	16516.471566306871	0.567580768932
0	25702	16522.743616740185	6.574263244818
0	25720	16549.118212500942	0.641556693567
0	25730	16551.77304894776	1.256511444008
0	25735	16554.516225734203	0.620212120842
0	25740	16558.278319888925	0.706083213305
0	25755	16568.098080929389	0.664013620559
0	25760	16572.633004307074	0.442730991263
0	25765	16574.552387540641	0.7811344238
0	25782	16579.089740635003	0.625148937517
0	25787	16579.706374305268	1.728700279864
0	25790	16580.687510619839	1.026375392583
0	25807	16587.717495873924	0.954314905731
0	25815	16590.304935400978	2.726593370547
0	25820	16591.573856004153	0.678227879805
0	25825	16599.993222726764	0.578131087217
0	25840	16611.432746868954	0.487331513362
0	25845	16614.529142931978	0.412413815688
0	25850	16615.685141430063	0.407121395413
0	25860	16623.774170049359	0.700107022375
0	25870	16640.86943434106	0.598469050089
0	25890	16656.614097370761	1.546731227836
0	25922	16665.211336865082	4.051144844422
0	25925	16665.931489757767	1.701272007053
0	25945	16670.347090889649	2.680989277578
0	25950	16672.592586175449	0.49264721619
0	25970	16686.029483220591	0.401113609318
0	25975	16693.184238639979	0.587556664459
0	25980	16695.330480110544	0.950884387223
0	25990	16708.051000212839	0.740248270985
0	25995	16714.042395515584	0.427111386787
0	26005	16717.682505335518	2.582103700991
0	26010	16721.705984356596	0.432594382484
0	26020	16741.713151767044	0.592940116394
0	26035	16750.695870924626	0.943612962589
0	26052	16755.344092611201	1.773448745203
0	26060	16757.029414350369	4.49261467063
0	26065	16759.651351551786	0.610333776101
0	26085	16763.225160535644	2.884384054377
0	26090	16766.704567947575	0.621362108178
0	26100	16770.015341996164	1.244349458659
0	26105	16781.058844780334	0.439731019828
0	26112	16795.637240822575	0.845009042416
0	26115	16796.260344114955	0.756200545687
0	26122	16800.918710139215	0.867059734464
0	26125	16801.508536415322	1.334807100372
0	26132	16806.521467288122	0.725745355757
0	26140	16808.894155271058	0.585852731112
0	26150	16814.283668127301	1.047441697238
0	26155	16818.803387673034	0.70067606112
0	26160	16820.616657822049	0.645288285008
0	26165	16833.183154354183	0.94144305368
0	26170	16835.105474105041	0.693102560658
0	26180	16839.35180483289	0.889642687142
0	26187	16870.119553313302	0.885070818709
0	26192	16871.084941510242	1.705898527325
0	26210	16885.96597634034	0.949280808028
0	26227	16888.299548636359	1.372283265902
0	26230	16889.028342477028	5.142697791711
0	26242	16900.463067324124	0.408809064794
0	26247	16901.333810134874	1.228415357727
0	26260	16908.682917903358	0.473481435375
0	26265	16911.263995010442	0.581745587382
0	26270	16916.397518483328	0.869989881432
0	26282	16941.661104168609	0.672314434545
0	26290	16944.862095159549	3.224559093508
0	26300	16954.811901780886	1.039025539721
0	26305	16956.973454680328	0.523911355436
0	26310	16959.578308304135	0.540725502651
0	26330	16970.90818464251	2.682695462834
0	26335	16978.38345202865	0.547714226507
0	26340	16980.725131833701	0.959566113725
0	26345	16982.396121016507	0.626595487725
0	26365	16995.344833545236	0.803423029324
0	26370	16996.421279971991	5.148969681752
0	26380	17004.352888934564	0.931805340263
0	26395	17011.820457495317	2.416785748117
0	26410	17022.167801696504	0.80896466719
0	26415	17027.866634428967	0.561099241301
0	26420	17028.767599489748	0.757114038151
0	26430	17032.48905246995	0.573109456617
0	26440	17035.894138284701	1.372221811252
0	26445	17037.041675728734	0.75773650147
0	26454	17040.328027719421	0.711104471469
0	26457	17041.149654151149	1.233604205482
0	26460	17041.59983520049	1.682929547006
0	26470	17046.824869708189	0.55558901825
0	26485	17064.538736204057	1.97260172862
0	26490	17068.444380279519	0.772280891612
0	26505	17098.352183571857	1.065549518503
0	26520	17102.448930583877	6.581371261274
0	26547	17106.654571674747	2.785659066312
0	26557	17108.563329134358	2.444646449375
0	26560	17109.480690802948	1.624397183718
0	26565	17123.220452346428	0.885454288265
0	26570	17124.382946582524	0.662004730664
0	26575	17125.167540977538	0.539774647262
0	26580	17128.487501154426	0.833470223239
0	26590	17135.03025692099	0.451465448318
0	26595	17140.982688885278	0.888305327669
0	26600	17147.8721898983	0.727998395404
0	26622	17155.904522866356	0.540199028049
0	26625	17156.631893021772	0.905968263223
0	26630	17169.217418637619	0.672363109235
0	26640	17173.522191222548	1.926987373932
0	26645	17178.133279450887	0.960892131785
0	26665	17190.715547764675	1.464341597937
0	26677	17193.849374414559	0.915914590145
0	26687	17195.154260123891	0.932546091315
0	26692	17195.800320687981	1.180620164922
0	26697	17196.25050928816	4.260199743876
0	26700	17196.986922853531	1.121435578547
0	26705	17203.15931515534	0.580519958679
0	26720	17211.460371905812	0.567156477273
0	26725	17212.731424989712	0.929411546933
0	26735	17217.010652030958	1.821885790559
0	26740	17224.331250340209	0.713937757444
0	26762	17237.065864284209	0.940193716483
0	26765	17237.669875578594	1.281418268112
0	26795	17253.002363828422	2.950384173448
0	26807	17265.694507456957	1.7762005541
0	26810	17266.5881757741	1.156150486167
0	26820	17272.486500243486	1.85020400457
0	26825	17277.460866472419	0.61496827146
0	26830	17285.563359143572	0.886580800405
0	26835	17286.503169358816	0.732145747123
0	26840	17287.325264341449	0.640875162138
0	26845	17290.871643905637	0.488277396187
0	26855	17297.13183791328	0.711426658556
0	26860	17311.087369523135	0.696530157933
0	26865	17311.72493280929	0.483663103171
0	26875	17320.16685612771	0.873034699261
0	26880	17326.686199240384	0.901058957586
0	26895	17333.947926269234	0.995531641366
0	26900	17339.03522174618	0.597619219404
0	26905	17340.034081225811	0.418729511555
0	26910	17340.666345099513	0.620276232343
0	26940	17367.429448492031	2.307488237673
0	26950	17387.26452453698	0.68471946069
0	26957	17393.750560820713	0.89150991966
0	26960	17394.322101822221	1.443957285134
0	26965	17398.284214595958	0.799678508937
0	26975	17410.396568737441	0.809899277154
0	26995	17423.170234481806	1.372132478582
0	27000	17423.819880020919	0.545822470495
0	27005	17425.441682006674	0.826858716598
0	27025	17442.171117138665	0.825072661974
0	27030	17444.504639063475	0.744216843415
0	27042	17451.176660005228	0.581891174754
0	27065	17455.122362704193	1.059762891645
0	27070	17456.175289482873	4.660346533642
0	27075	17469.549450498339	0.903033356369
0	27080	17472.858549927818	0.427730798256
0	27085	17475.358068567473	0.71479766164
0	27095	17479.205705462394	2.422060334405
0	27100	17492.679886805226	0.664090049546
0	27105	17495.156773369414	0.537910910556
0	27135	17509.189326697087	0.745483436435
0	27144	17513.028830272775	0.859573212173
0	27150	17514.493893482421	1.996030881665
0	27160	17521.063705162133	1.609120538571
0	27165	17522.163128580366	0.717007661611
0	27170	17525.236530226002	0.45121553964
0	27175	17528.7690036247	0.874288721662
0	27180	17533.920432564359	0.724170218874
0	27185	17535.855864319184	0.513420374598
0	27195	17544.80615186708	0.79312318759
0	27205	17547.933092165707	4.957680342185
0	27210	17551.848958641598	0.967367802421
0	27220	17565.211108178975	1.478240089426
0	27260	17597.87052412066	1.292949249772
0	27271	17599.668793160142	0.759693223378
0	27277	17601.171511068009	2.198944174155
0	27280	17601.793625272485	2.498339032327
0	27285	17603.398440366935	0.848589762812
0	27300	17622.525146015329	3.715127292393
0	27312	17628.418323405952	0.951385103678
0	27325	17630.404232477982	1.621487640202
0	27330	17631.660326201296	3.522926145839
0	27335	17634.843257577394	0.711158824898
0	27367	17657.541993509763	0.620282651903
0	27370	17658.121171936457	0.838381557293
0	27385	17667.958973945321	0.649002493219
0	27390	17672.211546532494	0.856083787326
0	27395	17689.149250865199	0.595998128038
0	27400	17701.659703977738	0.940924348403
0	27410	17706.886230600077	0.426965835318
0	27425	17713.510737637248	1.598769088848
0	27430	17716.189337936293	0.611506793415
0	27455	17738.72838849662	0.920992634865
0	27470	17743.584588533773	1.308227963237
0	27477	17752.741284162774	0.435684389388
0	27482	17753.38841888871	0.931109269202
0	27490	17757.402638361697	0.518251756392
0	27500	17763.885903911061	0.464627365349
0	27510	17765.639793756154	1.184337619894
0	27517	17772.137564217025	0.857284001401
0	27520	17773.086938298871	1.586656353793
0	27532	17776.207202658393	0.684134478619
0	27540	17782.502403748543	0.494917679019
0	27545	17786.986920277283	0.656235594396
0	27565	17794.887829005765	4.823721165982
0	27572	17804.20776062361	0.446152913151
0	27575	17804.622240357148	0.442079757819
0	27590	17811.648293198173	0.841449551145
0	27615	17821.298732550945	4.268207358485
0	27622	17822.306603001796	0.750262689916
0	27625	17822.846826180203	0.818935346733
0	27635	17838.374213999416	0.466566035151
0	27640	17846.100834205043	0.574241427612
0	27645	17851.878097233727	0.857489203522
0	27655	17853.793119947563	1.658702395445
0	27665	17855.75360951258	3.734161902009
0	27700	17872.038912669594	1.306639078453
0	27710	17883.051933810196	0.961907765176
0	27715	17893.024309876385	0.905886736698
0	27730	17920.826579861848	2.585277209865
0	27735	17924.867864252239	0.748689721292
0	27745	17931.474134128912	0.657104892889
0	27750	17946.331006558282	0.79622057518
0	27755	17948.209460130553	0.412302658241
0	27780	17963.236795731308	2.441499094251
0	27790	17969.450794190681	0.900415343259
0	27795	17976.360899368803	0.722047693282
0	27805	17988.669938640972	0.549460472679
0	27810	17993.494708197707	0.873471012386
0	27819	17997.808715311599	0.700675909547
0	27822	17998.34590378634	1.003081700435
0	27825	17998.965991314522	1.224522545429
0	27832	18004.412746537883	0.427179726539
0	27840	18011.320375644117	0.646634260239
0	27855	18022.448039313143	3.634177735778
0	27872	18029.218180367274	0.642205116199
0	27880	18036.959512076861	0.673209369648
0	27885	18040.972784368093	0.991468785796
0	27890	18044.943119374635	0.575142430095
0	27907	18049.871797157053	0.636383164721
0	27915	18051.332755361353	4.217002050104
0	27940	18068.00357769391	0.989315744849
0	27945	18071.14165096953	0.433353432827
0	27950	18076.653032522045	0.899578463286
0	27965	18083.112202065083	0.745800837735
0	27977	18099.976767104758	0.775629504956
0	27982	18100.68596039753	0.84293432766
0	27992	18102.764062241889	2.437023987912
0	28000	18106.450403078645	0.920500608208
0	28012	18113.209118509766	0.705249297898
0	28025	18118.668284514998	0.9420870353
0	28030	18131.102343866945	0.767104175128
0	28055	18145.15140638112	0.5007278834
0	28062	18146.999066859791	0.810024250671
0	28072	18148.344475325224	1.266193665036
0	28075	18148.853553011482	2.046784904445
0	28080	18149.970695695785	0.645908751059
0	28085	18152.95286301851	0.616806904366
0	28090	18159.297175975098	0.816732240142
0	28105	18173.621286897089	1.577941054195
0	28122	18195.251429685879	0.695130322967
0	28125	18195.833567978696	0.81188881387
0	28130	18197.538399319481	0.888091901504
0	28140	18199.338191000866	1.749973116534
0	28145	18200.729018577045	0.891987735219
0	28155	18209.620072897389	0.892097927211
0	28160	18220.221836528087	0.896683897078
0	28165	18223.567035395757	0.84256405076
0	28204	18246.269163083258	2.895171870891
0	28207	18247.006856310713	2.652229265077
0	28215	18249.733571359815	4.317716832522
0	28220	18254.32169199248	0.496881922707
0	28230	18256.383927105725	0.974862547219
0	28235	18258.710801009309	4.258688286019
0	28245	18272.019488413388	0.514975873241
0	28250	18273.673742333534	0.836873260699
0	28255	18274.754853046184	0.844516619714
0	28265	18276.719033401001	1.923513755809
0	28280	18284.824917404657	3.0024936014
0	28300	18309.483485135196	2.870781940963
0	28317	18320.239239950452	0.726628119918
0	28350	18335.449153940155	2.215519315572
0	28357	18337.433091535964	0.848235044582
0	28360	18338.125832668818	1.310199637494
0	28365	18339.314999817203	0.701134737022
0	28375	18359.391150273297	0.440982110798
0	28410	18374.186780524914	0.930906396499
0	28415	18389.41983917385	0.401433098689
0	28425	18400.242541165751	0.705677307909
0	28432	18414.444094882029	0.788328529289
0	28435	18415.238466396377	1.310870694699
0	28440	18415.759370707636	0.45069124545
0	28445	18419.088736057133	0.633890767815
0	28455	18422.594661299914	2.351481452104
0	28460	18424.264417609737	0.615363164432
0	28472	18429.727005902146	2.328539702038
0	28492	18447.722555833053	0.855034093233
0	28495	18448.164560674759	0.566421758276
0	28510	18457.309175140704	0.820782594522
0	28529	18460.631048015126	1.052655703136
0	28535	18461.869799828803	1.356502415093
0	28545	18471.044919969353	0.498575877678
0	28550	18485.744439335328	0.630859135138
0	28555	18489.366889020252	0.766336246813
0	28562	18494.261085812009	0.667712206859
0	28565	18494.719483796374	1.123656236259
0	28572	18497.396979330711	0.53094887007
0	28575	18498.052966440933	1.055042128048
0	28580	18506.274600755564	0.905589071568
0	28585	18511.083498947278	0.836531006917
0	28590	18511.903136557165	0.642710357904
0	28600	18517.675412732417	1.809972428182
0	28610	18534.421638086862	0.641674652928
0	28615	18541.606945861311	0.704684696952
0	28620	18545.601787877183	0.955950340768
0	28637	18558.539171799979	0.601114124618
0	28650	18572.588067429962	0.75573085146
0	28655	18573.254387633403	0.643984801834
0	28660	18585.383462751743	0.978103234898
0	28675	18596.26061971695	0.698804250965
0	28720	18631.793212059416	0.583425731491
0	28725	18633.313652990735	0.61941074999
0	28732	18635.07409759458	0.504248541733
0	28735	18635.904174463412	1.313794507304
0	28740	18637.722927884098	0.942794519616
0	28757	18655.636154853207	0.782456663499
0	28760	18656.317261445689	1.428364209456
0	28765	18657.076743191394	2.885794855401
0	28770	18665.496978836947	0.422497464949
0	28780	18668.208980946922	2.190509614109
0	28797	18678.647156734896	2.596665305493
0	28800	18679.412734228783	1.688676981466
0	28805	18689.293221207519	0.981533558108
0	28810	18692.893534309472	0.966883289721
0	28825	18702.481501042721	0.781548994686
0	28835	18709.136101109509	0.771686985577
0	28840	18710.124092089677	0.811052247789
0	28850	18717.787660483299	1.185448022063
0	28860	18733.363433860564	0.990042479243
0	28865	18740.314571388618	0.952223012364
0	28870	18742.975512780358	0.448443098599
0	28880	18751.272889318248	1.500482872561
0	28910	18761.641895540749	1.885969080138
0	28915	18762.521060544723	0.64402807327
0	28920	18763.073832261358	0.469961027661
0	28940	18783.366860722747	0.623424316617
0	28950	18785.42734991405	0.565577098168
0	28990	18805.145524289575	0.879542330942
0	29000	18811.850771757188	0.645709039504
0	29010	18814.121249744212	1.236507764742
0	29020	18818.844674047647	1.673390567894
0	29032	18826.058474463578	0.750427315664
0	29035	18826.601135387486	0.902519268226
0	29055	18859.578749451246	0.907063035527
0	29060	18867.069307305829	0.490980468458
0	29065	18869.510953094247	0.901677624322
0	29085	18889.010854494245	0.86606114246
0	29105	18894.007812504738	2.95855119586
0	29110	18903.371198227378	0.983007199503
0	29122	18905.736522129532	0.979478590935
0	29125	18906.205677019972	2.443612847357
0	29130	18907.716713854647	0.528280593455
0	29135	18911.833083133632	0.456717179203
0	29145	18920.667439760709	0.706196845928
0	29157	18924.910104904002	0.970075859269
0	29160	18925.626425058306	1.38913981955
0	29175	18931.575670801109	2.313720383023
0	29190	18938.23178345369	2.550385896238
0	29195	18939.419413202544	0.972009439301
0	29200	18939.852997720781	0.416329554329
0	29205	18943.365545021926	0.687090814393
0	29210	18948.536479228127	0.938148802007
0	29220	18958.554719763232	0.472019085521
0	29225	18959.68533644649	0.93293721457
0	29230	18975.920055413822	0.851221358124
0	29235	18978.168467933689	0.644479137566
0	29240	18979.792167544402	0.917669849657
0	29250	18981.277910939672	1.426946415248
0	29255	18989.087833776867	0.875137135526
0	29265	19012.108141016757	0.462840750255
0	29272	19019.812522606187	0.925305741094
0	29300	19024.021608106619	1.462841754112
0	29315	19036.15102349347	0.690627868567
0	29320	19054.22013757244	0.915438851342
0	29325	19057.416381047402	0.890860964498
0	29330	19062.594185630962	0.571882106829
0	29335	19067.705115036691	0.583469021367
0	29340	19071.086073995907	0.995610896312
0	29345	19072.819582423623	0.65019580829
0	29355	19075.693798480437	0.954304905143
0	29380	19084.421177680879	3.268937566829
0	29388	19086.043724023593	2.756066852256
0	29394	19087.89863845496	4.520306822085
0	29397	19088.639955148422	4.933695657116
0	29412	19090.59406476174	6.368370653054
0	29415	19091.01449495642	2.033824587683
0	29420	19095.249440656628	0.702412394853
0	29432	19124.658148883238	0.603636984434
0	29435	19125.224647386141	0.971590327904
0	29444	19127.042904030848	0.744145131204
0	29450	19128.823107632427	2.454801408121
0	29460	19134.268176119037	1.434846617178
0	29465	19140.009954229826	0.646274223831
0	29470	19150.690086971794	0.667788158497
0	29475	19154.469001010576	0.812986804871
0	29500	19162.765550313758	0.607410080126
0	29517	19173.648419731582	1.065633084588
0	29530	19186.77430792121	0.94461313542
0	29537	19187.675319254222	0.83076533433
0	29555	19211.001450980953	0.544052750664
0	29560	19215.023094209004	0.465125913126
0	29590	19236.226631229255	1.722858514252
0	29595	19246.988464121821	0.84912369228
0	29610	19251.409206490287	4.409365602437
0	29622	19269.699634629994	0.901675261743
0	29637	19290.715554862771	0.765329223173
0	29642	19291.680004580062	1.055143759309
0	29657	19294.926593160521	0.545798042674
0	29660	19295.414440649593	3.969474155153
0	29675	19315.034480134954	0.937788284197
0	29690	19326.559688154783	0.66829785686
0	29715	19336.504912041266	1.283026215135
0	29720	19344.362047975503	0.444822126627
0	29730	19354.583774218021	3.280503776919
0	29735	19356.716925693511	0.899825392338
0	29750	19363.215511208431	1.657330273418
0	29757	19364.089587189113	2.169020605297
0	29760	19364.520894311876	0.963376530979
0	29787	19370.837240447469	0.575710430322
0	29792	19371.704958012273	4.614480135143
0	29797	19372.259750546181	0.615624300553
0	29810	19376.012934176948	1.058828790022
0	29820	19384.384476510044	1.687033878243
0	29845	19398.19785437164	0.709786043223
0	29855	19405.238621663632	0.556268239627
0	29860	19409.502292679473	0.572832325194
0	29865	19411.368809320316	0.955889468733
0	29875	19425.954463846277	0.480405545933
0	29880	19430.052790524593	0.746128109004
0	29895	19444.399325532847	0.965279330267
0	29900	19445.915577218865	0.545282549923
0	29905	19453.177961657305	0.495571451122
0	29910	19456.095878839583	0.94738130169
0	29917	19459.662475568674	0.797186485725
0	29920	19460.618515064533	1.699064456506
0	29925	19461.966592826084	0.782654924085
0	29950	19470.656062808797	0.668104581349
0	29965	19479.710489537612	0.767881783005
0	29985	19497.891589978836	0.888723788457
0	29990	19509.580216181435	0.647236343659
0	29997	19515.867946249147	0.882502826815
0	30002	19516.282787760434	0.722981188014
0	30007	19516.72434533736	0.849050351234
0	30010	19517.708924942364	0.987171077338
0	30017	19519.949138654184	0.924234867329
0	30030	19525.032578124892	0.846999581112
0	30045	19533.676548967261	0.891882319236
0	30050	19538.506534341686	0.975222811336
0	30060	19546.223506215447	0.891277147364
0	30070	19550.845293235888	0.424604899483
0	30082	19558.112238364398	0.673191025155
0	30100	19568.023261340333	0.441382931313
0	30105	19568.657803467638	0.622836817568
0	30110	19570.813493461518	0.633699683193
0	30120	19575.772647195433	0.402502096444
0	30125	19579.788995501843	0.523040688597
0	30150	19585.456543969139	4.101171731883
0	30169	19592.80631150505	0.849440691527
0	30172	19593.712366418768	1.586069077377
0	30175	19594.638787965378	4.015794070314
0	30185	19609.497975869227	1.332747612851
0	30200	19614.324426201558	2.56677629702
0	30205	19621.546993379946	0.931769893179
0	30210	19623.820114836075	0.497649294045
0	30225	19641.135313931706	1.203107584941
0	30235	19649.936902941013	0.450180549221
0	30240	19651.946672650694	0.52600843804
0	30257	19655.190010419994	1.493473201761
0	30260	19656.010551046853	1.693335987109
0	30265	19657.153901118304	0.892162389634
0	30285	19664.438319881068	2.156807399958
0	30302	19675.428008093281	0.869970976748
0	30320	19686.131141777345	0.611270410335
0	30330	19691.488752521938	3.08788104264
0	30340	19697.091922141745	2.975157324511
0	30350	19723.746291280383	0.740972321015
0	30355	19738.394708298939	0.94535536482
0	30362	19742.484787938546	0.937940818211
0	30365	19743.330027273472	1.192272764462
0	30370	19748.622645423491	0.42677250253
0	30415	19804.530212662728	3.899457157822
0	30420	19815.668457079151	0.660007970361
0	30450	19859.854225957432	1.647261878203
0	30460	19864.603697653053	0.923332182318
0	30465	19868.887620503154	0.911641408037
0	30485	19883.856908403093	2.860795561491
0	30490	19894.801018849616	0.595501992851
0	30495	19906.03871453426	0.443786515528
0	30510	19915.083380800658	0.654484665394
0	30515	19917.519819116435	0.933266209718
0	30520	19925.75714947236	0.900387319317
0	30525	19926.99257899712	0.775949978223
0	30530	19930.179360976912	0.42403315031
0	30545	19937.673782382856	0.655985116726
0	30562	19965.656406776121	1.419886556566
0	30567	19966.245628176516	1.011367179645
0	30570	19966.84394684674	1.028684919739
0	30575	19967.748665800482	0.897740634624
0	30590	19982.355765396849	0.561637112498
0	30625	20012.38542669747	0.62973404834
0	30635	20027.100961002531	2.310241141867
0	30640	20032.435577035558	0.688353386056
0	30661	20037.058193451804	0.968509684414
0	30674	20039.276559613492	3.764185582592
0	30677	20040.165988548552	3.642268953616
0	30680	20041.124085557447	2.182495231006
0	30705	20047.287198339252	3.688861322483
0	30710	20071.660367490604	0.682755898312
0	30725	20074.441457315191	2.521196396929
0	30730	20083.031655827407	0.947795816278
0	30745	20092.555682317882	0.663308245968
0	30755	20099.659868601379	0.918858606787
0	30760	20104.958972416776	0.43760267063
0	30772	20109.23408600177	1.844927499174
0	30775	20109.692584041332	1.133911494101
0	30785	20113.305834550568	1.798023096981
0	30790	20115.287531798637	0.721568967169
0	30800	20130.418400983285	0.535679007275
0	30810	20135.055578485934	0.680774288997
0	30820	20154.044553404149	0.859709317936
0	30840	20178.782869311487	0.468666695431
0	30847	20181.070122965176	0.894347142614
0	30855	20182.781345767791	2.140194736272
0	30860	20191.115038971539	0.643208928593
0	30865	20195.875953633011	0.471333591407
0	30870	20206.628706684212	0.946756437514
0	30877	20212.988302234384	0.891691911593
0	30890	20219.710019152228	0.548198620463
0	30900	20229.22736132509	0.643891324615
0	30915	20235.019946515436	0.509354243381
0	30920	20237.721020692864	0.869254092406
0	30937	20244.598840108097	1.053355186465
0	30940	20245.163415939596	1.190503480843
0	30960	20249.128199570333	0.854718126496
0	30975	20261.941069399539	1.256720345664
0	30987	20265.28385591054	0.763604887521
0	30990	20266.196083016076	2.194714610931
0	31005	20276.042611618205	2.411787652071
0	31010	20280.545719289834	0.625751582766
0	31020	20286.981031784167	0.896655465243
0	31030	20288.631120675905	1.090835764885
0	31044	20299.256388145609	0.956959089445
0	31050	20300.534483724989	2.814011556888
0	31055	20302.297168402677	0.769474715227
0	31060	20304.696982380076	0.84388459879
0	31074	20309.18245891181	0.75177588705
0	31082	20310.408817757827	1.650135800564
0	31085	20311.091265803923	2.450560116117
0	31090	20312.196127499197	0.475198467402
0	31095	20313.751299292428	0.930754623981
0	31100	20332.381495423941	0.678291105479
0	31110	20343.621187796729	0.87850620742
0	31135	20370.946948147177	1.175398834584
0	31142	20371.589132989156	3.518874406695
0	31152	20373.895170928074	2.655458724636
0	31155	20374.768171214035	1.487443722764
0	31160	20378.41088121659	0.703097635554
0	31165	20391.97774852278	0.872868322814
0	31180	20407.238927621863	0.968762399675
0	31185	20411.603096913931	0.432439835137
0	31195	20421.93190348821	0.432971277973
0	31202	20424.455378728438	0.64640622288
0	31207	20425.429946013618	1.054288962043
0	31225	20437.678827480536	4.521371343867
0	31235	20443.448640578574	0.425806239247
0	31255	20462.026494764724	0.797102809884
0	31265	20466.762590118471	2.634048855939
0	31270	20473.366437877791	0.941046059504
0	31280	20477.630264051847	2.845844549038
0	31320	20503.992336777014	0.565372071508
0	31330	20515.960934182042	0.915631508548
0	31335	20519.141800797536	0.908149751369
0	31365	20529.323213722382	0.523750041472
0	31375	20538.694373854588	0.449099949375
0	31380	20539.885762998281	0.807169189071
0	31412	20553.076969494401	4.145877762324
0	31415	20553.478136039349	1.021279259374
0	31420	20559.440328914172	0.445687482413
0	31430	20564.362497604977	1.118095787334
0	31435	20568.683511083489	0.98995652115
0	31440	20571.218021016161	0.520494399825
0	31450	20573.778468724377	2.146562598622
0	31455	20576.175794242013	0.423821473727
0	31480	20589.696627238171	0.764686920308
0	31505	20621.056115364206	0.567082310421
0	31542	20633.348226290398	8.518367895773
0	31550	20635.149512849432	3.711509138405
0	31557	20653.059362696223	0.795523349056
0	31565	20654.259345599419	0.605094172014
0	31570	20655.868166032272	0.92042532363
0	31585	20677.685858235021	0.575764139462
0	31590	20680.060671777331	0.464652377786
0	31610	20691.373069152305	0.875794402882
0	31645	20711.610276802096	4.840636761443
0	31660	20722.483675877787	0.495908018481
0	31675	20725.430474579497	1.385512070327
0	31680	20731.322210051266	0.735144499829
0	31685	20734.660111574164	0.523958339076
0	31690	20735.989698825721	0.949972308613
0	31695	20742.918024534042	0.468827215582
0	31700	20744.094185767607	0.941609844612
0	31705	20756.505697402302	0.725638662791
0	31710	20764.664179016038	0.551439931197
0	31720	20770.628019158222	1.598440303794
0	31725	20787.977194206512	0.771062641917
0	31730	20791.300373130324	0.685309989937
0	31735	20793.706167452233	0.874885186972
0	31740	20798.391758991278	0.599183311034
0	31770	20834.078242768507	4.031813530452
0	31792	20851.561978692071	0.88111047144
0	31802	20853.386689514642	4.560021325588
0	31805	20854.342848298115	3.111021361602
0	31825	20870.964141901894	0.977752932673
0	31835	20881.224214073957	2.892000374946
0	31845	20902.257748783147	0.912383324932
0	31850	20910.696705999604	0.582822059002
0	31855	20913.694458122027	0.999431053037
0	31860	20918.005802395069	0.866677037161
0	31872	20933.01129244162	1.144368161315
0	31875	20933.74021475577	2.539813084295
0	31880	20937.13534891477	0.604431426944
0	31887	20941.786176737218	0.813542134734
0	31902	20944.127642034749	0.787204629369
0	31915	20947.447701868091	0.687619276205
0	31922	20950.636134000063	0.871423521033
0	31935	20952.819174065931	0.599686002824
0	31960	20975.488569009555	1.076998343232
0	31995	20984.432245121715	1.786300666409
0	32002	20985.772508995365	0.661933183298
0	32005	20986.183988847015	0.724317226388
0	32010	20995.33260274287	0.51516256812
0	32040	21029.376251000984	0.573382048262
0	32045	21043.83421318645	0.929556675674
0	32057	21048.759217621068	1.338789730053
0	32075	21053.598638840531	0.748743421771
0	32080	21055.641022291821	0.524061428243
0	32085	21058.363749351049	0.673494284367
0	32090	21076.941882603227	0.82676707278
0	32095	21079.06909509524	0.585828985739
0	32105	21082.221110794831	0.719708611304
0	32110	21091.246863415252	0.792623958783
0	32122	21095.782905901074	0.699445666047
0	32125	21096.603713617138	0.993947879724
0	32135	21099.629521490263	1.504097886662
0	32170	21120.397718418826	1.442865722184
0	32180	21122.531016566437	9.53693137656
0	32185	21130.183449886976	0.77000525156
0	32190	21136.878443929506	0.979480590019
0	32200	21145.967150180341	0.478487521876
0	32210	21152.53904933519	0.456872847071
0	32215	21155.971368907602	0.433362562535
0	32240	21188.544963767443	0.481388500379
0	32252	21202.159335317727	0.401270578755
0	32260	21211.580082817212	0.8718392774
0	32310	21264.52003007518	0.5998100786
0	32315	21274.817579912941	0.811321485694
0	32330	21278.273215557819	0.589065942774
0	32335	21284.223315144798	0.73055941565
0	32350	21303.743706924137	0.423098497838
0	32355	21304.468259951006	0.425536184246
0	32385	21314.156920451349	0.728351799911
0	32390	21322.942808257978	0.784768560948
0	32405	21341.562058134423	2.184927392318
0	32425	21349.273988886072	3.530628785966
0	32430	21350.863316956431	0.636604823172
0	32435	21356.749857829925	0.625871440908
0	32450	21378.186408667365	0.901588114956
0	32460	21397.6308890477	0.430122801755
0	32470	21413.531849954765	0.446457918873
0	32480	21427.287926034515	0.410719036777
0	32485	21437.50293155873	0.998210121552
0	32500	21445.071818937933	0.628058536211
0	32514	21457.523193632662	1.709755374376
0	32520	21459.23654386186	2.244110935196
0	32530	21463.230218303124	1.709376854938
0	32540	21468.510065087694	2.314941719487
0	32550	21478.314328707098	0.611643973598
0	32565	21486.487256028699	2.171398166339
0	32574	21489.779613132915	0.751386420801
0	32595	21493.771984599903	4.539801379718
0	32605	21499.500984551029	0.544317145646
0	32640	21515.924950439753	2.484820032948
0	32660	21527.63680393435	0.797383337654
0	32665	21529.410596384903	0.793236619746
0	32685	21541.177047559994	0.5557129669
0	32690	21542.915534502585	0.485716831498
0	32715	21551.403928924316	0.856806225237
0	32722	21556.434356840931	0.528315940499
0	32735	21559.536421062716	1.089929704796
0	32757	21562.518307599456	1.956961767026
0	32760	21563.313221624385	6.91505809194
0	32770	21569.152282590302	3.655144138274
0	32775	21570.225067634458	0.420272648428
0	32780	21575.589297035073	0.636582324328
0	32795	21579.780266983742	0.555248206585
0	32800	21582.827513382925	4.941030390666
0	32805	21584.922509133281	0.802678039204
0	32810	21598.500173495474	0.556222558254
0	32870	21623.664901944747	7.290503545256
0	32880	21627.084042210643	1.097942387585
0	32920	21642.752772937832	2.881079092606
0	32930	21645.899725093058	1.580837601741
0	32945	21667.17085253111	0.63825764982
0	32957	21671.819663800347	1.319289589614
0	32960	21672.316825652636	0.640699556182
0	32982	21694.931425701332	0.665232309885
0	32985	21695.808637112862	1.39929163463
0	32990	21698.232903454841	0.580251391465
0	33015	21715.513943573412	2.165665234305
0	33025	21720.485514582795	1.559484568393
0	33055	21747.723742320127	0.642328139907
0	33065	21755.866191856434	0.716980050504
0	33070	21756.897127872511	0.420441581216
0	33075	21758.41519688023	0.952291778475
0	33080	21761.962122760527	0.769248391548
0	33085	21780.126732234479	0.878390966449
0	33090	21788.187008798545	0.594269577041
0	33095	21789.124063575679	0.793655625917
0	33110	21796.669874450014	0.432482554065
0	33115	21798.932848193747	0.645725960052
0	33120	21812.595540283584	0.902434621099
0	33125	21819.110233601688	0.479309333256
0	33130	21820.261130527792	0.649449626543
0	33142	21835.173695417449	0.845325046591
0	33145	21835.823459237537	1.376191523786
0	33155	21840.735757533437	1.88392260802
0	33160	21842.764881938546	0.48730687839
0	33165	21851.727915070939	0.889010234131
0	33170	21852.190866802516	0.401339527173
0	33185	21856.630669215768	0.799397723842
0	33190	21863.010751554992	0.589011953818
0	33200	21871.510966977427	1.758394218873
0	33210	21872.870191825719	0.677186389479
0	33215	21879.637338340185	0.873087327136
0	33220	21881.704016183303	0.952389480593
0	33227	21892.231415457788	0.64334031716
0	33230	21892.765419168768	0.61878812965
0	33245	21911.153380113893	0.898599411035
0	33265	21918.735720014729	0.555729945423
0	33277	21929.884776904025	0.783442543028
0	33280	21930.311409158177	0.507247304463
0	33300	21934.88713694441	0.452993849525
0	33305	21943.211871812739	0.41362421629
0	33310	21945.325822090307	0.640747072967
0	33325	21951.623387863688	1.936183640163
0	33340	21960.957409437136	1.250944074936
0	33355	21980.068412184203	0.649003361585
0	33360	21981.581532148916	0.946753738821
0	33365	21982.650140245676	0.417442896124
0	33382	21985.580994282771	1.165021231998
0	33390	21987.759549517256	3.007034624049
0	33395	21990.649569697528	0.748818917153
0	33405	21995.890972513161	0.572221847018
0	33410	21997.19210854061	0.943218292994
0	33439	22016.251686102574	1.275779089874
0	33452	22017.944105458449	1.573364620361
0	33460	22019.9802089131	0.899478386575
0	33470	22033.406385616615	0.63095250437
0	33475	22034.365691906853	0.720376263
0	33485	22038.826772653535	2.258353349633
0	33495	22053.170291113936	0.693291258113
0	33500	22059.674811588747	0.847914026352
0	33505	22060.409599813931	0.514992104098
0	33517	22066.953248931095	0.492866792157
0	33525	22068.700780712994	3.08440439634
0	33530	22070.732767102611	0.632690578466
0	33535	22072.248141900741	0.85151622789
0	33542	22073.249887408016	0.688611342059
0	33545	22074.025498670878	0.796161138912
0	33552	22076.256212755133	0.952111363737
0	33555	22076.849401604923	1.404547824627
0	33560	22079.489948190615	0.536788251298
0	33570	22080.967502559643	1.425618257505
0	33577	22085.840511040515	0.549029593961
0	33582	22086.371735933223	0.949917397487
0	33609	22091.552187723802	2.372218507995
0	33612	22092.257746459074	1.445666532572
0	33617	22092.697109868886	4.830733301731
0	33620	22093.566229937874	0.895133098932
0	33625	22101.870323681511	0.643102597585
0	33662	22117.156734000146	0.444148123683
0	33670	22124.222323798031	0.668823160231
0	33675	22130.032341367795	0.606000404246
0	33695	22144.042997906825	6.705452768722
0	33735	22171.802547196099	0.426190065872
0	33747	22178.21071719767	0.824788466701
0	33755	22186.569933548822	0.896705343574
0	33765	22193.331036464951	0.659897307726
0	33772	22195.274419416887	0.956870157691
0	33790	22204.388055565375	0.82651888812
0	33795	22206.231640631938	0.569703478646
0	33800	22209.696785487945	0.672489236062
0	33807	22213.556979976694	0.769467787025
0	33828	22224.566452600991	0.934021660732
0	33840	22227.359625119806	2.827044878788
0	33845	22228.166718018554	4.01948169388
0	33860	22239.64658920138	0.769091831567
0	33890	22261.369039044895	0.522445080057
0	33912	22266.164695030601	3.892106613932
0	33930	22275.19189722354	0.869215426827
0	33935	22282.518687932767	0.71528596282
0	33940	22284.726218018789	0.775848163525
0	33945	22287.403340582698	0.558781600231
0	33955	22300.305247214778	0.561335196206
0	33972	22328.093340094971	0.561978664575
0	33975	22328.564074614017	0.496285762483
0	33985	22333.41055207148	0.691466637654
0	33990	22336.790301362972	0.965326676983
0	34000	22340.67100711337	0.442377714859
0	34017	22345.948114744283	0.898871050337
0	34030	22348.127512567257	3.302460278907
0	34047	22354.029726184947	0.856702816579
0	34050	22354.9666737162	1.647784992865
0	34060	22374.822464942617	0.800945136882
0	34072	22377.864541386354	2.206579966141
0	34087	22380.17657744303	2.42895642224
0	34095	22383.228959405772	5.283539355818
0	34100	22389.888662662643	0.554079682659
0	34105	22391.952894135851	0.607926440565
0	34120	22397.140000486056	2.368987214104
0	34127	22402.270149908858	0.892803679267
0	34130	22402.939185747449	0.963624186588
0	34135	22404.086586921363	0.578880475042
0	34150	22413.08557693872	0.525858882535
0	34162	22415.232127209166	0.946821399671
0	34175	22420.086880779941	0.586526724976
0	34190	22433.03243439942	3.331532461687
0	34212	22458.483223575955	2.191143709507
0	34220	22460.398454245265	2.260050273787
0	34227	22466.84043375845	0.980007959809
0	34245	22475.396736049247	4.650260727579
0	34250	22479.218443039782	0.77931623226
0	34257	22485.974781368585	0.80729445396
0	34265	22487.70104195286	0.679755584896
0	34270	22493.759449862334	0.816001339583
0	34275	22500.65669045171	0.96368667325
0	34280	22502.011221311611	0.831934581185
0	34290	22509.246711819513	2.044430653432
0	34295	22512.84267273052	0.786437288346
0	34302	22513.743077805339	0.823590860376
0	34307	22514.379375705848	1.06435998095
0	34325	22528.884621605231	1.055327029266
0	34335	22536.36014636309	0.450915729161
0	34345	22546.106304531581	0.959346339386
0	34370	22552.523614870673	3.318184403051
0	34385	22556.47499650843	0.686108483002
0	34392	22558.228686827207	0.439191984106
0	34440	22573.309488842203	0.928601703374
0	34445	22577.702985860835	0.890800295165
0	34450	22578.645049211841	0.815984715475
0	34475	22604.525871303989	0.693799016345
0	34480	22609.942076642425	0.919168564258
0	34485	22621.17700158395	0.466229652613
0	34490	22645.889917064027	0.466289591882
0	34505	22650.023349453545	0.473789569503
0	34510	22651.88049871651	5.540397110127
0	34542	22658.488417973614	0.857232425288
0	34550	22659.982399311999	0.469248712854
0	34555	22667.30376046606	0.614399879379
0	34575	22671.180813905543	1.830787008712
0	34580	22675.968695742925	0.914498243108
0	34587	22678.397554540804	0.974015374575
0	34590	22679.258129039623	1.345558838423
0	34600	22692.54096465017	0.636429622956
0	34619	22696.147349191939	1.786798736507
0	34622	22696.869823093403	3.314869863587
0	34627	22697.304663754551	3.476115912243
0	34635	22700.310202929366	3.344220199721
0	34650	22717.982191338907	0.424882954312
0	34675	22728.347144728628	0.634344320837
0	34699	22743.292470177793	6.684805270172
0	34702	22744.223471473222	2.614713423769
0	34712	22747.072419840872	0.826924105641
0	34715	22747.748280587822	4.827775355444
0	34720	22749.161370844987	0.824410162214
0	34725	22750.459766112378	0.662497947691
0	34740	22757.160431468735	0.732110133255
0	34747	22762.180638849292	0.872286792239
0	34760	22764.78267380528	0.61852019541
0	34772	22769.969127098802	1.714160833314
0	34780	22772.745477054683	0.633787716925
0	34790	22784.22785652075	0.645962686092
0	34795	22788.187986953571	0.911124700168
0	34805	22794.567533647847	1.843316081241
[...]
7	34011	22345.413355148107	0
7	34015	22345.807978122301	1
7	34016	22345.948114744283	0
7	34045	22353.318888723335	1
7	34046	22354.029726184947	0
7	34070	22377.74762102079	1
7	34071	22377.864541386354	0
7	34075	22377.945420049954	1
7	34076	22378.37050884213	0
7	34080	22378.695475358911	1
7	34081	22379.310914337315	0
7	34085	22379.977209473215	1
7	34086	22380.17657744303	0
7	34125	22401.975561560861	1
7	34126	22402.270149908858	0
7	34155	22414.285305809495	1
7	34156	22414.74047785785	0
7	34210	22458.138403971478	1
7	34211	22458.483223575955	0
7	34300	22513.315015724898	1
7	34301	22513.743077805339	0
7	34320	22527.829294575965	1
7	34321	22528.207935197233	0
7	34357	22549.940499339685	1
7	34366	22551.640127316639	0
7	34535	22657.631185548326	1
7	34536	22657.802863378928	0
7	34585	22677.9125702012	1
7	34586	22678.397554540804	0
7	34605	22693.828547842308	1
7	34607	22694.360550455432	2
7	34608	22694.361291737079	1
7	34612	22694.708385715053	2
7	34613	22695.171671814208	1
7	34617	22695.53562117394	2
7	34618	22696.147349191939	1
7	34621	22696.869823093403	0
7	34625	22696.965982729645	1
7	34626	22697.304663754551	0
7	34685	22741.608758049453	1
7	34686	22741.750223088413	0
7	34695	22742.795720703838	1
7	34697	22742.920505232378	2
7	34698	22743.292470177793	1
7	34701	22744.223471473222	0
7	34710	22746.484264895306	1
7	34711	22747.072419840872	0
7	34915	22864.240178687832	1
7	34916	22864.86957570263	0
7	34990	22901.268234813074	1
7	34991	22901.556568261174	0
7	34995	22901.712802052545	1
7	34996	22902.414487354349	0
7	35000	22902.66385323294	1
7	35001	22903.174524509845	0
7	35015	22907.652754009803	1
7	35016	22907.809554555046	0
7	35190	23002.679429801707	1
7	35192	23002.731580651147	2
7	35193	23002.764564065763	1
7	35196	23003.471852040745	0
7	35215	23011.410956716521	1
7	35216	23011.501734836991	0
7	35265	23028.600334360311	1
7	35266	23028.604706805166	0
7	35285	23034.32670030519	1
7	35286	23034.941030599497	0
7	35295	23036.068157109147	1
7	35296	23036.466103306733	0
7	35302	23037.157353880854	1
7	35307	23037.356917959743	2
7	35309	23037.801634523843	3
7	35310	23038.053419766942	2
7	35313	23038.959749342356	1
7	35316	23039.531436643278	0
7	35430	23111.970505473605	1
7	35431	23112.227957193963	0
7	35445	23115.901360288665	1
7	35446	23116.239272933443	0
7	35475	23125.086125799281	1
7	35476	23125.550480465841	0
7	35480	23125.924600303592	1
7	35481	23126.051443525887	0
7	35485	23126.651094989477	1
7	35486	23126.658238635416	0
7	35495	23129.012565674237	1
7	35496	23129.802194171524	0
7	35500	23130.580387071863	1
7	35501	23130.6045164076	0
7	35555	23157.713265996104	1
7	35556	23157.851254324266	0
7	35560	23157.993165819076	1
7	35566	23159.469691329706	0
7	35695	23220.910400616964	1
7	35696	23221.380619073782	0
7	35700	23221.412160684874	1
7	35701	23222.17875711227	0
7	35705	23222.30598105917	1
7	35706	23222.86066749965	0
7	35715	23226.820851036422	1
7	35716	23226.950030026903	0
7	35735	23233.696281285647	1
7	35737	23234.015874664983	2
7	35738	23234.049947209358	1
7	35742	23234.410723831751	2
7	35744	23234.791641594003	3
7	35745	23234.814804686727	2
7	35748	23235.322981654927	1
7	35751	23236.284223401202	0
7	35755	23236.309660424478	1
7	35756	23236.896692882879	0
7	35795	23256.407711388715	1
7	35796	23256.516313095541	0
7	35890	23309.530010891533	1
7	35891	23310.247801332742	0
7	35900	23320.394573790566	1
7	35901	23320.84195942662	0
7	35965	23360.279381425143	1
7	35967	23360.972472060702	2
7	35968	23361.00331611227	1
7	35971	23361.783046190941	0
7	36030	23395.963089154399	1
7	36032	23396.243335218432	2
7	36033	23396.519666798183	1
7	36041	23398.05287704035	0
7	36115	23443.429840074178	1
7	36116	23443.902491017419	0
7	36130	23447.467155614526	1
7	36131	23448.151311691952	0
7	36135	23448.484602500121	1
7	36141	23449.534199613201	0
7	36250	23513.206485659745	1
7	36252	23513.99244335135	2
7	36253	23514.042428609815	1
7	36256	23515.015893815823	0
7	36305	23569.427303031535	1
7	36306	23569.428291257938	0
7	36335	23590.727868132413	1
7	36337	23590.776693821207	2
7	36338	23590.824633337951	1
7	36341	23591.344091155774	0
7	36465	23664.65982643329	1
7	36466	23664.808329194679	0
7	36470	23665.504678691286	1
7	36471	23665.625961095362	0
7	36485	23669.09332610564	1
7	36486	23669.406041452817	0
7	36495	23676.339585261194	1
7	36496	23677.098041958829	0
7	36515	23688.101095259991	1
7	36516	23688.565243055457	0
7	36530	23692.737598208177	1
7	36531	23693.005756648865	0
7	36545	23702.282142944454	1
7	36546	23702.650373597088	0
7	36607	23764.933387721125	1
7	36612	23765.25714572868	2
7	36613	23765.463952720048	1
7	36616	23766.209806427894	0
7	36625	23768.439769321932	1
7	36631	23769.404199655545	0
7	36665	23791.450260747173	1
7	36666	23791.744375289365	0
7	36705	23822.523077756023	1
7	36706	23823.060339844282	0
7	36725	23832.744191385285	1
7	36726	23832.905897573087	0
7	36745	23837.212079701011	1
7	36746	23837.221686438843	0
7	36800	23906.17852173465	1
7	36802	23906.287135599021	2
7	36803	23906.794755018287	1
7	36806	23907.372834670095	0
7	36810	23907.390980514816	1
7	36811	23908.246409181802	0
7	36815	23908.61355144525	1
7	36816	23908.722913768905	0
7	36842	23913.54060134529	1
7	36851	23915.469771212811	0
7	36862	23916.772280269409	1
7	36866	23918.057645229457	0
7	36915	23949.961197355208	1
7	36916	23950.172816890711	0
7	36965	23995.978344756023	1
7	36966	23996.556017401447	0
7	36990	24004.456293068795	1
7	36991	24004.831078569004	0
7	37020	24027.009021210966	1
7	37021	24027.421700231825	0
7	37035	24039.656123615485	1
7	37036	24039.87332870491	0
7	37165	24131.733629345441	1
7	37166	24132.11807691807	0
7	37170	24132.341989081944	1
7	37171	24132.990572628547	0
7	37270	24208.804554510787	1
7	37271	24209.425420512599	0
7	37300	24224.440955109011	1
7	37301	24224.827403567086	0
7	37445	24382.926894999172	1
7	37447	24383.655576199654	2
7	37448	24383.729353622556	1
7	37452	24384.528260778423	2
7	37453	24384.627856219815	1
7	37462	24385.492225990136	2
7	37463	24385.64128303232	1
7	37466	24386.160241227107	0
7	37475	24388.182348556947	1
7	37476	24388.554399967778	0
7	37480	24389.059206552999	1
7	37481	24389.249343197725	0
7	37570	24431.536909117334	1
7	37571	24431.894596489677	0
7	37585	24441.062210006494	1
7	37587	24441.190652203725	2
7	37588	24441.278169736084	1
7	37592	24441.446426626164	2
7	37593	24441.789175147474	1
7	37596	24442.201557079241	0
7	37600	24442.870634937598	1
7	37601	24443.010836761961	0
7	37660	24468.370575392643	1
7	37661	24468.503575339373	0
7	37665	24468.959925252284	1
7	37666	24469.342629607878	0
7	37930	24640.234180092026	1
7	37939	24641.532629345543	2
7	37943	24642.363313778054	1
7	37946	24642.998020601535	0
7	38045	24708.024477894352	1
7	38046	24708.565650064246	0
7	38055	24719.329803322239	1
7	38056	24719.921058403616	0
7	38060	24720.037454571073	1
7	38061	24720.797265147659	0
7	38085	24731.681300159214	1
7	38087	24731.698206858687	2
7	38088	24732.178176812334	1
7	38094	24733.039592353684	2
7	38108	24735.526841728315	1
7	38111	24736.155081939064	0
7	38115	24736.164027530333	1
7	38116	24736.745003763139	0
7	38120	24736.830636031948	1
7	38127	24738.236641324108	2
7	38128	24738.547416193802	1
7	38136	24739.661098133744	0
7	38215	24790.451330107737	1
7	38216	24790.783182898368	0
7	38225	24791.680600986505	1
7	38226	24792.170909356518	0
7	38240	24801.457451476046	1
7	38246	24802.172068340091	0
7	38290	24816.161112849284	1
7	38292	24816.208879901041	2
7	38293	24816.390694093334	1
7	38296	24816.887664938953	0
7	38455	24976.444182380246	1
7	38456	24976.767042994663	0
7	38465	24981.191237282096	1
7	38466	24981.237506483602	0
7	38475	24992.280668754037	1
7	38476	24992.596814842035	0
7	38555	25024.187102960216	1
7	38556	25024.792621315762	0
7	38575	25032.196065600737	1
7	38576	25032.458923199203	0
7	38585	25033.833639991265	1
7	38586	25034.306907833031	0
7	38685	25116.415744762998	1
7	38686	25116.426125599318	0
7	38715	25141.600233026141	1
7	38716	25141.670491783203	0
7	38725	25143.416693283755	1
7	38726	25144.232895942428	0
7	38745	25153.30154028965	1
7	38746	25153.783418444219	0
7	38755	25169.726961804764	1
7	38756	25170.095429977691	0
7	38775	25187.428006128852	1
7	38776	25187.648731426408	0
7	38840	25245.476686692978	1
7	38841	25245.736107395298	0
7	38900	25297.010762947364	1
7	38901	25297.426695472277	0
7	38930	25318.145265216548	1
7	38931	25318.233050922909	0
7	38940	25324.012112862474	1
7	38941	25324.611972854398	0
7	38985	25345.023173131158	1
7	38986	25345.76512396915	0
7	38990	25346.257153504391	1
7	38991	25346.496459915742	0
7	39025	25357.881065667748	1
7	39026	25358.771420279242	0
7	39045	25370.59041069048	1
7	39046	25371.464657409448	0
7	39070	25386.533730756332	1
7	39071	25386.80579211728	0
7	39080	25395.292402739514	1
7	39081	25395.435765169031	0
7	39110	25409.823105155013	1
7	39111	25409.961544627661	0
7	39180	25465.747656228221	1
7	39181	25465.997451766376	0
7	39240	25519.501420511211	1
7	39242	25519.819537315455	2
7	39243	25520.170899502753	1
7	39246	25520.912951094244	0
7	39275	25535.56936182667	1
7	39276	25536.149642002648	0
7	39290	25548.249745188508	1
7	39291	25548.464689914367	0
7	39317	25558.680447978367	1
7	39326	25560.245887022694	0
7	39335	25562.884974374727	1
7	39336	25562.986778366487	0
7	39340	25562.989307289862	1
7	39342	25563.024904766369	2
7	39343	25563.741682890817	1
7	39346	25564.186270219102	0
7	39445	25632.557594360652	1
7	39446	25632.939541084388	0
7	39535	25694.323144914907	1
7	39536	25694.639055153568	0
7	39575	25720.560241044498	1
7	39576	25720.899535214989	0
7	39595	25739.052155010877	1
7	39596	25739.176032100607	0
7	39630	25752.621213912174	1
7	39631	25752.684587607628	0
7	39675	25784.229676397978	1
7	39676	25784.476353031556	0
7	39690	25787.353497775323	1
7	39691	25787.567534374215	0
7	39722	25807.034971246773	1
7	39726	25808.565751738356	0
7	39770	25833.072106204812	1
7	39771	25833.266240111603	0
7	39835	25873.860100549659	1
7	39836	25874.260259204724	0
7	39880	25915.134718402998	1
7	39881	25915.656381350843	0
7	39895	25919.177469744664	1
7	39896	25919.872267012412	0
7	39935	25943.253241086386	1
7	39936	25943.832525972813	0
7	39985	25978.653308058808	1
7	39986	25978.862883508566	0
7	39990	25979.126329512591	1
7	39991	25979.47310161147	0
7	40020	25996.151353862315	1
7	40021	25996.798372608802	0
7	40045	26022.403027969591	1
7	40047	26022.422465915918	2
7	40048	26022.659362987844	1
7	40052	26022.899433635269	2
7	40058	26024.504189585983	1
7	40062	26024.827781337177	2
7	40063	26025.449263138646	1
7	40066	26026.133616127303	0
7	40080	26030.501609682115	1
7	40081	26031.048874972711	0
7	40165	26078.466596252843	1
7	40166	26078.537067793817	0
7	40175	26079.215568540067	1
7	40176	26079.732204287653	0
7	40255	26127.96250496778	1
7	40256	26128.251644303022	0
7	40260	26128.269609521746	1
7	40261	26129.141488605529	0
7	40310	26164.116730318597	1
7	40311	26164.408529994643	0
7	40435	26270.665145865149	1
7	40436	26270.670900773225	0
7	40505	26319.12344400608	1
7	40506	26319.184680711123	0
7	40565	26361.315584341535	1
7	40566	26361.701955970959	0
7	40610	26375.032471716957	1
7	40611	26375.542254799617	0
7	40615	26375.683855210922	1
7	40621	26377.138218278544	0
7	40625	26377.693444523694	1
7	40627	26378.028832667133	2
7	40628	26378.067737481803	1
7	40631	26378.594939807955	0
7	40635	26378.811576288999	1
7	40636	26379.09775098503	0
7	40675	26414.27298143826	1
7	40676	26414.417188111581	0
7	40730	26458.877704677139	1
7	40731	26458.966489884571	0
7	40735	26459.271467947598	1
7	40736	26459.495950614928	0
7	40755	26463.957660952781	1
7	40756	26464.324429949753	0
7	40765	26465.057896561545	1
7	40767	26465.092512450229	2
7	40768	26465.55952727544	1
7	40771	26466.378392415036	0
7	40815	26496.897575831107	1
7	40816	26497.180276735109	0
7	40872	26522.343245722374	1
7	40876	26523.371367198806	0
7	40900	26540.631928104216	1
7	40901	26540.957283465693	0
7	40945	26561.272786683429	1
7	40946	26561.858424228744	0
7	41015	26619.028088611289	1
7	41016	26619.431406687579	0
7	41030	26633.28948363517	1
7	41031	26633.655837696114	0
7	41040	26634.566117112455	1
7	41041	26635.220494228733	0
7	41170	26713.732160169277	1
7	41171	26714.328856628407	0
7	41235	26737.891621442959	1
7	41236	26738.116602155193	0
7	41265	26754.916094900924	1
7	41266	26755.445904049159	0
7	41295	26787.297588551157	1
7	41296	26787.736259802053	0
7	41305	26808.469205042801	1
7	41306	26808.62245494626	0
7	41310	26809.168612512877	1
7	41311	26809.436616395651	0
7	41370	26833.667604627416	1
7	41371	26834.009171228095	0
7	41640	27008.641482251353	1
7	41641	27008.997117040325	0
7	41665	27022.523285808762	1
7	41666	27022.794470987303	0
7	41670	27022.838814384627	1
7	41671	27023.531107142635	0
7	41680	27024.562656439174	1
7	41682	27025.007468298695	2
7	41683	27025.171600499025	1
7	41686	27025.800649438261	0
7	41740	27055.534048741397	1
7	41741	27056.2382432124	0
7	41750	27056.987948627423	1
7	41752	27057.461421009435	2
7	41753	27057.541647217927	1
7	41756	27058.404458726562	0
7	41765	27060.282613484615	1
7	41766	27060.286348313325	0
7	41810	27089.216144820374	1
7	41811	27089.523136401073	0
7	41865	27114.979610648101	1
7	41866	27115.019455389384	0
7	41940	27164.414208208151	1
7	41941	27164.478151692595	0
7	41995	27194.786207839418	1
7	41996	27195.610689319276	0
7	42015	27204.413347180643	1
7	42016	27205.084365622051	0
7	42020	27205.858429972867	1
7	42021	27205.963469434021	0
7	42030	27211.343115478273	1
7	42031	27211.863045751937	0
7	42035	27211.904665464704	1
7	42036	27212.338992854888	0
7	42045	27213.788386530801	1
7	42046	27214.203495549278	0
7	42100	27263.62276619585	1
7	42101	27264.21086324649	0
7	42105	27264.759098902524	1
7	42106	27264.978047565046	0
7	42150	27281.766604805025	1
7	42151	27282.341531641391	0
7	42225	27352.262519287376	1
7	42226	27352.465036897051	0
7	42260	27371.876254130056	1
7	42261	27371.906216910652	0
7	42305	27423.899290263978	1
7	42306	27424.196438477902	0
7	42310	27424.35283924908	1
7	42311	27424.602683333136	0
7	42380	27467.579277302356	1
7	42381	27468.431995548262	0
7	42440	27502.997833288005	1
7	42441	27503.101408316914	0
7	42445	27503.670206323277	1
7	42446	27504.043859567141	0
7	42535	27549.933241686277	1
7	42536	27550.212262132034	0
7	42545	27560.64822467956	1
7	42546	27561.096879281071	0
7	42585	27594.935025772399	1
7	42586	27595.718925251694	0
7	42675	27663.662384525077	1
7	42676	27663.664712811899	0
7	42700	27676.791443456443	1
7	42701	27677.229676675346	0
7	42710	27683.06876420034	1
7	42711	27683.941289009286	0
7	42905	27828.905461544463	1
7	42906	27829.691126135209	0
7	42975	27874.721961660843	1
7	42976	27875.246315379991	0
7	42990	27892.805246451437	1
7	42991	27893.239090529506	0
7	43000	27896.617038100885	1
7	43001	27896.732367210328	0
7	43055	27935.696117393881	1
7	43056	27936.603914063357	0
7	43130	27991.59701750605	1
7	43131	27991.788122957154	0
7	43365	28171.379671134081	1
7	43366	28171.771765846091	0
7	43390	28188.477898714678	1
7	43391	28189.165316157961	0
7	43400	28190.690053747287	1
7	43401	28191.530277768507	0
7	43500	28245.89791061981	1
7	43501	28246.472400273355	0
7	43535	28270.247538092152	1
7	43536	28271.16020809472	0
7	43540	28271.635281090679	1
7	43541	28271.695951821184	0
7	43550	28275.061161094597	1
7	43551	28275.52957985873	0
7	43697	28359.935498328457	1
7	43701	28360.41262158928	0
7	43790	28441.527445322121	1
7	43791	28442.43127165123	0
7	43795	28442.621024468837	1
7	43796	28442.983127873141	0
7	43850	28481.052600288038	1
7	43851	28481.894298907555	0
7	43875	28496.463895425923	1
7	43876	28497.048753671449	0
7	43910	28527.072340084977	1
7	43911	28527.455179935723	0
7	43975	28560.581405615452	1
7	43976	28560.804015730506	0
7	44050	28634.381860989414	1
7	44051	28634.974675044266	0
7	44060	28636.392126811622	1
7	44061	28636.842696507124	0
7	44115	28667.973599288042	1
7	44116	28668.880749366365	0
7	44135	28682.349064824182	1
7	44136	28682.760382164033	0
7	44140	28683.266527119378	1
7	44141	28683.739802653013	0
7	44150	28689.344381495003	1
7	44151	28689.639539661751	0
7	44170	28693.071349644599	1
7	44171	28693.14359648975	0
7	44225	28728.311233906323	1
7	44226	28728.385420762509	0
7	44250	28741.483146575211	1
7	44251	28741.817968166994	0
7	44290	28761.076444712773	1
7	44291	28761.671455578107	0
7	44295	28761.879643977746	1
7	44296	28762.075936265543	0
7	44355	28812.114781279957	1
7	44356	28812.75679449875	0
7	44360	28813.660837662137	1
7	44361	28813.713653905672	0
7	44365	28813.747421601109	1
7	44367	28814.102406379356	2
7	44368	28814.597114567627	1
7	44371	28815.509571697173	0
7	44385	28818.430918486689	1
7	44386	28818.448670416806	0
7	44425	28869.324521483233	1
7	44426	28869.8926652852	0
7	44440	28876.01696974749	1
7	44441	28876.773621999813	0
7	44460	28889.352853413865	1
7	44461	28889.540558194376	0
7	44500	28913.831810173542	1
7	44501	28914.526075816945	0
7	44517	28919.98660860253	1
7	44526	28922.370249797012	0
7	44560	28948.020023147561	1
7	44561	28948.424511111474	0
7	44600	28970.815439958665	1
7	44601	28970.846824868385	0
7	44630	28991.706995293374	1
7	44631	28991.890542455252	0
7	44665	29016.388233306217	1
7	44666	29016.429629157326	0
7	44780	29094.433569742071	1
7	44781	29094.762354677225	0
7	44860	29184.667767508378	1
7	44861	29184.962096701855	0
7	44905	29208.071049813893	1
7	44906	29208.563849857514	0
7	44935	29226.7605299373	1
7	44936	29227.498647527394	0
7	44975	29253.692675454254	1
7	44981	29254.806372768141	0
7	45115	29330.669999017964	1
7	45116	29330.834683599084	0
7	45215	29402.578598522329	1
7	45216	29402.725349966001	0
7	45335	29490.558900543097	1
7	45336	29491.21618835377	0
7	45355	29493.098942478894	1
7	45356	29493.976281230156	0
7	45435	29538.168090306164	1
7	45436	29538.30159774767	0
7	45545	29609.902944995943	1
7	45546	29610.378221870812	0
7	45550	29610.595778797052	1
7	45551	29610.939601643656	0
7	45560	29615.750857954386	1
7	45561	29615.887246695034	0
7	45610	29652.240816775889	1
7	45611	29652.727938280201	0
7	45615	29653.501564244393	1
7	45616	29653.670887301203	0
7	45620	29653.884052365386	1
7	45621	29654.249835976998	0
7	45625	29654.883683304719	1
7	45626	29655.130155331309	0
7	45655	29668.95293422317	1
7	45656	29669.238743036906	0
7	45660	29669.719697521364	1
7	45661	29669.768880384941	0
7	45665	29669.776581509625	1
7	45666	29670.416877876515	0
7	45670	29670.487609262269	1
7	45671	29670.853509546131	0
7	45760	29712.193792657382	1
7	45761	29712.205831490067	0
7	45820	29772.359518721291	1
7	45821	29772.726590891822	0
7	45825	29772.733342145002	1
7	45826	29773.360808945714	0
7	45830	29773.658693782257	1
7	45831	29773.965712781471	0
7	45835	29774.238232214919	1
7	45836	29774.808780416555	0
7	45840	29774.991873331835	1
7	45841	29775.594005118019	0
7	45845	29775.690895623155	1
7	45846	29776.481879159889	0
7	45860	29781.269958008809	1
7	45861	29781.971376383677	0
7	45865	29782.379608981426	1
7	45871	29783.513094519916	0
7	45935	29834.122942417094	1
7	45936	29834.670329377992	0
7	46050	29900.431061745836	1
7	46051	29900.966515968394	0
7	46135	29990.343756195594	1
7	46136	29991.192116713985	0
8	16437	10503.536506468112	1
8	16440	10503.98089354826	2
8	16441	10504.418313974617	1
8	16444	10504.630779226666	0
8	28320	18321.123298756193	1
8	28321	18321.327382287391	0
8	28327	18321.817256119995	1
8	28329	18322.257397200202	0
8	37525	24403.727947560522	1
8	37529	24404.192538823896	0
9	17032	10900.868360415383	1
9	17036	10901.609870717819	0
9	17720	11338.117183091002	1
9	17726	11338.771643671925	0
9	20530	12965.302758262807	1
9	20531	12965.603413003759	0
9	22430	14274.925180234592	1
9	22431	14275.072809192901	0
9	23135	14704.48588881159	1
9	23136	14705.721118089646	0
9	28192	18244.868803870791	1
9	28194	18244.909231111029	0
9	31535	20632.279279992663	1
9	31536	20632.593745238955	0
9	31795	20852.191474010817	1
9	31796	20852.469860920704	0
9	32745	21560.998401621318	1
9	32746	21561.074891799021	0
9	34690	22742.419586197575	1
9	34691	22742.623712238967	0
9	35487	23126.658238635416	1
9	35491	23128.888169604292	0
9	35730	23232.486437820399	1
9	35734	23233.696281285647	0
9	38945	25325.192911718245	1
9	38951	25325.991246958472	0
9	41760	27059.191957472024	1
9	41761	27059.820206525129	0

