version 2
run First_exit_5-2-20191114-11:42:22-8820
attr configname First_exit_5
attr datetime 20191114-11:42:22
attr experiment First_exit_5
attr inifile omnetpp.ini
attr iterationvars ""
attr iterationvarsf ""
attr measurement ""
attr network ResponseTimeNetwork
attr processid 8820
attr repetition 2
attr replication #2
attr resultdir results
attr runnumber 2
attr seedset 2
param **.Source.interArrivalTime exponential(4s)
param **.jobPriority bernoulli(0.4)
param **.PS.serviceTimeU1 "uniform(0.4s, 1.0s)"
param **.PS.serviceTimeU2 "uniform(1s, 1.2s)"
param **.SS1.serviceTime exponential(0.4s)
param **.SS2.serviceTime exponential(0.8s)
param **.PS.exitProbability bernoulli(0.5)

vector 0 ResponseTimeNetwork.QueueU2 queueLength:vector ETV
attr interpolationmode sample-hold
attr title "queue length, vector"
vector 1 ResponseTimeNetwork.sink lifeTimeU2:vector ETV
attr interpolationmode none
attr title "lifetime of arrived jobs U2, vector"
attr unit s
vector 2 ResponseTimeNetwork.sink totalServiceTimeU2:vector ETV
attr interpolationmode none
attr title "the total time spent  by arrived jobs U2, vector"
attr unit s
vector 3 ResponseTimeNetwork.sink lifeTime:vector ETV
attr interpolationmode none
attr title "lifetime of arrived jobs, vector"
attr unit s
vector 4 ResponseTimeNetwork.sink totalServiceTime:vector ETV
attr interpolationmode none
attr title "the total time spent  by arrived jobs, vector"
attr unit s
vector 5 ResponseTimeNetwork.sink lifeTimeU1:vector ETV
attr interpolationmode none
attr title "lifetime of arrived jobs U1, vector"
attr unit s
vector 6 ResponseTimeNetwork.sink totalServiceTimeU1:vector ETV
attr interpolationmode none
attr title "the total time spent  by arrived jobs U1, vector"
attr unit s
vector 7 ResponseTimeNetwork.QueueU1 queueLength:vector ETV
attr interpolationmode sample-hold
attr title "queue length, vector"
vector 8 ResponseTimeNetwork.SS2 queueLength:vector ETV
attr interpolationmode sample-hold
attr title "queue length, vector"
vector 9 ResponseTimeNetwork.SS1 queueLength:vector ETV
attr interpolationmode sample-hold
attr title "queue length, vector"
0	25840	10009.819011295563	1
0	25841	10009.908963387165	0
0	25845	10010.214355188181	1
0	25846	10010.347622509099	0
0	25890	10023.738870033825	1
0	25891	10023.739656939188	0
0	25900	10025.063535977879	1
0	25901	10025.064065309259	0
0	25907	10025.217435294199	1
0	25912	10026.017952399708	2
0	25913	10026.243572218501	1
0	25916	10027.197664185864	0
0	26015	10074.83753269132	1
0	26016	10075.182522397791	0
0	26020	10075.729204942553	1
0	26021	10076.041609532223	0
0	26025	10076.283611257034	1
0	26026	10076.669931980758	0
0	26040	10079.924515453586	1
0	26041	10080.321708231447	0
0	26045	10080.699561642672	1
0	26046	10081.159123036712	0
0	26050	10081.39309775307	1
0	26051	10082.08958289165	0
0	26055	10082.142710208081	1
0	26057	10082.200377314644	2
0	26058	10082.495532103469	1
0	26062	10082.72529592195	2
0	26064	10082.800263911807	3
0	26065	10082.922890219539	2
0	26069	10083.110016086538	3
0	26070	10083.760392680093	2
0	26073	10084.758861955981	1
0	26077	10084.835604967188	2
0	26078	10085.502541401497	1
0	26081	10086.330374960256	0
0	26105	10093.014639751612	1
0	26106	10093.626415754438	0
0	26110	10093.790241133279	1
0	26111	10094.13496234026	0
0	26115	10094.464458444012	1
0	26116	10094.537083014708	0
0	26120	10095.138860119363	1
0	26121	10095.212323086059	0
0	26130	10096.450711310252	1
0	26131	10097.298388149427	0
0	26135	10097.804573404573	1
0	26136	10097.81339466956	0
0	26140	10098.091806162897	1
0	26141	10098.735908047925	0
0	26150	10099.752236621155	1
0	26151	10100.300663471059	0
0	26160	10101.288626301308	1
0	26161	10101.541433492792	0
0	26175	10103.589102281764	1
0	26176	10104.04282110009	0
0	26210	10137.867106078698	1
0	26211	10137.887555026274	0
0	26255	10147.176065331054	1
0	26256	10147.664289409716	0
0	26325	10188.204453400192	1
0	26326	10188.571236701505	0
0	26350	10205.375969397361	1
0	26351	10205.793583866705	0
0	26372	10209.13278896157	1
0	26381	10210.901279798415	0
0	26390	10211.978443272165	1
0	26391	10212.464683865695	0
0	26415	10215.955381714972	1
0	26416	10216.52791182108	0
0	26425	10217.757280192262	1
0	26426	10218.132188288986	0
0	26435	10219.353340182084	1
0	26436	10219.585623221078	0
0	26550	10273.760501353114	1
0	26551	10274.138020921182	0
0	26590	10294.372329371814	1
0	26591	10294.694805893134	0
0	26595	10294.832331866052	1
0	26596	10295.142855426734	0
0	26600	10295.522206867082	1
0	26602	10295.711538787654	2
0	26603	10295.832669645101	1
0	26612	10297.137942998531	2
0	26613	10297.20098554764	1
0	26616	10297.733772223462	0
0	26650	10321.136897562492	1
0	26651	10321.552370113778	0
0	26660	10322.370889319849	1
0	26661	10322.766836032868	0
0	26680	10325.848877558845	1
0	26682	10325.993376945215	2
0	26689	10327.028520974096	3
0	26690	10327.524754007676	2
0	26694	10328.357306726918	3
0	26695	10328.52398858988	2
0	26699	10328.954504173135	3
0	26700	10329.511488772233	2
0	26703	10330.029531499886	1
0	26707	10330.221415336137	2
0	26708	10330.883744716181	1
0	26711	10331.542799651439	0
0	26715	10331.6768015952	1
0	26716	10332.294295833402	0
0	26722	10332.681188652976	1
0	26727	10333.355543465091	2
0	26728	10333.715445003708	1
0	26736	10334.723442299714	0
0	26740	10334.769874766704	1
0	26741	10335.472611088263	0
0	26745	10335.485322928921	1
0	26746	10336.365589063898	0
0	26757	10338.102208484353	1
0	26762	10338.763685363343	2
0	26763	10339.077740577427	1
0	26766	10339.486481108708	0
0	26790	10346.647250423421	1
0	26791	10346.688222177743	0
0	26875	10392.491201336783	1
0	26876	10393.256854932872	0
0	26885	10393.9253684385	1
0	26886	10394.484924133751	0
0	26915	10398.0227463903	1
0	26916	10398.178125909173	0
0	26925	10399.388205976067	1
0	26926	10399.857068972772	0
0	26950	10404.486837253148	1
0	26951	10404.796598360199	0
0	27005	10424.245825377815	1
0	27006	10424.44915832887	0
0	27042	10442.386258191983	1
0	27051	10444.138049903224	0
0	27065	10446.336030913199	1
0	27071	10447.238435950324	0
0	27082	10448.816903562285	1
0	27086	10449.304978177611	0
0	27095	10450.075995515023	1
0	27096	10450.633056881799	0
0	27110	10455.98668584619	1
0	27111	10456.021899672047	0
0	27140	10464.721605333007	1
0	27141	10464.968390193973	0
0	27155	10467.145223038788	1
0	27156	10467.563820845272	0
0	27160	10467.707016095842	1
0	27164	10468.291189219358	2
0	27174	10468.844369117928	3
0	27225	10476.022353349779	2
0	27228	10476.663286179271	1
0	27231	10477.604715550192	0
0	27255	10483.989337559462	1
0	27256	10484.637476073978	0
0	27265	10485.415644201185	1
0	27266	10485.750349002527	0
0	27335	10515.424150255416	1
0	27336	10515.959635236077	0
0	27360	10529.320644894619	1
0	27361	10529.905655933739	0
0	27510	10645.287604637221	1
0	27511	10645.418748752978	0
0	27540	10653.012701052184	1
0	27541	10653.510478585539	0
0	27570	10669.551994810764	1
0	27571	10669.954777622353	0
0	27580	10671.305280816618	1
0	27581	10671.345899217147	0
0	27650	10700.649149599373	1
0	27651	10701.435492849077	0
0	27680	10708.773093847975	1
0	27682	10709.007924106943	2
0	27683	10709.089784685611	1
0	27691	10710.795161870956	0
0	27705	10728.827082485604	1
0	27706	10728.881822396014	0
0	27720	10731.39395035815	1
0	27721	10732.026747950224	0
0	27800	10753.10046508706	1
0	27806	10753.964725519218	0
0	27822	10755.599647298388	1
0	27851	10760.405464536991	0
0	27890	10783.107775065763	1
0	27896	10784.227548652145	0
0	27900	10784.249790010679	1
0	27906	10785.629901000441	0
0	27915	10786.113063053056	1
0	27916	10786.983779195606	0
0	27925	10788.489708187526	1
0	27926	10788.513913078166	0
0	27947	10802.720284116236	1
0	27951	10802.923358671432	2
0	27968	10805.701846848089	1
0	27976	10807.080443878366	0
0	27980	10807.226446496428	1
0	27986	10808.453731679159	0
0	28000	10818.608123028507	1
0	28001	10819.116231510784	0
0	28015	10821.18078125557	1
0	28016	10821.478850546935	0
0	28135	10881.944252843935	1
0	28136	10882.498991490047	0
0	28155	10884.560158997463	1
0	28156	10885.11343128456	0
0	28365	11027.73659517929	1
0	28366	11028.398676071342	0
0	28385	11030.674879364178	1
0	28386	11031.068839646013	0
0	28440	11070.938269091131	1
0	28446	11071.835654096384	0
0	28452	11072.407023770355	1
0	28456	11073.182945201811	0
0	28505	11100.440855108026	1
0	28506	11100.93178627329	0
0	28515	11101.662491132681	1
0	28516	11102.539531816599	0
0	28520	11102.567933574555	1
0	28521	11103.532195628072	0
0	28525	11103.650138257889	1
0	28526	11104.176231285148	0
0	28535	11105.523413590682	1
0	28536	11105.534943218795	0
0	28550	11111.63537850599	1
0	28551	11112.135908237295	0
0	28590	11136.725381542075	1
0	28591	11137.446555927144	0
0	28600	11138.273120751464	1
0	28606	11139.510886857081	0
0	28634	11144.643051548234	1
0	28651	11148.428483279913	0
0	28670	11150.48827686985	1
0	28671	11151.268064535172	0
0	28730	11180.198511262438	1
0	28731	11180.391491419366	0
0	28737	11181.124613931122	1
0	28742	11181.411995225676	2
0	28743	11182.175150628304	1
0	28746	11182.901375699937	0
0	28775	11194.282732347682	1
0	28776	11194.557929562516	0
0	28790	11198.230549925992	1
0	28791	11198.812411337332	0
0	28795	11198.966210620266	1
0	28796	11199.68132951505	0
0	28800	11199.931973350436	1
0	28801	11200.466113056834	0
0	28805	11200.819797056604	1
0	28806	11201.206021816037	0
0	28850	11218.441048649201	1
0	28851	11218.677349282013	0
0	28860	11227.465579648629	1
0	28861	11227.710113236873	0
0	28880	11240.112030616419	1
0	28881	11240.506109614962	0
0	28895	11242.398839258052	1
0	28896	11242.985491969254	0
0	28900	11243.041795256065	1
0	28901	11243.981125034442	0
0	28905	11244.246162825745	1
0	28906	11244.497745584328	0
0	28950	11256.176341798204	1
0	28951	11256.566994176044	0
0	29032	11291.869610537092	1
0	29037	11292.767396315058	2
0	29038	11293.16354503777	1
0	29051	11295.04939578456	0
0	29220	11361.206448351902	1
0	29221	11361.402704569433	0
0	29295	11379.208380082893	1
0	29296	11379.37401200372	0
0	29315	11382.700050994064	1
0	29316	11383.010768028798	0
0	29330	11385.120417550285	1
0	29331	11385.462200422266	0
0	29410	11412.135048461725	1
0	29411	11412.756516130128	0
0	29415	11413.416348251725	1
0	29416	11413.649692563106	0
0	29420	11413.902675588007	1
0	29421	11414.594694858555	0
0	29435	11424.615020649605	1
0	29436	11425.109679760007	0
0	29460	11432.753210224404	1
0	29461	11433.332321431621	0
0	29465	11433.640641111886	1
0	29466	11433.768398515827	0
0	29480	11435.444251152104	1
0	29482	11435.72371942385	2
0	29483	11435.942589946556	1
0	29492	11437.388944123408	2
0	29493	11437.50251927115	1
0	29499	11437.998168907227	2
0	29503	11439.054960296209	1
0	29506	11439.477625909959	0
0	29515	11440.681738860922	1
0	29517	11440.973636306696	2
0	29518	11441.030343062388	1
0	29522	11441.049630916779	2
0	29523	11441.616976597816	1
0	29527	11441.893158037362	2
0	29528	11442.391625418006	1
0	29532	11442.536732038081	2
0	29534	11442.72712308954	3
0	29535	11442.976829149532	2
0	29539	11443.089825594661	3
0	29540	11443.871153844152	2
0	29543	11444.418124367161	1
0	29547	11444.923901666202	2
0	29548	11445.217466374118	1
0	29551	11446.108826638948	0
0	29647	11487.186663336152	1
0	29657	11488.280693453818	2
0	29668	11490.268964817914	1
0	29681	11492.412305081896	0
0	29687	11492.847069867666	1
0	29691	11493.895550109986	0
0	29700	11494.786733500452	1
0	29701	11495.166615750227	0
0	29710	11495.919651063656	1
0	29711	11496.23211740838	0
0	29720	11497.535153488933	1
0	29721	11497.71603366193	0
0	29740	11502.206630389446	1
0	29741	11502.239782360802	0
0	29810	11548.9825677812	1
0	29811	11549.265936737265	0
0	29820	11551.462580941912	1
0	29821	11551.955434480949	0
0	29850	11566.306243741117	1
0	29851	11566.990445471908	0
0	29885	11577.626538689956	1
0	29886	11578.144952366137	0
0	29935	11587.21530105136	1
0	29936	11588.026466910408	0
0	29955	11593.254414814194	1
0	29956	11593.591731078767	0
0	29960	11593.738367916123	1
0	29961	11594.467436486932	0
0	29965	11594.745670618202	1
0	29966	11595.357616190736	0
0	29970	11596.079966999865	1
0	29971	11596.298470696232	0
0	29980	11597.711825857477	1
0	29981	11598.19639247009	0
0	30030	11620.876362076225	1
0	30031	11621.627086458392	0
0	30050	11625.46598828007	1
0	30051	11625.980849283982	0
0	30055	11626.309642422684	1
0	30057	11626.612279905827	2
0	30058	11626.976576628119	1
0	30062	11627.017502824876	2
0	30063	11627.774060436992	1
0	30067	11627.897858722282	2
0	30068	11628.461439934468	1
0	30071	11628.968885909768	0
0	30080	11630.075893289078	1
0	30082	11630.469784312052	2
0	30083	11630.514885984383	1
0	30087	11631.00483325194	2
0	30089	11631.329451479769	3
0	30090	11631.442830090433	2
0	30094	11631.539573312874	3
0	30096	11632.09640735787	4
0	30097	11632.381797136202	3
0	30100	11633.149903606599	2
0	30103	11633.623205283958	1
0	30107	11634.041908524434	2
0	30108	11634.304997995005	1
0	30121	11636.584699882309	0
0	30130	11637.675342646388	1
0	30132	11637.743298368249	2
0	30133	11637.868983523243	1
0	30136	11638.606884774587	0
0	30150	11642.765066552731	1
0	30151	11642.873438072876	0
0	30155	11643.176818136365	1
0	30156	11643.570898934147	0
0	30190	11658.316042996557	1
0	30191	11658.742779222285	0
0	30210	11661.283474493555	1
0	30212	11661.289573174695	2
0	30213	11661.380319932272	1
0	30216	11661.94777532763	0
0	30235	11672.14134355449	1
0	30236	11672.356872982337	0
0	30240	11672.396988553201	1
0	30241	11672.982207299295	0
0	30265	11691.303521611244	1
0	30266	11691.735857555682	0
0	30275	11692.927761378383	1
0	30277	11693.061349209421	2
0	30278	11693.398221971469	1
0	30281	11694.060447710289	0
0	30290	11695.480305167508	1
0	30291	11695.581110262966	0
0	30315	11710.566857929013	1
0	30316	11710.772680114931	0
0	30330	11713.656692650177	1
0	30331	11713.946459217213	0
0	30345	11715.52078977523	1
0	30346	11715.848765188345	0
0	30370	11718.671424811605	1
0	30371	11718.917962152716	0
0	30377	11719.345036358828	1
0	30381	11720.455676529715	0
0	30390	11723.062706735956	1
0	30391	11723.875767865958	0
0	30400	11726.129818245356	1
0	30401	11726.555821634579	0
0	30405	11726.759647155877	1
0	30406	11727.480134205503	0
0	30410	11727.703601484311	1
0	30412	11727.833729656487	2
0	30413	11727.899100600678	1
0	30417	11728.075501840081	2
0	30418	11728.734833493812	1
0	30421	11729.4781589798	0
0	30480	11760.873238129822	1
0	30481	11761.016941925016	0
0	30530	11789.308768656096	1
0	30531	11789.885072559763	0
0	30560	11794.32022201025	1
0	30561	11794.880143569002	0
0	30620	11842.759167336769	1
0	30621	11843.315314839137	0
0	30625	11843.957002108219	1
0	30626	11844.156398524679	0
0	30630	11844.231898616546	1
0	30631	11844.964814567109	0
0	30677	11861.111941659699	1
0	30691	11863.631513312124	0
0	30705	11866.103633689313	1
0	30706	11866.157446647494	0
0	30710	11866.180790947038	1
0	30711	11866.790776369127	0
0	30745	11883.906699072784	1
0	30746	11884.652056048143	0
0	30785	11897.198883900914	1
0	30786	11897.391109122981	0
0	30790	11897.533312266665	1
0	30791	11898.10195962488	0
0	30825	11903.012313678665	1
0	30826	11903.322521180564	0
0	30910	11951.559640839481	1
0	30912	11951.772706013713	2
0	30913	11951.776123817805	1
0	30916	11952.307465313403	0
0	30920	11952.43855818345	1
0	30921	11953.292215760872	0
0	30925	11953.553278188057	1
0	30926	11953.781703277985	0
0	30935	11956.623711660066	1
0	30936	11957.035090359421	0
0	30990	11972.845750030129	1
0	30991	11973.09131095343	0
0	31025	11981.046242599309	1
0	31026	11981.452373163564	0
0	31040	11983.784739956094	1
0	31046	11984.643440975061	0
0	31055	11985.493052893683	1
0	31056	11985.626982124521	0
0	31210	12073.657455947352	1
0	31211	12074.227265123716	0
0	31225	12075.830870393085	1
0	31226	12076.70262346406	0
0	31255	12102.298419732837	1
0	31256	12103.005690310513	0
0	31275	12111.151324281964	1
0	31276	12111.858620528321	0
0	31300	12116.803574178456	1
0	31301	12117.355142727351	0
0	31305	12117.370120980702	1
0	31306	12117.884814865651	0
0	31310	12118.380620848802	1
0	31311	12118.773467300363	0
0	31330	12122.050964068918	1
0	31332	12122.380625971707	2
0	31333	12122.468645068137	1
0	31336	12123.090816747881	0
0	31460	12173.950595421872	1
0	31461	12174.771299885936	0
0	31525	12208.777740335092	1
0	31526	12209.081667695907	0
0	31537	12210.197281802855	1
0	31541	12211.331231612725	0
0	31550	12213.214332598546	1
0	31551	12213.231175391343	0
0	31570	12219.73872194235	1
0	31571	12219.869289564156	0
0	31620	12239.82632386173	1
0	31621	12240.254046433647	0
0	31650	12245.556397176182	1
0	31651	12246.068111684901	0
0	31655	12246.277524145135	1
0	31656	12246.572784678388	0
0	31665	12247.569805458217	1
0	31666	12247.958549017599	0
0	31710	12255.895604329709	1
0	31711	12256.48174579627	0
0	31730	12259.999690805316	1
0	31731	12260.735404464366	0
0	31760	12278.674475998122	1
0	31761	12278.889074967619	0
0	31785	12288.176232775929	1
0	31786	12288.473011476175	0
0	31805	12305.562966537663	1
0	31807	12305.84336298481	2
0	31808	12306.396559136144	1
0	31821	12308.803703354082	0
0	31865	12332.64506614814	1
0	31866	12332.838530894827	0
0	31880	12336.756637393058	1
0	31886	12337.852767460663	0
0	31910	12364.37253743166	1
0	31911	12364.673101251605	0
0	31915	12365.137467185436	1
0	31916	12365.207647695285	0
0	31925	12371.428447087975	1
0	31927	12371.77834442404	2
0	31928	12371.959992655131	1
0	31936	12373.541597744214	0
0	32032	12435.934418555936	1
0	32036	12437.419741076644	0
0	32052	12439.589220587453	1
0	32056	12440.899310725327	0
0	32070	12450.634408795092	1
0	32071	12450.742419702454	0
0	32090	12452.968977654329	1
0	32091	12453.797781719643	0
0	32155	12487.211387968735	1
0	32156	12487.663237481479	0
0	32172	12489.902673881447	1
0	32182	12491.40117646421	2
0	32183	12491.816572174898	1
0	32186	12492.355312332979	0
0	32190	12492.982460190635	1
0	32191	12493.265784157349	0
0	32210	12502.275159811053	1
0	32211	12502.679704083747	0
0	32215	12502.770020361774	1
0	32216	12503.581029755587	0
0	32225	12504.266824536637	1
0	32226	12505.002324571588	0
0	32260	12521.378121018493	1
0	32261	12522.03337942735	0
0	32310	12538.377767809735	1
0	32311	12538.434948652053	0
0	32320	12539.878111419587	1
0	32321	12540.044664385749	0
0	32335	12542.465798765557	1
0	32336	12542.910639931042	0
0	32420	12610.960577457302	1
0	32421	12611.519533791517	0
0	32430	12612.955269684379	1
0	32431	12613.469433461961	0
0	32440	12615.536169888638	1
0	32441	12615.929475801865	0
0	32460	12628.338347357663	1
0	32461	12629.135921993446	0
0	32535	12658.701545568618	1
0	32536	12658.932797799368	0
0	32545	12659.647074654844	1
0	32546	12660.02832942425	0
0	32575	12668.77437299638	1
0	32576	12669.171487431589	0
0	32662	12693.851938664583	1
0	32669	12694.642986858134	2
0	32683	12696.612813112134	1
0	32686	12697.187149608688	0
0	32690	12697.612364243827	1
0	32691	12697.794442425848	0
0	32695	12698.092580813671	1
0	32696	12698.535563579847	0
0	32710	12701.804845692152	1
0	32711	12701.946264984101	0
0	32820	12732.795923722114	1
0	32821	12733.114519040957	0
0	32830	12734.173503442411	1
0	32831	12734.580922637299	0
0	32835	12734.846923652665	1
0	32836	12735.387092294196	0
0	32855	12743.696123590687	1
0	32856	12744.0299088332	0
0	32890	12752.520624291139	1
0	32891	12752.667669337576	0
0	32900	12770.556781179542	1
0	32901	12770.807722649369	0
0	32910	12771.69600800145	1
0	32911	12772.215485544801	0
0	32950	12796.003937030218	1
0	32951	12796.063208228841	0
0	32955	12796.309085035902	1
0	32962	12797.233937169494	2
0	32963	12797.731645794145	1
0	32966	12798.668579572371	0
0	32970	12799.104239156191	1
0	32971	12799.262565285924	0
0	33025	12829.829087015776	1
0	33026	12830.239823080904	0
0	33090	12847.513949872197	1
0	33091	12848.08592993236	0
0	33100	12849.109868703023	1
0	33106	12851.013713143867	0
0	33205	12913.053236495456	1
0	33206	12913.730825595465	0
0	33215	12914.500407547864	1
0	33216	12915.178390695434	0
0	33270	12927.161458990405	1
0	33271	12927.750676804709	0
0	33275	12927.986706011381	1
0	33276	12928.326868280138	0
0	33280	12928.391527815764	1
0	33281	12928.881004627816	0
0	33385	12981.539273383818	1
0	33387	12981.548895131914	2
0	33388	12982.208765071491	1
0	33391	12983.135570531199	0
0	33405	12985.69943413012	1
0	33406	12986.0850375763	0
0	33410	12986.416990535958	1
0	33411	12986.996159328413	0
0	33420	12989.375469213121	1
0	33421	12990.317677731722	0
0	33480	13007.934140447196	1
0	33481	13008.292300081247	0
0	33495	13010.240060387617	1
0	33496	13010.589999641621	0
0	33505	13011.504862247773	1
0	33506	13012.120333846196	0
0	33520	13014.667946432347	1
0	33521	13015.283623978983	0
0	33530	13016.509863785729	1
0	33531	13016.994807278813	0
0	33550	13022.812393204614	1
0	33551	13023.508845766268	0
0	33605	13047.896554294134	1
0	33606	13048.433101920997	0
0	33612	13048.788081059473	1
0	33614	13048.96423360803	2
0	33618	13049.844921563267	1
0	33627	13050.766773460083	2
0	33628	13051.044446436809	1
0	33642	13052.650933584695	2
0	33648	13053.458048342382	1
0	33656	13054.357443051813	0
0	33660	13054.703552219633	1
0	33661	13055.248671449469	0
0	33665	13055.41049323163	1
0	33666	13056.075280658742	0
0	33690	13063.383471016107	1
0	33691	13063.843916929987	0
0	33725	13093.603819567848	1
0	33726	13094.436074224156	0
0	33735	13096.314769975186	1
0	33737	13096.536611580617	2
0	33738	13096.585444456222	1
0	33746	13097.803051077783	0
0	33755	13098.662820143893	1
0	33756	13099.380772747867	0
0	33790	13113.368609510674	1
0	33791	13114.155375801526	0
0	33805	13119.015186128025	1
0	33806	13119.425138665467	0
0	33827	13142.815054320394	1
0	33831	13143.812210069302	0
0	33845	13146.995829463356	1
0	33846	13147.318108161246	0
0	33890	13157.172401372567	1
0	33891	13157.368327419803	0
0	33910	13167.627747738483	1
0	33911	13167.797054259353	0
0	33925	13172.039893611553	1
0	33926	13172.042066234799	0
0	33945	13178.59859422526	1
0	33946	13178.776956646855	0
0	33960	13180.499077128253	1
0	33962	13180.661206334742	2
0	33963	13181.007421361024	1
0	33966	13181.625802675982	0
0	33970	13181.875139094018	1
0	33971	13182.607803296366	0
0	34010	13193.972443747387	1
0	34011	13194.897721671326	0
0	34020	13196.24171856426	1
0	34021	13196.918799241289	0
0	34140	13248.052551740332	1
0	34141	13248.740163834247	0
0	34145	13249.096788008525	1
0	34146	13249.512998683744	0
0	34155	13257.345852625981	1
0	34156	13257.527777917191	0
0	34210	13282.774241629713	1
0	34211	13282.930314696583	0
0	34227	13284.628209161324	1
0	34231	13285.440022857214	0
0	34280	13297.412798152861	1
0	34281	13297.700393450751	0
0	34285	13298.330594856613	1
0	34286	13298.658259392927	0
0	34354	13315.829192331695	1
0	34364	13317.066202719345	2
0	34373	13318.552046355159	1
0	34381	13319.816776959758	0
0	34385	13319.878953229243	1
0	34391	13321.040174550351	0
0	34422	13330.173095914922	1
0	34427	13330.665790227239	2
0	34428	13331.077679168755	1
0	34446	13334.338544277238	0
0	34455	13335.095658773023	1
0	34456	13335.876846801067	0
0	34590	13435.323765752779	1
0	34591	13435.672242841372	0
0	34667	13464.634176428096	1
0	34681	13466.605071949204	0
0	34735	13484.8817355703	1
0	34736	13485.123597709257	0
0	34740	13485.455207701682	1
0	34741	13485.684631887153	0
0	34750	13488.215307544262	1
0	34751	13488.627595409425	0
0	34775	13492.856895442572	1
0	34776	13493.080557320441	0
0	34790	13495.573421266634	1
0	34791	13496.221894833295	0
0	34807	13498.119257184243	1
0	34811	13499.085784783305	0
0	34850	13515.668693786239	1
0	34851	13515.781056270344	0
0	34855	13516.315462056786	1
0	34856	13516.467730046497	0
0	34860	13517.003394714906	1
0	34861	13517.165466654781	0
0	34875	13522.608856058669	1
0	34876	13523.232285259817	0
0	34890	13527.567196363661	1
0	34891	13527.798043430708	0
0	34930	13537.536547683254	1
0	34931	13538.259243671332	0
0	34950	13545.993544368353	1
0	34951	13546.235008151165	0
0	34960	13547.104971635794	1
0	34961	13547.690195156529	0
0	34987	13551.667551121622	1
0	34991	13552.644746423167	0
0	35000	13553.736971242342	1
0	35001	13554.223924761432	0
0	35037	13561.200689936203	1
0	35042	13561.654513644368	2
0	35043	13562.160944160014	1
0	35046	13562.951120752688	0
0	35050	13563.471564445803	1
0	35051	13563.530946111433	0
0	35085	13585.656114913938	1
0	35087	13585.813425155457	2
0	35088	13586.267766155818	1
0	35091	13587.123220301842	0
0	35210	13623.941381976735	1
0	35211	13624.179635682637	0
0	35220	13626.606300277547	1
0	35221	13627.298663211725	0
0	35307	13645.025123933085	1
0	35311	13645.846021280631	0
0	35320	13647.217884527666	1
0	35321	13647.737487717632	0
0	35330	13649.369006651618	1
0	35331	13649.851031953111	0
0	35335	13650.032447024756	1
0	35336	13650.50422136175	0
0	35345	13653.955490975131	1
0	35346	13654.574693410616	0
0	35380	13667.154041869828	1
0	35381	13667.292158048642	0
0	35385	13667.38878356902	1
0	35386	13667.764392604535	0
0	35445	13693.257377855628	1
0	35446	13693.840578882122	0
0	35450	13694.167629005859	1
0	35451	13694.587698339909	0
0	35460	13695.66758009931	1
0	35461	13696.133832981815	0
0	35480	13702.3713545352	1
0	35481	13702.78199069271	0
0	35530	13737.172680829573	1
0	35531	13737.284445325313	0
0	35535	13737.328820387698	1
0	35536	13737.771551898848	0
0	35550	13744.051426551341	1
0	35556	13745.579557768577	0
0	35565	13748.756321970008	1
0	35566	13748.845901133023	0
0	35570	13749.263040283283	1
0	35571	13749.524759667083	0
0	35580	13750.62405296537	1
0	35581	13750.826383469668	0
0	35600	13754.125111242955	1
0	35601	13754.287066597095	0
0	35675	13781.801346983124	1
0	35676	13782.477451834931	0
0	35695	13793.064755329511	1
0	35696	13793.337453975632	0
0	35740	13818.737395664291	1
0	35742	13819.030800904847	2
0	35743	13819.272716875176	1
0	35747	13820.012878246573	2
0	35748	13820.211349541822	1
0	35751	13820.922689868032	0
0	35755	13821.310447622497	1
0	35756	13821.726420227938	0
0	35785	13832.050654523356	1
0	35786	13832.061738340674	0
0	35800	13843.530551821509	1
0	35801	13843.602667359392	0
0	35805	13843.803342616756	1
0	35806	13844.476896179783	0
0	35810	13844.850339813352	1
0	35811	13845.027756975814	0
0	35820	13846.739967917314	1
0	35824	13846.881191423648	2
0	35829	13847.496572514419	3
0	35831	13847.610280433303	4
0	35832	13847.813663540257	3
0	35841	13848.662020143924	4
0	35842	13849.29674568827	3
0	35845	13850.171972235513	2
0	35848	13850.971669382031	1
0	35852	13851.217368835172	2
0	35853	13851.815917192713	1
0	35857	13852.240335197345	2
0	35858	13852.383647363341	1
0	35861	13853.154992192925	0
0	35880	13860.636573961783	1
0	35881	13860.810650053945	0
0	35910	13868.617642793413	1
0	35916	13869.619714554317	0
0	35920	13869.950155002096	1
0	35921	13870.069235010223	0
0	36030	13924.912206325387	1
0	36031	13925.179900410458	0
0	36060	13934.381605406922	1
0	36061	13934.753705332288	0
0	36065	13934.854779763634	1
0	36066	13935.277278565522	0
0	36135	13973.547011334349	1
0	36136	13973.977609262843	0
0	36145	13975.453984127289	1
0	36146	13975.705218949304	0
0	36157	13976.567269411221	1
0	36166	13978.362284805667	0
0	36225	14035.179533141609	1
0	36226	14035.505243276059	0
0	36275	14060.648905205582	1
0	36276	14061.122638168343	0
0	36305	14084.373339563547	1
0	36306	14084.614384341851	0
0	36315	14086.02914707074	1
0	36316	14086.454484567006	0
0	36330	14088.430325998197	1
0	36331	14089.022191045777	0
0	36340	14090.128396792421	1
0	36341	14090.231494030886	0
0	36370	14100.907008876378	1
0	36371	14100.983005381814	0
0	36380	14102.73879088715	1
0	36381	14103.502846496521	0
0	36455	14121.406576899046	1
0	36456	14121.615049941159	0
0	36465	14126.049939313009	1
0	36466	14126.294556163065	0
0	36505	14149.288695801455	1
0	36506	14149.656105855014	0
0	36530	14157.897551552115	1
0	36531	14158.598221908425	0
0	36705	14235.770403259001	1
0	36706	14235.914813685244	0
0	36710	14236.264789453707	1
0	36711	14236.908039303556	0
0	36730	14239.649225883052	1
0	36736	14241.221890114116	0
0	36800	14278.442579347677	1
0	36801	14278.592084564635	0
0	36870	14311.920506758972	1
0	36871	14312.42132120189	0
0	36880	14313.914735628603	1
0	36881	14313.919509000804	0
0	36885	14314.067890974842	1
0	36887	14314.215369644113	2
0	36888	14314.679565972237	1
0	36891	14315.523579811173	0
0	36935	14327.196937674489	1
0	36936	14327.556406072764	0
0	37010	14361.662183967186	1
0	37011	14361.929280833582	0
0	37065	14390.125062206568	1
0	37066	14391.099619600994	0
0	37070	14391.70728224626	1
0	37071	14391.919696795361	0
0	37075	14392.008246312176	1
0	37076	14392.742824397588	0
0	37080	14393.009830200581	1
0	37086	14394.101586028959	0
0	37120	14403.366924549073	1
0	37121	14403.586569540473	0
0	37135	14406.31433705196	1
0	37137	14406.350797448669	2
0	37138	14406.651691215139	1
0	37141	14407.090110777391	0
0	37180	14425.956209722903	1
0	37181	14426.065984640716	0
0	37225	14435.14429157053	1
0	37226	14435.741228024985	0
0	37260	14457.142623812504	1
0	37261	14457.342723646992	0
0	37315	14496.553469146934	1
0	37316	14496.557706802749	0
0	37340	14507.941128247072	1
0	37341	14508.454881333438	0
0	37350	14509.705345317515	1
0	37351	14510.062575085247	0
0	37360	14511.675039119898	1
0	37361	14511.736229984481	0
0	37375	14515.408679869761	1
0	37376	14515.590763316594	0
0	37442	14574.828003862629	1
0	37447	14575.366168528378	2
0	37448	14575.906612198524	1
0	37456	14577.497239030063	0
0	37465	14578.384296393983	1
0	37471	14579.609135284604	0
0	37480	14580.434817193165	1
0	37481	14580.94969534568	0
0	37510	14608.131310400736	1
0	37511	14608.632131408435	0
0	37515	14608.641279425544	1
0	37521	14609.754581252161	0
0	37525	14610.031417930854	1
0	37532	14610.368736565135	2
0	37533	14610.682456457663	1
0	37539	14610.895953167555	2
0	37543	14612.457873270848	1
0	37551	14613.818873661618	0
0	37590	14633.694081506865	1
0	37591	14633.798125698627	0
0	37600	14635.57858536475	1
0	37601	14636.137688549786	0
0	37640	14650.509061839455	1
0	37642	14650.697467736525	2
0	37643	14651.134431906303	1
0	37646	14651.592604592375	0
0	37650	14651.78833851722	1
0	37651	14652.528875503854	0
0	37745	14718.742844130383	1
0	37746	14719.568569857353	0
0	37800	14752.093878809313	1
0	37801	14752.443475923322	0
0	37807	14752.822564947144	1
0	37811	14753.83179471852	0
0	37885	14787.975149132073	1
0	37886	14788.503803541644	0
0	37890	14788.620620597279	1
0	37891	14789.331159159115	0
0	37925	14799.181156794603	1
0	37926	14799.503821008797	0
0	37935	14801.025254307073	1
0	37937	14801.174609246033	2
0	37938	14801.184909639699	1
0	37941	14802.13886990557	0
0	37950	14803.439122364095	1
0	37951	14803.930324184611	0
0	37960	14805.417421226092	1
0	37961	14805.805518257905	0
0	38000	14814.093108665791	1
0	38007	14815.158758636451	2
0	38008	14815.759492609149	1
0	38016	14817.049360136652	0
0	38070	14862.665227739981	1
0	38071	14862.840417686306	0
0	38075	14863.01116139934	1
0	38076	14863.417241335349	0
0	38085	14864.702526401287	1
0	38086	14864.985077917311	0
0	38095	14865.686484099609	1
0	38096	14866.474381081668	0
0	38105	14867.567401651196	1
0	38106	14867.626427445919	0
0	38155	14889.209452379676	1
0	38156	14889.480203442547	0
0	38180	14900.090536514844	1
0	38182	14900.310713401591	2
0	38183	14900.317896615362	1
0	38191	14901.855813550271	0
0	38195	14902.148779044854	1
0	38199	14902.478742865059	2
0	38204	14903.177518192975	3
0	38205	14903.736846135251	2
0	38208	14904.178085905194	1
0	38211	14905.169949176043	0
0	38230	14908.535204273412	1
0	38231	14909.202984100011	0
0	38245	14911.818576915644	1
0	38252	14912.960230241819	2
0	38253	14913.04612474226	1
0	38257	14913.618644022522	2
0	38259	14913.62254879338	3
0	38260	14914.006609787499	2
0	38263	14914.745316979788	1
0	38266	14915.564751850335	0
0	38290	14925.031729148899	1
0	38291	14925.317142641076	0
0	38300	14926.415044948077	1
0	38301	14926.802519435806	0
0	38365	14960.852059179561	1
0	38366	14960.953778099838	0
0	38405	14983.4381247581	1
0	38412	14984.881730271812	2
0	38413	14984.900995364965	1
0	38416	14985.30782072455	0
0	38585	15085.131589242077	1
0	38586	15085.2694217653	0
0	38615	15094.27404696584	1
0	38616	15094.614120187557	0
0	38635	15098.743573671397	1
0	38636	15099.21301319719	0
0	38640	15099.997857493041	1
0	38641	15100.061848564853	0
0	38665	15106.504117671305	1
0	38666	15106.552909642386	0
0	38670	15106.769449022314	1
0	38676	15108.249285693022	0
0	38745	15133.145496814058	1
0	38747	15133.492096044676	2
0	38748	15134.000657450578	1
0	38751	15134.912828878623	0
0	38755	15135.158370272549	1
0	38756	15135.317445679086	0
0	38760	15135.566687814601	1
0	38761	15136.052932115721	0
0	38775	15138.8793823676	1
0	38776	15139.469653582334	0
0	38850	15177.120658554589	1
0	38851	15177.972540175311	0
0	38865	15180.311526578695	1
0	38866	15180.541837488754	0
0	38870	15181.120690145872	1
0	38871	15181.276608467369	0
0	38925	15215.794689751706	1
0	38926	15216.403232160185	0
0	38930	15216.713348093577	1
0	38932	15216.887649009721	2
0	38933	15217.35578948769	1
0	38936	15218.009040166226	0
0	38945	15218.795231353865	1
0	38947	15218.943452223476	2
0	38948	15219.049578029823	1
0	38956	15220.366452488138	0
0	38965	15221.426159497905	1
0	38966	15222.127842201262	0
0	38990	15227.148748296574	1
0	38991	15227.69786518266	0
0	39000	15228.762041997809	1
0	39001	15229.04114617243	0
0	39012	15230.141928483306	1
0	39016	15231.476949291617	0
0	39080	15262.383819738984	1
0	39081	15262.579156843881	0
0	39110	15273.754332237263	1
0	39111	15274.404397300266	0
0	39135	15279.955008645982	1
0	39136	15280.537180168232	0
0	39150	15282.212758542294	1
0	39151	15282.441253706493	0
0	39160	15283.524669413232	1
0	39161	15284.110714488109	0
0	39210	15312.931970260092	1
0	39211	15313.200233785827	0
0	39240	15330.196801787198	1
0	39241	15330.695299799634	0
0	39245	15330.704455281705	1
0	39246	15331.628166893577	0
0	39250	15332.00813499193	1
0	39251	15332.541582540689	0
0	39255	15332.884561050585	1
0	39256	15333.101955908617	0
0	39270	15335.437133719653	1
0	39271	15335.877482481684	0
0	39285	15339.125096208413	1
0	39286	15339.214331482234	0
0	39335	15362.490329459644	1
0	39337	15362.732284978988	2
0	39338	15363.296596912491	1
0	39347	15364.355346946108	2
0	39348	15364.49629174742	1
0	39351	15365.364951857516	0
0	39405	15422.843407460187	1
0	39406	15422.966008830016	0
0	39425	15431.9210780053	1
0	39426	15432.387495225271	0
0	39455	15443.306640711829	1
0	39456	15443.376253533289	0
0	39465	15444.38435350068	1
0	39466	15444.841081425472	0
0	39470	15445.080153284059	1
0	39471	15445.64525793732	0
0	39475	15446.062016627482	1
0	39476	15446.188002638629	0
0	39515	15458.032991334671	1
0	39516	15458.856417000448	0
0	39572	15489.335486635169	1
0	39576	15490.174695606298	0
0	39605	15496.261134068569	1
0	39606	15496.700884604591	0
0	39610	15497.149756676032	1
0	39611	15497.513975073767	0
0	39615	15498.072754944815	1
0	39616	15498.371600685499	0
0	39620	15498.429976532871	1
0	39621	15499.325422649549	0
0	39635	15504.409968179886	1
0	39636	15505.212366463437	0
0	39655	15507.363413160516	1
0	39656	15508.263442511603	0
0	39675	15523.979972000512	1
0	39676	15524.746042113058	0
0	39705	15534.858640662041	1
0	39706	15534.874912079657	0
0	39735	15542.285269761386	1
0	39736	15543.139929186768	0
0	39740	15543.895137438291	1
0	39741	15544.057002077839	0
0	39810	15576.997616487871	1
0	39811	15577.222478019854	0
0	39820	15579.747851639423	1
0	39821	15579.783019016851	0
0	39825	15580.450453733016	1
0	39826	15580.630523131676	0
0	39877	15600.683364313029	1
0	39881	15601.716569595955	0
0	39885	15602.210261576596	1
0	39886	15602.490324674206	0
0	39945	15630.841039288944	1
0	39946	15631.219014846521	0
0	39975	15637.114198302331	1
0	39976	15637.23653478326	0
0	40030	15673.170512995833	1
0	40031	15673.613686751522	0
0	40045	15675.336963618223	1
0	40046	15675.864688139466	0
0	40050	15675.876927169728	1
0	40052	15676.398251076853	2
0	40053	15676.658753061119	1
0	40056	15677.53336023084	0
0	40060	15677.537660796185	1
0	40062	15678.119876268304	2
0	40063	15678.319670349649	1
0	40067	15678.665802208983	2
0	40068	15678.921354230364	1
0	40071	15679.590007694774	0
0	40117	15695.425171612785	1
0	40121	15696.668651527739	0
0	40164	15702.750507631976	1
0	40186	15706.272049973792	0
0	40285	15746.119344666687	1
0	40286	15746.384607573974	0
0	40295	15747.321806699191	1
0	40296	15747.738027639178	0
0	40324	15751.125890274575	1
0	40331	15752.508142759236	0
0	40390	15767.344035721095	1
0	40392	15768.174372563003	2
0	40393	15768.20088379443	1
0	40404	15769.252061023848	2
0	40408	15770.11639942731	1
0	40411	15770.986594232584	0
0	40455	15816.34246668616	1
0	40456	15816.371826301326	0
0	40515	15855.263716952429	1
0	40516	15855.407980444936	0
0	40520	15855.892539320366	1
0	40521	15856.180542795828	0
0	40530	15856.869079024829	1
0	40531	15857.171560211482	0
0	40560	15863.939389808243	1
0	40566	15865.11569194863	0
0	40585	15886.884008893682	1
0	40586	15886.924945491791	0
0	40590	15887.571036664514	1
0	40591	15887.889354066231	0
0	40654	15920.536877550474	1
0	40661	15922.411634070186	0
0	40667	15922.856749519801	1
0	40672	15922.890343137428	2
0	40673	15923.532942072807	1
0	40676	15924.003702782506	0
0	40680	15924.195507569787	1
0	40681	15924.445205982953	0
0	40690	15925.124086975963	1
0	40692	15925.194657804814	2
0	40693	15925.603175027894	1
0	40701	15927.472917730214	0
0	40705	15927.706777465768	1
0	40706	15928.058854268204	0
0	40740	15940.273476815507	1
0	40741	15940.37196515122	0
0	40800	15969.387761030978	1
0	40801	15969.899661098984	0
0	40805	15970.524778758111	1
0	40806	15970.871504393876	0
0	40810	15970.948531199107	1
0	40811	15971.564614287582	0
0	40960	16027.68173985469	1
0	40961	16027.864083793568	0
0	41030	16055.196961177404	1
0	41031	16055.634750048232	0
0	41040	16057.024099446815	1
0	41047	16057.37780684036	2
0	41053	16059.095513602187	1
0	41062	16060.168621146793	2
0	41063	16060.743674010997	1
0	41071	16062.152809268869	0
0	41075	16062.649375854966	1
0	41082	16063.244303914697	2
0	41088	16064.230100970138	1
0	41097	16065.028740826653	2
0	41098	16065.383066596259	1
0	41101	16066.023391115973	0
0	41105	16066.242602332692	1
0	41106	16066.477746481337	0
0	41150	16081.684016427345	1
0	41151	16082.114894957184	0
0	41230	16107.613537881263	1
0	41231	16108.008798187505	0
0	41250	16110.906772130868	1
0	41251	16111.062647253468	0
0	41280	16121.678345472382	1
0	41281	16122.439591400405	0
0	41320	16138.92724675324	1
0	41321	16139.279607300208	0
0	41325	16139.590377203251	1
0	41326	16139.926146035668	0
0	41335	16142.379544866101	1
0	41336	16143.106053485649	0
0	41340	16143.492652745381	1
0	41341	16143.607966262961	0
0	41345	16143.902160056525	1
0	41346	16144.102780894024	0
0	41355	16145.380028382726	1
0	41356	16146.245956995853	0
0	41360	16146.340003479615	1
0	41367	16147.445701352678	2
0	41368	16147.743695810439	1
0	41371	16148.45758960508	0
0	41380	16150.455433227104	1
0	41381	16151.060863851422	0
0	41405	16156.904233192731	1
0	41406	16157.439182916169	0
0	41420	16161.253458216848	1
0	41421	16161.5787781979	0
0	41480	16193.164521221609	1
0	41481	16193.41552972842	0
0	41517	16223.429617780447	1
0	41526	16224.702457662367	0
0	41575	16262.640089915438	1
0	41576	16263.321492952591	0
0	41602	16280.863666166718	1
0	41611	16282.843115472676	0
0	41645	16294.624444958767	1
0	41646	16294.82630636764	0
0	41670	16306.073239220346	1
0	41671	16306.160140983476	0
0	41695	16308.570466581508	1
0	41697	16309.195132356454	2
0	41698	16309.375417587725	1
0	41706	16310.60602625283	0
0	41715	16311.863376952674	1
0	41716	16311.998739242326	0
0	41735	16315.052872571693	1
0	41736	16315.067434736568	0
0	41745	16315.753944168798	1
0	41746	16316.503741368553	0
0	41750	16316.536916138583	1
0	41756	16318.241704510334	0
0	41770	16320.58037191478	1
0	41771	16320.833040011585	0
0	41775	16321.261962560443	1
0	41776	16321.540230669737	0
0	41820	16333.855355008362	1
0	41821	16333.864427432296	0
0	41825	16333.914521609802	1
0	41826	16334.594420924335	0
0	41845	16337.855783315543	1
0	41846	16337.962023082441	0
0	41935	16383.136118312102	1
0	41936	16383.380828538428	0
0	41980	16397.192860097071	1
0	41981	16397.320586551178	0
0	41995	16400.338771137527	1
0	41996	16400.731807080966	0
0	42035	16413.631797204901	1
0	42036	16414.083492349054	0
0	42090	16438.754472636026	1
0	42091	16439.37472985737	0
0	42150	16458.607495764613	1
0	42151	16458.810679580165	0
0	42175	16465.964258773232	1
0	42176	16466.518595096513	0
0	42180	16466.773088196957	1
0	42182	16466.7843785307	2
0	42188	16468.020027479992	1
0	42192	16468.51704052851	2
0	42193	16468.811393158368	1
0	42197	16469.016445232574	2
0	42198	16469.404716366434	1
0	42201	16469.878360324258	0
0	42240	16486.402587230045	1
0	42241	16487.296637743542	0
0	42280	16505.594832929289	1
0	42281	16505.830351980187	0
0	42285	16506.148708852111	1
0	42286	16506.364814730424	0
0	42295	16507.788629666718	1
0	42296	16508.343111458023	0
0	42300	16508.689099781149	1
0	42301	16509.133210553157	0
0	42315	16512.833299192176	1
0	42317	16513.191243149374	2
0	42318	16513.227449761339	1
0	42322	16513.463053862497	2
0	42323	16514.160752519787	1
0	42326	16515.108279995582	0
0	42360	16521.190625380417	1
0	42361	16521.480843343335	0
0	42380	16529.623823681898	1
0	42381	16530.062207771371	0
0	42415	16548.207811470794	1
0	42416	16548.342421658508	0
0	42435	16554.352144422975	1
0	42436	16554.423799755108	0
0	42445	16555.321294248247	1
0	42447	16555.399096587135	2
0	42448	16555.939352632366	1
0	42452	16556.380180279104	2
0	42453	16556.463100311166	1
0	42457	16557.306511912512	2
0	42458	16557.338271544135	1
0	42462	16557.684981807244	2
0	42464	16557.846260163045	3
0	42465	16558.000686382322	2
0	42468	16558.789145518147	1
0	42471	16559.328253432788	0
0	42565	16601.523018829288	1
0	42566	16602.02148221531	0
0	42635	16646.461549229079	1
0	42636	16647.334190574974	0
0	42640	16647.656537213233	1
0	42641	16647.977696900895	0
0	42670	16661.368637914992	1
0	42671	16661.421672209687	0
0	42695	16668.032680999351	1
0	42697	16668.19760559555	2
0	42698	16668.840366154744	1
0	42702	16669.135660964413	2
0	42703	16669.75081990368	1
0	42707	16670.299095964846	2
0	42708	16670.417531985066	1
0	42711	16670.840256739709	0
0	42765	16682.964432543497	1
0	42781	16685.67946525819	0
0	42820	16727.055617498805	1
0	42821	16727.778388421556	0
0	42845	16743.126075336439	1
0	42846	16743.804925081811	0
0	42850	16744.211371344155	1
0	42851	16744.304517271674	0
0	42920	16772.662452001345	1
0	42921	16773.215197946739	0
0	42925	16773.668823000014	1
0	42926	16773.939280944506	0
0	42935	16775.281786466218	1
0	42937	16775.332659411139	2
0	42938	16775.434476459308	1
0	42942	16775.492981716282	2
0	42948	16776.766764784653	1
0	42952	16777.191240514505	2
0	42953	16777.401696305026	1
0	42957	16777.549224019997	2
0	42958	16777.832029547452	1
0	42961	16778.303917500193	0
0	42975	16780.08789236819	1
0	42977	16780.26636252693	2
0	42979	16780.342943854676	3
0	42980	16780.749408165904	2
0	42983	16781.318597820055	1
0	42986	16782.230084884426	0
0	42995	16784.621607154247	1
0	42996	16784.650780990285	0
0	43010	16787.796142134193	1
0	43011	16787.956811183541	0
0	43015	16788.61428764833	1
0	43016	16788.754271381291	0
0	43065	16810.480627226121	1
0	43066	16811.365611102506	0
0	43100	16832.996828914251	1
0	43106	16834.001675971472	0
0	43130	16838.614064197591	1
0	43131	16839.531455330576	0
0	43185	16865.097812823189	1
0	43186	16865.574422873702	0
0	43190	16865.75523953624	1
0	43191	16866.364548084052	0
0	43195	16866.903945930434	1
0	43196	16867.041556320112	0
0	43220	16893.838357236749	1
0	43221	16894.541091158057	0
0	43230	16895.705613090137	1
0	43231	16895.849867074579	0
0	43245	16899.074861831315	1
0	43246	16899.777603690014	0
0	43250	16899.825176402216	1
0	43251	16900.411985022262	0
0	43255	16900.428752517132	1
0	43256	16901.000501089417	0
0	43295	16910.519237233027	1
0	43296	16911.043663202928	0
0	43370	16950.668386736246	1
0	43376	16952.196256075217	0
0	43400	16967.233841558814	1
0	43401	16968.020604898747	0
0	43430	16984.078359752185	1
0	43431	16984.176339816874	0
0	43440	16984.690811639539	1
0	43441	16985.289908059514	0
0	43460	16994.137379017344	1
0	43461	16994.648759468815	0
0	43465	16995.346469943996	1
0	43466	16995.452982182971	0
0	43490	16998.763230301051	1
0	43491	16999.025949058405	0
0	43505	17000.517349452861	1
0	43506	17000.913059597405	0
0	43510	17001.2238098877	1
0	43512	17001.2651142995	2
0	43513	17001.348353807943	1
0	43516	17001.89282667999	0
0	43522	17002.259013935763	1
0	43531	17003.980287500926	0
0	43570	17012.749595824266	1
0	43571	17012.990716981747	0
0	43625	17051.442853353828	1
0	43626	17052.380654907828	0
0	43640	17060.833035905904	1
0	43641	17061.426207862774	0
0	43650	17062.57181981235	1
0	43651	17063.315902791739	0
0	43655	17063.379633329442	1
0	43662	17064.08301636782	2
0	43663	17064.768509578387	1
0	43671	17066.521416477961	0
0	43677	17067.177582750641	1
0	43682	17067.530381837004	2
0	43683	17067.91731717606	1
0	43686	17068.425548938158	0
0	43730	17087.435905924232	1
0	43741	17089.093702483576	0
0	43805	17127.828746178089	1
0	43806	17128.096017788427	0
0	43845	17153.617049761173	1
0	43846	17153.839518706712	0
0	43980	17218.055781631483	1
0	43981	17218.257518287292	0
0	43985	17218.753260286267	1
0	43986	17219.220867774878	0
0	44045	17253.290102820047	1
0	44046	17253.379596548659	0
0	44070	17259.543225684003	1
0	44071	17259.932723830927	0
0	44077	17260.265075116545	1
0	44086	17262.000174909512	0
0	44095	17262.972440101849	1
0	44096	17263.440804234957	0
0	44100	17263.983035695661	1
0	44101	17264.031811115117	0
0	44105	17264.249029186492	1
0	44106	17264.9462893611	0
0	44110	17265.363497341626	1
0	44111	17265.766726861912	0
0	44120	17269.966738179711	1
0	44121	17270.487377494609	0
0	44125	17270.914511179215	1
0	44127	17271.083302846821	2
0	44128	17271.386653191399	1
0	44131	17272.159039914457	0
0	44135	17272.275865467841	1
0	44136	17272.682219531981	0
0	44140	17272.816434002858	1
0	44141	17273.339218863181	0
0	44145	17273.961121356645	1
0	44146	17274.051301889156	0
0	44150	17274.066949850721	1
0	44152	17274.218654826017	2
0	44153	17274.797335734299	1
0	44156	17275.697644066053	0
0	44160	17276.317171428001	1
0	44161	17276.525996719987	0
0	44170	17278.319062125223	1
0	44171	17278.769196826698	0
0	44180	17279.532873630078	1
0	44181	17279.98040087887	0
0	44185	17280.118002229139	1
0	44187	17280.16489763945	2
0	44188	17280.488253733962	1
0	44192	17281.044982565319	2
0	44193	17281.097314586471	1
0	44196	17282.055263548185	0
0	44200	17282.306954484474	1
0	44201	17282.655270339575	0
0	44285	17323.835730285704	1
0	44286	17323.946256578373	0
0	44310	17335.081525400092	1
0	44311	17335.633563354828	0
0	44325	17340.43486461766	1
0	44326	17340.757354409952	0
0	44330	17341.134822470374	1
0	44331	17341.449460685306	0
0	44355	17345.766130652395	1
0	44356	17345.936801077942	0
0	44362	17346.081921313556	1
0	44367	17346.758645812777	2
0	44368	17347.491604301291	1
0	44376	17348.650115521396	0
0	44410	17355.952324528094	1
0	44411	17356.514937523638	0
0	44415	17356.830029434561	1
0	44417	17357.340487474214	2
0	44418	17357.370430371982	1
0	44422	17357.480220952846	2
0	44423	17357.803010712543	1
0	44427	17358.190030393905	2
0	44428	17358.738120962472	1
0	44432	17358.968587795482	2
0	44433	17359.173443602051	1
0	44437	17359.39577675564	2
0	44438	17359.653967024085	1
0	44442	17360.065459833042	2
0	44443	17360.50496896452	1
0	44446	17361.355038781163	0
0	44450	17361.462728650404	1
0	44452	17361.712340589306	2
0	44453	17362.053071034818	1
0	44456	17362.868238125953	0
0	44460	17363.331452882504	1
0	44461	17363.667569639606	0
0	44470	17364.800870458071	1
0	44471	17364.976183769887	0
0	44480	17367.908701142208	1
0	44481	17368.200179176727	0
0	44490	17370.924740168354	1
0	44491	17371.27489171548	0
0	44495	17371.62768379071	1
0	44496	17371.886769328203	0
0	44530	17389.8790711616	1
0	44531	17390.331577235744	0
0	44550	17394.381953042444	1
0	44551	17395.187830126542	0
0	44555	17395.614039954996	1
0	44556	17395.733615497477	0
0	44605	17410.68429800178	1
0	44606	17410.959133601831	0
0	44630	17418.561832272497	1
0	44637	17419.449507913798	2
0	44638	17420.32305923269	1
0	44646	17421.811901770457	0
0	44655	17423.167163800168	1
0	44656	17423.492033113557	0
0	44705	17446.944253802945	1
0	44706	17447.117300981281	0
0	44740	17462.857283776339	1
0	44741	17463.152615494032	0
0	44780	17479.7371970875	1
0	44781	17480.383110136577	0
0	44835	17521.332814750538	1
0	44836	17521.417415014841	0
0	44840	17521.481573058925	1
0	44841	17522.260960266833	0
0	44845	17523.011870987713	1
0	44846	17523.081296042912	0
0	44850	17523.421809317122	1
0	44852	17523.496823373027	2
0	44853	17523.933841949189	1
0	44856	17524.626626142953	0
0	44860	17525.121900401325	1
0	44861	17525.255099244882	0
0	44865	17525.998601653421	1
0	44866	17526.100435421663	0
0	44875	17526.948372897477	1
0	44877	17527.275712853227	2
0	44878	17527.777573799996	1
0	44881	17528.272175114138	0
0	44885	17528.479916568783	1
0	44886	17528.73046465791	0
0	44890	17529.085136194845	1
0	44896	17530.62668824238	0
0	44904	17531.267508464398	1
0	44916	17532.853222763401	0
0	45035	17607.726559966797	1
0	45037	17607.880338018106	2
0	45038	17607.980310138556	1
0	45052	17609.624932286854	2
0	45053	17610.243816211642	1
0	45066	17612.29920370873	0
0	45077	17613.199769193646	1
0	45079	17613.321080206801	2
0	45088	17614.877215314386	1
0	45092	17615.159009002359	2
0	45093	17615.302648939201	1
0	45096	17615.945847674142	0
0	45155	17660.791226666387	1
0	45156	17661.373103319966	0
0	45165	17662.309309858447	1
0	45166	17662.757164487495	0
0	45265	17699.257453269352	1
0	45266	17699.71765436938	0
0	45300	17720.722472728974	1
0	45312	17722.116458220816	2
0	45313	17722.609977627353	1
0	45321	17724.347763624176	0
0	45325	17725.195676082573	1
0	45326	17725.245047535741	0
0	45330	17725.604474413261	1
0	45331	17725.808208111388	0
0	45340	17727.130232400863	1
0	45346	17728.2820449622	0
0	45355	17729.478697524439	1
0	45356	17730.336875539109	0
0	45425	17767.268366499449	1
0	45426	17768.061808313014	0
0	45480	17792.728104077819	1
0	45481	17792.861992097349	0
0	45490	17794.409224478439	1
0	45491	17794.532381432951	0
0	45630	17855.694808488696	1
0	45646	17858.282160401643	0
0	45655	17859.387629351945	1
0	45656	17860.139508561124	0
0	45670	17861.958090523333	1
0	45671	17862.473891994869	0
0	45695	17866.848061600302	1
0	45696	17867.244748634767	0
0	45715	17869.999693765641	1
0	45717	17870.064141294899	2
0	45718	17870.152510369672	1
0	45721	17870.951710940395	0
0	45735	17874.32655807029	1
0	45736	17874.982369786399	0
0	45755	17881.053114876512	1
0	45766	17882.329429066108	0
0	45775	17883.263823401786	1
0	45776	17883.472340330594	0
0	45790	17886.785186853343	1
0	45791	17886.880510965867	0
0	45805	17889.25688159888	1
0	45806	17889.828687652641	0
0	45815	17890.926954745196	1
0	45816	17891.388562196842	0
0	45822	17891.987337460758	1
0	45826	17892.789026242192	0
0	45875	17919.53083080564	1
0	45881	17921.410835467419	0
0	45890	17922.766711710336	1
0	45891	17923.410238398893	0
0	45900	17924.595140327972	1
0	45901	17924.715626516289	0
0	45945	17944.289385958139	1
0	45946	17944.656700889276	0
0	45990	17967.060774604878	1
0	45991	17967.27009398791	0
0	45995	17967.502905436064	1
0	45996	17967.764739474403	0
0	46000	17968.509164538195	1
0	46001	17968.673426426836	0
0	46065	17994.038210804348	1
0	46066	17994.539215017364	0
0	46125	18035.934966995638	1
0	46126	18036.684078275067	0
0	46145	18040.821618520025	1
0	46147	18041.383282885103	2
0	46148	18041.44998829598	1
0	46152	18041.467708972487	2
0	46161	18042.732630032615	3
0	46170	18044.617531399387	2
0	46173	18045.244172804155	1
0	46176	18046.170368564645	0
0	46180	18046.317744540709	1
0	46181	18046.902873663515	0
0	46185	18047.00899982859	1
0	46186	18047.743816602653	0
0	46190	18048.101557696743	1
0	46191	18048.635358682558	0
0	46205	18050.476321959678	1
0	46206	18051.114476783955	0
0	46280	18108.239419907229	1
0	46281	18108.905530805479	0
0	46450	18213.494779158731	1
0	46451	18213.686186105458	0
0	46485	18221.465365148418	1
0	46486	18221.659543972009	0
0	46500	18228.601848975615	1
0	46501	18228.781759210897	0
0	46505	18228.896118203419	1
0	46506	18229.417157250398	0
0	46510	18229.873355330989	1
0	46511	18230.377379787981	0
0	46520	18231.938440997541	1
0	46521	18232.590288503574	0
0	46535	18236.066850058295	1
0	46536	18236.584534346219	0
0	46630	18288.863948536814	1
0	46631	18289.753755377853	0
0	46655	18297.062238191031	1
0	46656	18297.273250879144	0
0	46700	18316.299549875119	1
0	46702	18316.34525087757	2
0	46703	18316.439645545575	1
0	46706	18317.293825882458	0
0	46710	18317.525340702692	1
0	46711	18317.738999216555	0
0	46715	18317.767817383276	1
0	46717	18317.917809726968	2
0	46718	18318.310514706064	1
0	46722	18318.321364920072	2
0	46723	18318.955811676539	1
0	46727	18319.377633363441	2
0	46728	18319.6975546166	1
0	46732	18319.846791836515	2
0	46733	18320.679579910094	1
0	46736	18321.314513510296	0
0	46762	18338.719168832027	1
0	46766	18339.785712372342	0
0	46772	18340.369332941128	1
0	46776	18341.391401271399	0
0	46807	18346.031079687573	1
0	46841	18351.477234847441	0
0	46847	18351.512110237653	1
0	46854	18352.966881681897	2
0	46859	18353.057376950133	3
0	46905	18359.608232854836	2
0	46913	18360.503416486335	1
0	46916	18361.350434281741	0
0	46920	18361.978578707473	1
0	46921	18361.99105956342	0
0	46935	18364.01115174447	1
0	46936	18364.179280710333	0
0	46960	18379.035873640476	1
0	46961	18379.453036507731	0
0	46970	18380.561739022227	1
0	46971	18380.807731670917	0
0	46985	18383.467006287448	1
0	46986	18383.659008695999	0
0	47030	18390.792564518247	1
0	47031	18391.249268959662	0
0	47170	18457.202993763315	1
0	47171	18457.968430626431	0
0	47180	18469.120046430877	1
0	47181	18469.680654408057	0
0	47205	18474.706216919864	1
0	47206	18475.433957278294	0
0	47210	18475.915659254414	1
0	47211	18476.337394823724	0
0	47215	18476.808190598024	1
0	47216	18477.137950643975	0
0	47220	18477.359517859455	1
0	47221	18477.973032894669	0
0	47260	18495.353236377993	1
0	47261	18496.062837043074	0
0	47305	18507.36893294738	1
0	47307	18507.945259382625	2
0	47308	18508.166555279239	1
0	47311	18508.659707153474	0
0	47325	18510.466389066711	1
0	47326	18510.680552420257	0
0	47375	18545.677888648395	1
0	47376	18545.847118777943	0
0	47400	18556.237253241663	1
0	47401	18556.452455260301	0
0	47405	18556.601266877679	1
0	47406	18556.868309117736	0
0	47410	18556.905022196464	1
0	47411	18557.817108365589	0
0	47415	18557.866315120648	1
0	47416	18558.497331082749	0
0	47465	18581.407899136946	1
0	47466	18581.421264481247	0
0	47500	18603.148744884181	1
0	47501	18603.212418738098	0
0	47510	18604.472743827143	1
0	47511	18604.765365590758	0
0	47600	18665.687868503768	1
0	47601	18665.774263535692	0
0	47605	18665.911508769624	1
0	47607	18666.649908318777	2
0	47608	18666.73256657945	1
0	47612	18666.814645413614	2
0	47613	18667.237622869546	1
0	47616	18668.163685291838	0
0	47660	18686.201416731168	1
0	47662	18686.215606357196	2
0	47663	18686.915373822966	1
0	47679	18688.882590178819	2
0	47683	18689.936973776028	1
0	47686	18690.851788136607	0
0	47710	18697.583606017184	1
0	47711	18698.320979067339	0
0	47715	18698.346778939211	1
0	47716	18699.034976228169	0
0	47720	18699.425663374795	1
0	47722	18699.520087534946	2
0	47723	18699.61400230106	1
0	47727	18699.616533031504	2
0	47728	18700.178800394647	1
0	47731	18700.710269929404	0
0	47735	18700.756050713204	1
0	47736	18701.38903803614	0
0	47775	18721.685742502186	1
0	47776	18721.691140706856	0
0	47780	18722.331932434967	1
0	47781	18722.419672022965	0
0	47890	18784.529743013825	1
0	47891	18785.228162189733	0
0	47935	18802.703919220995	1
0	47936	18802.747710874284	0
0	48000	18833.971701187562	1
0	48001	18834.038569284276	0
0	48130	18910.869428126098	1
0	48131	18911.345568161507	0
0	48170	18927.372414473352	1
0	48171	18927.427578544523	0
0	48182	18928.502953824081	1
0	48184	18928.956918535538	2
0	48188	18930.045890223037	1
0	48191	18930.714378452196	0
0	48195	18931.056630868404	1
0	48196	18931.34442943217	0
0	48210	18933.321998738309	1
0	48211	18933.491810437723	0
0	48230	18944.474371265229	1
0	48231	18944.92059779771	0
0	48245	18947.237162865453	1
0	48246	18947.611311889889	0
0	48285	18969.098657028992	1
0	48286	18969.410255817562	0
0	48315	18985.733023163125	1
0	48316	18986.29733598914	0
0	48335	18995.759637211066	1
0	48336	18996.297986663056	0
0	48397	19017.303747333195	1
0	48411	19020.184614811663	0
0	48415	19020.296167754935	1
0	48416	19021.147681688715	0
0	48420	19021.590339346227	1
0	48421	19021.669558711129	0
0	48445	19030.14594772452	1
0	48446	19030.728698857923	0
0	48450	19031.03662127357	1
0	48451	19031.155801170322	0
0	48455	19031.227123405599	1
0	48456	19031.70911426619	0
0	48460	19032.008051885136	1
0	48461	19032.628927607931	0
0	48490	19039.551125188973	1
0	48491	19039.840098745945	0
0	48537	19065.377220571236	1
0	48541	19066.445389309686	0
0	48590	19091.55938963331	1
0	48591	19092.250214720735	0
0	48620	19103.091323158527	1
0	48621	19103.305274181892	0
0	48630	19104.763464351898	1
0	48631	19104.773664178825	0
0	48640	19105.957127365678	1
0	48641	19106.218226978029	0
0	48680	19122.208988192261	1
0	48681	19122.717433908281	0
0	48745	19153.889475836443	1
0	48746	19154.332089093252	0
0	48775	19170.667460422987	1
0	48777	19171.178065323927	2
0	48778	19171.373564777108	1
0	48781	19172.252394371484	0
0	48822	19182.821301617945	1
0	48826	19183.623430153183	0
0	48840	19186.437640807259	1
0	48841	19187.194892389723	0
0	48910	19218.661762151238	1
0	48911	19219.039869699226	0
0	48925	19222.355007181123	1
0	48926	19222.410365510546	0
0	48930	19222.724056285597	1
0	48931	19223.329926611623	0
0	48950	19227.20287600589	1
0	48951	19227.356770584545	0
0	48955	19227.862586863183	1
0	48957	19227.894602862121	2
0	48964	19228.52142918132	3
0	48965	19229.263368056201	2
0	48974	19230.461199681104	3
0	48975	19230.748976577445	2
0	48984	19232.266207663209	3
0	48985	19232.297651487681	2
0	48988	19233.221555868442	1
0	48991	19233.893159894644	0
0	49000	19235.923782143794	1
0	49001	19236.664514585073	0
0	49005	19236.724682413949	1
0	49006	19237.204786344991	0
0	49010	19237.399770740994	1
0	49011	19238.061997975224	0
0	49020	19239.828468834323	1
0	49021	19239.949361319906	0
0	49065	19252.549995102028	1
0	49066	19252.791252576406	0
0	49087	19260.220348191961	1
0	49091	19261.124293505741	0
0	49097	19261.776283720635	1
0	49101	19262.663297121987	0
0	49110	19264.013271853185	1
0	49111	19264.367645489769	0
0	49115	19264.652232880582	1
0	49121	19266.045865509584	0
0	49125	19266.117529682748	1
0	49131	19267.324022476486	0
0	49160	19271.290441127721	1
0	49161	19271.29470165671	0
0	49172	19272.204721061559	1
0	49176	19273.385309969179	0
0	49270	19329.030740216474	1
0	49271	19329.371863014953	0
0	49315	19365.847772356374	1
0	49316	19366.609999266333	0
0	49320	19366.985410135816	1
0	49326	19368.046867650534	0
0	49340	19372.603444072668	1
0	49341	19373.450201071275	0
0	49365	19381.783548869109	1
0	49366	19382.27942816679	0
0	49395	19401.339296408602	1
0	49396	19401.606370088476	0
0	49420	19407.162442165719	1
0	49421	19407.670382697666	0
0	49445	19417.196995322558	1
0	49446	19417.681925777039	0
0	49475	19432.719658306346	1
0	49477	19432.795050921596	2
0	49478	19433.612963233579	1
0	49481	19434.027235168841	0
0	49485	19434.482591776404	1
0	49486	19434.801621646637	0
0	49500	19437.360945123496	1
0	49501	19438.22362993417	0
0	49505	19438.281337109129	1
0	49506	19438.879835257741	0
0	49510	19438.929640181931	1
0	49511	19439.478107728871	0
0	49525	19442.121382649526	1
0	49526	19442.735973845939	0
0	49535	19444.272146688165	1
0	49537	19444.444886531677	2
0	49538	19444.743265298916	1
0	49542	19444.811758977532	2
0	49543	19445.364589780871	1
0	49547	19445.887395283411	2
0	49548	19446.225771449389	1
0	49557	19447.53481302048	2
0	49558	19447.888577723991	1
0	49561	19448.598167319991	0
0	49570	19449.600687853701	1
0	49572	19449.741882601576	2
0	49573	19449.804918326582	1
0	49577	19449.941348675221	2
0	49578	19450.534996576565	1
0	49581	19451.093546639015	0
0	49655	19477.352171659625	1
0	49656	19477.775651722498	0
0	49715	19513.26362910277	1
0	49716	19513.860883256579	0
0	49735	19525.068075167998	1
0	49736	19525.525760599429	0
0	49795	19565.288551611678	1
0	49796	19565.568977583662	0
0	49825	19574.55547288055	1
0	49826	19574.967501331759	0
0	49875	19587.456866299649	1
0	49876	19587.732382111454	0
0	49920	19619.764054993557	1
0	49922	19620.033580092027	2
0	49924	19620.050626716483	3
0	49925	19620.148197277664	2
0	49928	19620.89513228315	1
0	49932	19621.315359476307	2
0	49933	19621.593487557192	1
0	49936	19622.039178093412	0
0	49950	19625.148359029976	1
0	49952	19625.181373836556	2
0	49953	19625.475759798875	1
0	49962	19626.109667492379	2
0	49968	19627.955988541552	1
0	49971	19628.386435678396	0
0	49980	19629.264979523038	1
0	49981	19629.830684207274	0
0	49985	19630.104076518687	1
0	49987	19630.150189140257	2
0	49988	19630.353807184367	1
0	49997	19631.165883880922	2
0	49998	19631.349151884939	1
0	50001	19631.991144426994	0
0	50005	19632.119386440747	1
0	50014	19633.126456956068	2
0	50023	19635.216871224285	1
0	50026	19635.637490901525	0
0	50030	19635.765782737871	1
0	50031	19636.170846429036	0
0	50035	19636.214865828559	1
0	50036	19636.826580011972	0
0	50040	19636.966650820014	1
0	50041	19637.651736447855	0
0	50045	19637.913906900805	1
0	50047	19637.979854199353	2
0	50048	19638.400632785854	1
0	50052	19638.450062066879	2
0	50053	19639.021264556457	1
0	50056	19639.805638657218	0
0	50060	19639.934618183226	1
0	50062	19640.102337301224	2
0	50063	19640.772772523934	1
0	50067	19640.932403627584	2
0	50068	19641.412098006146	1
0	50071	19642.146775923423	0
0	50075	19642.312166003649	1
0	50077	19642.452770258834	2
0	50078	19642.847646881254	1
0	50082	19643.186709714239	2
0	50083	19643.678981007902	1
0	50091	19645.49571841926	0
0	50105	19647.908801983287	1
0	50106	19648.486307378339	0
0	50115	19656.77288619112	1
0	50116	19657.297087382672	0
0	50125	19659.592112572684	1
0	50126	19660.254515467963	0
0	50140	19663.173626933724	1
0	50141	19663.499879712621	0
0	50185	19681.3917505603	1
0	50186	19681.912137749838	0
0	50200	19684.149610108667	1
0	50201	19684.895750328265	0
0	50230	19698.038048338886	1
0	50231	19698.423023710077	0
0	50235	19698.869713371449	1
0	50236	19699.095793604947	0
0	50325	19743.370830065678	1
0	50326	19743.794495735806	0
0	50365	19768.063307392838	1
0	50366	19768.592036560872	0
0	50442	19794.021667237479	1
0	50446	19794.99578733938	0
0	50470	19801.800205593738	1
0	50471	19802.464685677428	0
0	50475	19802.879210412158	1
0	50476	19803.301318079669	0
0	50495	19809.14910280191	1
0	50497	19809.538904154059	2
0	50498	19809.796936784608	1
0	50501	19810.301624178065	0
0	50515	19812.17963485442	1
0	50517	19812.454865664098	2
0	50523	19813.367072890446	1
0	50526	19813.789188536236	0
0	50535	19820.114761756281	1
0	50536	19820.693289606667	0
0	50550	19824.55333352395	1
0	50551	19824.860251120845	0
0	50560	19826.273893927322	1
0	50561	19826.372731561115	0
0	50650	19886.330276220152	1
0	50651	19886.558112380938	0
0	50695	19906.116948361382	1
0	50696	19906.480090976594	0
0	50770	19929.967580345659	1
0	50771	19929.990526412389	0
0	50780	19934.583129600302	1
0	50781	19935.479901902132	0
0	50790	19936.910110180559	1
0	50791	19937.005937405057	0
0	50802	19938.475732352118	1
0	50806	19939.091440868877	0
0	50880	19966.73347659412	1
0	50881	19966.938419237895	0
0	50910	19975.154221019058	1
0	50911	19975.528306313426	0
0	50955	20000.200756686808	1
0	50957	20000.307536987319	2
0	50958	20000.428625642163	1
0	50961	20001.242137965261	0
0	50985	20008.356213759667	1
0	50986	20008.905007419051	0
0	51000	20010.451173388726	1
0	51006	20011.47744533552	0
0	51020	20014.027713025355	1
0	51021	20014.72936884475	0
0	51085	20051.081268370442	1
0	51086	20051.922258290834	0
0	51100	20055.918614770173	1
0	51101	20056.124592885791	0
0	51110	20056.908737035555	1
0	51111	20057.547891959174	0
0	51115	20057.632428278796	1
0	51116	20058.340116463414	0
0	51125	20059.641771482909	1
0	51126	20059.938754555236	0
0	51135	20061.136463212711	1
0	51136	20061.993863529335	0
0	51250	20108.613403163003	1
0	51251	20109.103576061216	0
0	51255	20109.108955160153	1
0	51256	20109.904031923779	0
0	51260	20110.226761280006	1
0	51261	20110.375570369179	0
0	51270	20112.76520855423	1
0	51271	20112.963883484356	0
0	51350	20144.559758982863	1
0	51351	20145.360178166496	0
0	51430	20173.987159507393	1
0	51431	20174.348066898806	0
0	51455	20189.071221858875	1
0	51456	20189.863634200112	0
0	51560	20263.226392230221	1
0	51561	20263.571038748483	0
0	51600	20289.82290166547	1
0	51601	20290.198589574207	0
0	51610	20293.005392963084	1
0	51611	20293.146282862938	0
0	51635	20302.72419759338	1
0	51636	20302.816949766612	0
0	51700	20339.097682155291	1
0	51701	20339.612099377273	0
0	51750	20400.956625046214	1
0	51751	20401.509303560343	0
0	51755	20401.583992194678	1
0	51756	20402.233841285717	0
0	51760	20402.622258651473	1
0	51761	20402.945609442426	0
0	51860	20460.714056168562	1
0	51861	20461.564116342448	0
0	51915	20483.209795947853	1
0	51916	20483.316768804098	0
0	51935	20494.250484015886	1
0	51936	20494.532839097316	0
0	51985	20518.236282519625	1
0	51986	20518.691251479851	0
0	52000	20521.525195896849	1
0	52001	20521.992220379293	0
0	52005	20522.047470475148	1
0	52011	20523.509079125824	0
0	52015	20524.317535792221	1
0	52016	20524.397856591011	0
0	52020	20524.643556610118	1
0	52021	20525.26335833126	0
0	52025	20525.298447596933	1
0	52026	20526.228108468114	0
0	52035	20528.172690426143	1
0	52037	20528.323174353128	2
0	52038	20528.427180575808	1
0	52051	20530.339098547908	0
0	52060	20531.40751827207	1
0	52061	20532.01911627934	0
0	52075	20533.919382377921	1
0	52076	20534.385428585356	0
0	52240	20628.179519204764	1
0	52241	20628.445952803611	0
0	52245	20628.937614288517	1
0	52246	20629.399231276258	0
0	52285	20645.659277843865	1
0	52286	20646.016095142095	0
0	52300	20647.791782026394	1
0	52302	20648.12697101836	2
0	52303	20648.616404303945	1
0	52311	20650.057569191781	0
0	52317	20650.221627188473	1
0	52321	20651.176974459774	0
0	52325	20651.551560171289	1
0	52326	20652.131024053124	0
0	52340	20655.20190383121	1
0	52341	20655.241202985241	0
0	52345	20655.584105822214	1
0	52346	20655.730933291304	0
0	52350	20655.896017112966	1
0	52351	20656.246812305532	0
0	52425	20694.831557842708	1
0	52426	20695.372168548877	0
0	52510	20722.915927586802	1
0	52511	20723.252473500807	0
0	52565	20745.902643818315	1
0	52566	20746.380629439866	0
0	52580	20750.478957825047	1
0	52581	20751.087907045348	0
0	52590	20753.171868778785	1
0	52591	20753.304522961045	0
0	52670	20798.632425221488	1
0	52671	20799.268802368487	0
0	52685	20800.883747373028	1
0	52686	20801.460989373011	0
0	52692	20801.725655010532	1
0	52699	20802.510849229538	2
0	52708	20804.642260693266	1
0	52716	20806.22969036812	0
0	52720	20806.573342215081	1
0	52721	20807.064516563407	0
0	52770	20836.150017607142	1
0	52771	20836.370865556173	0
0	52850	20869.018356527659	1
0	52851	20869.931909892903	0
0	52860	20875.957306886928	1
0	52861	20876.131120068093	0
0	52865	20876.273209861074	1
0	52866	20876.707123774921	0
0	52870	20876.898860948034	1
0	52871	20877.207803875746	0
0	52875	20877.289166030418	1
0	52876	20877.729624802412	0
0	52925	20904.916305966736	1
0	52926	20905.028365772053	0
0	52930	20905.100282809755	1
0	52931	20905.548864588582	0
0	52965	20920.236940426558	1
0	52966	20920.315556431574	0
0	53000	20936.804706730898	1
0	53001	20936.853413306277	0
0	53005	20937.042741830669	1
0	53006	20937.82813041169	0
0	53090	20985.509863586845	1
0	53091	20986.309976387003	0
0	53095	20986.363869970136	1
0	53096	20987.15401824245	0
0	53125	20995.094492369322	1
0	53126	20995.120019030112	0
0	53150	21003.762629435543	1
0	53151	21004.098867089523	0
0	53195	21038.121013540962	1
0	53196	21038.643193716753	0
0	53220	21047.367624385542	1
0	53221	21048.24858397106	0
0	53300	21081.848493659902	1
0	53301	21082.255000588331	0
0	53310	21084.24778654193	1
0	53311	21084.255891302462	0
0	53315	21084.394974473649	1
0	53316	21084.732341691899	0
0	53345	21097.889428523052	1
0	53346	21098.355731594652	0
0	53370	21135.38336737654	1
0	53371	21135.835845730024	0
0	53500	21217.357337024163	1
0	53501	21217.584766783448	0
0	53510	21219.412734612745	1
0	53512	21219.756612655025	2
0	53513	21219.965480584183	1
0	53516	21220.634571700587	0
0	53555	21233.11888446666	1
0	53556	21233.369224663513	0
0	53560	21233.654729302365	1
0	53561	21233.863994834867	0
0	53567	21234.143917954508	1
0	53572	21234.495074069483	2
0	53573	21235.417878579783	1
0	53577	21235.901602242789	2
0	53578	21236.267351253719	1
0	53582	21236.556122698354	2
0	53583	21237.021935543527	1
0	53586	21237.440894322765	0
0	53700	21299.050288367666	1
0	53701	21299.312973937903	0
0	53715	21305.004304911878	1
0	53716	21305.181288724246	0
0	53755	21317.436806734446	1
0	53756	21317.90241958372	0
0	53765	21319.767843414451	1
0	53766	21319.843616111937	0
0	53770	21319.854831562587	1
0	53776	21321.189880215178	0
0	53785	21323.530278922587	1
0	53786	21323.633695514042	0
0	53825	21360.642541925553	1
0	53826	21360.792770527675	0
0	53830	21360.912951151371	1
0	53831	21361.250974204856	0
0	53850	21372.683996496555	1
0	53851	21373.018161661742	0
0	53855	21373.184882052961	1
0	53856	21373.508288291428	0
0	53860	21374.357781353373	1
0	53861	21374.38268815056	0
0	53865	21374.384305305451	1
0	53866	21375.057065537437	0
0	53875	21377.442386756001	1
0	53876	21378.030854484625	0
0	53885	21381.282289938063	1
0	53886	21381.640971556996	0
0	53920	21406.254267154405	1
0	53921	21406.741825031463	0
0	53945	21443.220467798512	1
0	53946	21443.499253129462	0
0	53990	21468.995949976179	1
0	53991	21469.174333772603	0
0	54030	21481.158953779501	1
0	54031	21481.251093142561	0
0	54060	21493.345076634015	1
0	54062	21493.438372492094	2
0	54063	21493.540934877755	1
0	54066	21494.44439416207	0
0	54070	21495.127567496679	1
0	54071	21495.149444602389	0
0	54085	21497.707577714476	1
0	54086	21498.172942439374	0
0	54130	21513.478438609775	1
0	54131	21514.015051077467	0
0	54140	21516.148588610091	1
0	54141	21516.196868577067	0
0	54145	21516.573224778375	1
0	54146	21516.727655777687	0
0	54150	21517.089050742678	1
0	54151	21517.194887717327	0
0	54155	21517.496324253971	1
0	54157	21517.806074643419	2
0	54158	21518.17215434497	1
0	54161	21518.847763976527	0
0	54215	21542.749640566344	1
0	54216	21542.982782967152	0
0	54220	21543.444475431906	1
0	54221	21543.543765884541	0
0	54245	21551.161954814922	1
0	54247	21551.666384098274	2
0	54248	21551.823736905351	1
0	54257	21552.76644273479	2
0	54258	21553.155951957355	1
0	54261	21553.648756415254	0
0	54270	21554.625243711166	1
0	54271	21555.34746100078	0
0	54285	21556.706038621196	1
0	54286	21557.414440273195	0
0	54292	21558.023353452883	1
0	54297	21558.985100601223	2
0	54298	21559.062927094967	1
0	54306	21560.374062030975	0
0	54400	21597.821272381651	1
0	54401	21597.846628066802	0
0	54425	21606.286662361881	1
0	54426	21606.971608032717	0
0	54430	21607.372320880075	1
0	54431	21607.402830339421	0
0	54460	21615.379316057517	1
0	54461	21615.575171370181	0
0	54470	21617.794558338039	1
0	54472	21617.826057845673	2
0	54473	21617.964816899362	1
0	54482	21619.357314553706	2
0	54483	21619.466787356043	1
0	54489	21620.077631523507	2
0	54494	21620.699167617635	3
0	54495	21620.771094688771	2
0	54498	21621.728282386761	1
0	54501	21622.254618854353	0
0	54505	21622.571729923384	1
0	54506	21623.050126933398	0
0	54515	21625.797729388784	1
0	54516	21626.152629294438	0
0	54520	21626.208687776208	1
0	54521	21626.605451226519	0
0	54540	21636.972674762082	1
0	54541	21637.119859251953	0
0	54565	21650.284772007025	1
0	54566	21650.554270404333	0
0	54645	21687.656213366278	1
0	54646	21688.301966896081	0
0	54660	21692.457229833096	1
0	54662	21692.464121550587	2
0	54663	21692.80792153269	1
0	54667	21692.899399978843	2
0	54668	21693.744548810422	1
0	54671	21694.677764534819	0
0	54680	21695.8316447008	1
0	54681	21696.46777764589	0
0	54690	21697.453907720712	1
0	54696	21698.984378741807	0
0	54805	21756.277353577216	1
0	54806	21756.697787680024	0
0	54815	21757.490723435944	1
0	54816	21757.949906882889	0
0	54855	21787.365378959679	1
0	54856	21787.731400624579	0
0	54860	21788.302792758238	1
0	54861	21788.540494048977	0
0	54880	21793.922926837581	1
0	54881	21794.653356485517	0
0	54885	21794.76952759648	1
0	54886	21795.269074718963	0
0	54935	21808.543277867257	1
0	54936	21808.682864039224	0
0	54940	21808.703045005172	1
0	54941	21809.606444758103	0
0	54977	21820.207844603958	1
0	54982	21820.93360352672	2
0	54984	21821.017638827731	3
0	54985	21821.519398377129	2
0	54991	21822.101090447221	3
0	54996	21822.874807006676	4
0	54997	21822.982859278416	3
0	55001	21823.029937896113	4
0	55002	21823.7859671486	3
0	55005	21824.682318870855	2
0	55008	21825.558823232252	1
0	55011	21826.139307233265	0
0	55015	21826.428879891951	1
0	55016	21826.942690866666	0
0	55070	21852.974780010717	1
0	55071	21853.338937220051	0
0	55075	21854.085565767398	1
0	55076	21854.170822643888	0
0	55080	21854.841981959734	1
0	55081	21854.868407501866	0
0	55090	21856.65035244669	1
0	55091	21856.914972748312	0
0	55100	21858.969146550322	1
0	55101	21859.001123667561	0
0	55145	21889.000601194136	1
0	55146	21889.393638022525	0
0	55150	21889.454532666717	1
0	55156	21890.862616071573	0
0	55162	21891.285461814251	1
0	55167	21892.274458781808	2
0	55168	21892.589632584995	1
0	55171	21893.432924322553	0
0	55175	21893.95373667282	1
0	55176	21894.059452017864	0
0	55180	21894.258570715853	1
0	55181	21894.681931577764	0
0	55185	21895.114816782075	1
0	55186	21895.350692773239	0
0	55240	21909.066928439539	1
0	55241	21909.311255731949	0
0	55245	21909.751523929417	1
0	55246	21910.173952270628	0
0	55250	21910.526232693575	1
0	55251	21910.742366768329	0
0	55255	21911.215323588142	1
0	55256	21911.448567712868	0
0	55260	21911.923241931569	1
0	55261	21912.234593481759	0
0	55265	21912.457797908234	1
0	55266	21913.132870702215	0
0	55270	21913.182599000862	1
0	55271	21913.588135174245	0
0	55275	21914.301230777725	1
0	55276	21914.303265410524	0
0	55285	21916.390099138332	1
0	55286	21916.430476712902	0
0	55290	21916.659443521269	1
0	55292	21916.867070645446	2
0	55293	21916.986853801739	1
0	55296	21917.424971579295	0
0	55335	21930.52285475944	1
0	55336	21931.362741486338	0
0	55345	21932.697305036391	1
0	55346	21932.844522721629	0
0	55355	21933.456839100962	1
0	55356	21933.844005037221	0
0	55365	21934.878235022271	1
0	55366	21935.168184585526	0
0	55395	21958.142910196959	1
0	55396	21958.25044618767	0
0	55435	21981.175861123536	1
0	55436	21981.739371463693	0
0	55450	21983.476473840484	1
0	55451	21983.840340586168	0
0	55480	21993.033455083295	1
0	55481	21993.475164218549	0
0	55490	21995.511623546578	1
0	55491	21995.56096718729	0
0	55595	22062.997347479074	1
0	55596	22063.383657531224	0
0	55615	22066.215057496064	1
0	55631	22069.08300975003	0
0	55645	22071.099206353161	1
0	55646	22071.181037200149	0
0	55665	22074.154003815413	1
0	55666	22074.888000964526	0
0	55727	22093.417670309039	1
0	55731	22094.926859405511	0
0	55750	22103.801423065177	1
0	55751	22104.119109637707	0
0	55785	22122.575256562304	1
0	55786	22122.787407008514	0
0	55852	22160.687921982631	1
0	55866	22163.409568700296	0
0	56005	22259.655169005449	1
0	56006	22260.325450578104	0
0	56030	22274.417662832072	1
0	56031	22274.563115135967	0
0	56060	22282.607051840211	1
0	56061	22283.272644216877	0
0	56110	22305.598850709429	1
0	56111	22306.127878452786	0
0	56115	22306.270201847091	1
0	56116	22306.771358011798	0
0	56130	22310.307724381671	1
0	56131	22310.425060231918	0
0	56140	22311.846405877538	1
0	56141	22312.203319017104	0
0	56180	22330.131958301419	1
0	56181	22330.399463722952	0
0	56215	22347.356305417757	1
0	56216	22348.071683177667	0
0	56300	22397.233034453416	1
0	56301	22397.619870172952	0
0	56305	22397.82409285846	1
0	56306	22398.14887454626	0
0	56315	22399.693398619951	1
0	56316	22399.718225695776	0
0	56320	22399.892084029445	1
0	56321	22400.580154400157	0
0	56325	22400.786407636215	1
0	56326	22401.082441692777	0
0	56335	22402.494542869134	1
0	56336	22402.765546809115	0
0	56400	22430.856643037948	1
0	56401	22431.171783010475	0
0	56410	22432.955827200685	1
0	56411	22433.468209212464	0
0	56415	22433.926534963231	1
0	56416	22433.971746280514	0
0	56425	22435.21576699025	1
0	56431	22436.414048456291	0
0	56545	22504.03078725272	1
0	56546	22504.234018681185	0
0	56555	22506.857430427688	1
0	56556	22507.318352193176	0
0	56787	22644.860725604088	1
0	56791	22646.287722315662	0
0	56795	22646.65009872753	1
0	56801	22647.525210045999	0
0	56805	22647.791871307401	1
0	56806	22648.084737801295	0
0	56815	22648.950329758849	1
0	56816	22649.331117856525	0
0	56820	22649.377109308981	1
0	56827	22650.472626218491	2
0	56828	22650.906020116735	1
0	56831	22651.884993510529	0
0	56895	22675.368613670664	1
0	56896	22675.967520291264	0
0	57000	22726.80298396661	1
0	57001	22727.065777721176	0
0	57070	22758.306006747678	1
0	57071	22758.479661076036	0
0	57155	22789.448908566905	1
0	57156	22789.746719186726	0
0	57160	22790.004375374621	1
0	57162	22790.163460836785	2
0	57163	22790.187273555874	1
0	57171	22791.345360704904	0
0	57250	22817.302448188849	1
0	57256	22818.284932953786	0
0	57285	22825.484436256226	1
0	57286	22825.922573155722	0
0	57315	22835.61404373489	1
0	57316	22836.050949250833	0
0	57345	22844.90259507659	1
0	57346	22845.228981761513	0
0	57375	22858.309960127213	1
0	57376	22858.39951532946	0
0	57435	22906.044907169281	1
0	57436	22906.54330665942	0
0	57440	22906.892710684427	1
0	57441	22907.365170552001	0
0	57445	22908.002533312099	1
0	57446	22908.29873755274	0
0	57450	22908.353773540012	1
0	57451	22909.080792768278	0
0	57455	22909.203015331603	1
0	57456	22910.03173872966	0
0	57460	22910.071141919165	1
0	57462	22910.252059810345	2
0	57463	22911.007078999399	1
0	57467	22911.812542877674	2
0	57468	22911.856457398298	1
0	57472	22912.510223023997	2
0	57473	22912.742779698294	1
0	57476	22913.310495629745	0
0	57512	22925.115934941961	1
0	57516	22925.823115346193	0
0	57525	22926.753190013771	1
0	57526	22927.165629091332	0
0	57595	22949.119062120577	1
0	57596	22949.536583290851	0
0	57605	22951.978862346087	1
0	57606	22952.582336102829	0
0	57610	22952.628163139798	1
0	57612	22953.320156368089	2
0	57613	22953.487137821021	1
0	57616	22954.286128686026	0
0	57625	22955.989301482954	1
0	57626	22956.40980242018	0
0	57645	22959.374361201187	1
0	57652	22960.276643587811	2
0	57654	22960.323429383916	3
0	57656	22960.571705927662	4
0	57658	22960.626174136556	5
0	57659	22960.727580245415	4
0	57667	22961.591859942971	3
0	57681	22963.28255969831	4
0	57682	22963.997941836685	3
0	57685	22964.752111358631	2
0	57693	22966.009086387434	1
0	57696	22966.798570648597	0
0	57700	22967.148525827615	1
0	57701	22967.451577579013	0
0	57710	22968.942205822398	1
0	57711	22969.67587153095	0
0	57720	22971.788183115568	1
0	57721	22972.176158984325	0
0	57745	22985.585734030667	1
0	57746	22986.031900022657	0
0	57760	22996.835961292998	1
0	57761	22997.194172174357	0
0	57765	22997.334279142949	1
0	57766	22997.961813902589	0
0	57780	23000.768778973799	1
0	57782	23001.046930160713	2
0	57783	23001.217173408241	1
0	57787	23001.292601682003	2
0	57788	23002.215827307281	1
0	57791	23002.718115914044	0
0	57795	23002.71901784903	1
0	57796	23003.697179151922	0
0	57815	23008.375617917716	1
0	57816	23009.065027315194	0
0	57820	23009.745446334833	1
0	57821	23009.878559962731	0
0	57850	23019.334735511275	1
0	57851	23019.903135514099	0
0	57860	23023.256472609392	1
0	57861	23024.182792713441	0
0	57875	23026.490580337587	1
0	57876	23026.512823224696	0
0	57890	23029.30949686345	1
0	57892	23029.486005807447	2
0	57893	23029.741911277774	1
0	57897	23030.534640179592	2
0	57898	23030.656100181298	1
0	57901	23031.110403764382	0
0	57905	23031.346634026925	1
0	57907	23031.534441228019	2
0	57908	23031.644408150803	1
0	57912	23031.877378791277	2
0	57913	23032.279245693138	1
0	57917	23032.76169440951	2
0	57918	23033.17508660112	1
0	57922	23033.321283362049	2
0	57924	23033.804970684133	3
0	57925	23034.028464896739	2
0	57929	23034.371867833046	3
0	57930	23034.923087215698	2
0	57934	23035.188887381135	3
0	57935	23035.774592886022	2
0	57938	23036.179120389879	1
0	57942	23036.478267018779	2
0	57943	23037.038658306137	1
0	57951	23038.163773471857	0
0	57990	23055.466044633369	1
0	57991	23055.913487938663	0
0	57995	23056.509228499094	1
0	57996	23056.692318672372	0
0	58020	23064.133738430008	1
0	58021	23064.36717348344	0
0	58025	23065.159964882348	1
0	58026	23065.326970348445	0
0	58030	23065.380894078299	1
0	58031	23065.747485016643	0
0	58075	23081.179024924513	1
0	58076	23081.7466384621	0
0	58195	23150.764142657079	1
0	58196	23151.191538970803	0
0	58205	23152.923370779464	1
0	58207	23153.146817257135	2
0	58208	23153.148451230876	1
0	58216	23154.628358854321	0
0	58305	23204.213255779566	1
0	58307	23204.28033921987	2
0	58308	23204.773568697238	1
[...]
7	74485	29811.366547418807	1
7	74486	29811.651620442019	0
7	74540	29852.425969354878	1
7	74543	29852.985287146203	0
7	74552	29853.700119366688	1
7	74553	29854.376516066937	0
7	74585	29865.160567568559	1
7	74586	29865.559540102315	0
7	74590	29865.642897856755	1
7	74591	29866.519227743857	0
7	74595	29866.528256224814	1
7	74598	29866.933144617929	0
7	74667	29877.953518666946	1
7	74668	29878.121605286555	0
7	74725	29902.226083460051	1
7	74726	29902.879430104542	0
7	74800	29935.875713748478	1
7	74801	29936.141047732948	0
7	74812	29936.966312779923	1
7	74813	29937.623086787338	0
7	74825	29943.765730528106	1
7	74826	29944.564914057817	0
7	74837	29946.200354268434	1
7	74838	29946.287313096649	0
7	74845	29947.237196517941	1
7	74846	29947.786581690707	0
7	74870	29965.58373278184	1
7	74871	29965.780820997633	0
7	74875	29966.01417645629	1
7	74876	29966.362118093125	0
7	74880	29966.412182155049	1
7	74881	29967.197752487441	0
7	74915	29981.295959657531	1
7	74916	29981.525668248206	0
7	74920	29982.151564669344	1
7	74921	29982.505121208399	0
8	26030	10077.287879880494	1
8	26031	10078.659503010446	0
8	26035	10079.409778248071	1
8	26036	10079.514055984495	0
8	26059	10082.495532103469	1
8	26061	10082.72529592195	0
8	26125	10095.663442184219	1
8	26126	10096.326848868537	0
8	26147	10099.61428901183	1
8	26149	10099.752236621155	0
8	26582	10292.740362450964	1
8	26586	10294.266999949161	0
8	27260	10485.106159681435	1
8	27261	10485.349648168273	0
8	29467	11433.768398515827	1
8	29470	11434.386006805853	2
8	29471	11434.399443583562	1
8	29475	11434.882186799682	2
8	29479	11435.444251152104	1
8	29481	11435.72371942385	0
8	29507	11439.477625909959	1
8	29510	11440.008459623576	2
8	29511	11440.03572620545	1
8	29516	11440.973636306696	0
8	29524	11441.616976597816	1
8	29526	11441.893158037362	0
8	29529	11442.391625418006	1
8	29531	11442.536732038081	0
8	29975	11596.848924141128	1
8	29976	11597.42035218608	0
8	30072	11628.968885909768	1
8	30075	11629.784380992318	2
8	30076	11630.000248451972	1
8	30079	11630.075893289078	0
8	30084	11630.514885984383	1
8	30086	11631.00483325194	0
8	30127	11637.464809210992	1
8	30129	11637.675342646388	0
8	31280	12112.43087902549	1
8	31281	12112.613868968068	0
8	31285	12113.180987134036	1
8	31286	12114.96700169899	0
8	31290	12115.395984925967	1
8	31295	12116.529221701358	2
8	31296	12116.620920306161	1
8	31299	12116.803574178456	0
8	31302	12117.355142727351	1
8	31304	12117.370120980702	0
8	31307	12117.884814865651	1
8	31309	12118.380620848802	0
8	31315	12119.62568517625	1
8	31316	12119.98743708788	0
8	31870	12333.392433883335	1
8	31871	12333.883835391693	0
8	31875	12334.85660308785	1
8	31876	12336.214905440584	0
8	32220	12504.027970398741	1
8	32221	12504.226493473059	0
8	32325	12541.039352381995	1
8	32326	12541.208981859915	0
8	32330	12541.639532819901	1
8	32331	12542.330877732871	0
8	32825	12734.092117753737	1
8	32826	12734.138659900358	0
8	33415	12987.572629279163	1
8	33416	12989.3318906609	0
8	33515	13013.951982202194	1
8	33516	13014.350874668521	0
8	33525	13016.110645545901	1
8	33526	13016.497220963874	0
8	33915	13168.784771634419	1
8	33916	13169.803883599521	0
8	33920	13170.497429052119	1
8	33921	13171.380421794236	0
8	33955	13180.071517866642	1
8	33959	13180.499077128253	0
8	35812	13845.027756975814	1
8	35815	13845.970670934757	2
8	35819	13846.739967917314	1
8	35823	13846.881191423648	0
8	35826	13847.056035804039	1
8	35828	13847.496572514419	0
8	36805	14279.519520189654	1
8	36806	14280.176416990719	0
8	36877	14312.98793725861	1
8	36879	14313.914735628603	0
8	36945	14329.077407317335	1
8	36946	14329.184649305442	0
8	36950	14330.098733974132	1
8	36951	14330.233338713302	0
8	37462	14578.326492944922	1
8	37464	14578.384296393983	0
8	37475	14580.022184291671	1
8	37476	14580.240902925669	0
8	37519	14609.305460762932	1
8	37531	14610.368736565135	0
8	37595	14634.368461029721	1
8	37596	14635.223308387996	0
8	37945	14802.575153712933	1
8	37946	14803.25359244295	0
8	37955	14804.80143781914	1
8	37956	14805.38064417919	0
8	38942	15218.589072457117	1
8	38944	15218.795231353865	0
8	38960	15221.11891796428	1
8	38961	15221.285269570227	0
8	38970	15222.620955149519	1
8	38971	15223.738170555353	0
8	39257	15333.101955908617	1
8	39269	15335.437133719653	0
8	40057	15677.53336023084	1
8	40059	15677.537660796185	0
8	40687	15924.902157939823	1
8	40689	15925.124086975963	0
8	41035	16056.280888755548	1
8	41036	16056.495520272832	0
8	41145	16080.953011809133	1
8	41146	16081.276893735393	0
8	41330	16140.625059219802	1
8	41331	16142.296036604487	0
8	41410	16158.229928888173	1
8	41411	16158.748356140926	0
8	41415	16159.655081732347	1
8	41416	16160.876162345339	0
8	41665	16302.33577769969	1
8	41669	16306.073239220346	0
8	41677	16306.798131428002	1
8	41681	16307.434258676824	0
8	41685	16307.863424823331	1
8	41686	16308.009236626612	0
8	41692	16308.513276457559	1
8	41694	16308.570466581508	0
8	41830	16335.034469752684	1
8	41831	16335.205527206802	0
8	41835	16335.776024555334	1
8	41836	16336.063928173739	0
8	41840	16336.506900340296	1
8	41841	16337.214421078768	0
8	42290	16507.121490079879	1
8	42291	16507.764565157865	0
8	42302	16509.133210553157	1
8	42306	16511.102039321911	0
8	42310	16511.690476654916	1
8	42311	16512.816561421015	0
8	42715	16671.399210618784	1
8	42716	16673.508937400458	0
8	42910	16768.501560350493	1
8	42911	16770.066376596718	0
8	42915	16770.741892911709	1
8	42916	16772.611118317212	0
8	42927	16773.939280944506	1
8	42932	16774.633777702462	2
8	42934	16775.281786466218	1
8	42936	16775.332659411139	0
8	42965	16778.987530087542	1
8	42966	16779.086022773595	0
8	42970	16780.04281363485	1
8	42974	16780.08789236819	0
8	42984	16781.318597820055	1
8	42987	16782.230084884426	2
8	42991	16783.916800873152	1
8	42994	16784.621607154247	0
8	44065	17257.713167562957	1
8	44069	17259.543225684003	0
8	44072	17259.932723830927	1
8	44076	17260.265075116545	0
8	44079	17260.398749288365	1
8	44091	17262.750775307994	0
8	44132	17272.159039914457	1
8	44134	17272.275865467841	0
8	44137	17272.682219531981	1
8	44144	17273.961121356645	0
8	44157	17275.697644066053	1
8	44159	17276.317171428001	0
8	44165	17277.271541975333	1
8	44166	17278.314338212985	0
8	44175	17279.183601679526	1
8	44176	17279.362831338103	0
8	44447	17361.355038781163	1
8	44449	17361.462728650404	0
8	44454	17362.053071034818	1
8	44459	17363.331452882504	0
8	44465	17364.198502843061	1
8	44466	17364.251619389083	0
8	44857	17524.626626142953	1
8	44859	17525.121900401325	0
8	44862	17525.255099244882	1
8	44864	17525.998601653421	0
8	44867	17526.100435421663	1
8	44871	17526.789540214559	0
8	44882	17528.272175114138	1
8	44884	17528.479916568783	0
8	45255	17695.78127853707	1
8	45256	17696.518386676633	0
8	45260	17697.34084982961	1
8	45261	17698.779006648836	0
8	45335	17726.659247679583	1
8	45336	17726.951315912803	0
8	45725	17871.460840116265	1
8	45726	17872.025821994447	0
8	45730	17872.841626002516	1
8	45731	17874.176011918197	0
8	45950	17945.165835994364	1
8	45951	17945.489894501214	0
8	46060	17992.267268736616	1
8	46061	17993.956074818617	0
8	46130	18037.101319001642	1
8	46131	18037.250038110565	0
8	46135	18037.880347526406	1
8	46140	18039.863089972542	2
8	46144	18040.821618520025	1
8	46146	18041.383282885103	0
8	46195	18049.554243267518	1
8	46196	18049.859968418663	0
8	46200	18050.298140125803	1
8	46201	18050.405729941241	0
8	46695	18313.752579265604	1
8	46696	18316.004748116032	0
8	46707	18317.293825882458	1
8	46709	18317.525340702692	0
8	46712	18317.738999216555	1
8	46714	18317.767817383276	0
8	46917	18361.350434281741	1
8	46919	18361.978578707473	0
8	46925	18362.906804155856	1
8	46926	18362.968379045978	0
8	46930	18363.550447533188	1
8	46931	18363.708201143817	0
8	47202	18474.693474146801	1
8	47204	18474.706216919864	0
8	47370	18545.096972771587	1
8	47371	18545.329970159357	0
8	47732	18700.710269929404	1
8	47734	18700.756050713204	0
8	48200	18931.974207906274	1
8	48201	18932.431980513095	0
8	48452	19031.155801170322	1
8	48454	19031.227123405599	0
8	48457	19031.70911426619	1
8	48459	19032.008051885136	0
8	48465	19033.250510126635	1
8	48466	19035.073666253597	0
8	48470	19035.688019994511	1
8	48471	19036.529867757983	0
8	48945	19226.633843630835	1
8	48946	19226.78163037314	0
8	49105	19263.227117634626	1
8	49109	19264.013271853185	0
8	49400	19402.427492674644	1
8	49411	19406.078855693312	0
8	49482	19434.027235168841	1
8	49484	19434.482591776404	0
8	49490	19435.266283658862	1
8	49495	19435.985311277707	2
8	49496	19437.331837488773	1
8	49499	19437.360945123496	0
8	49502	19438.22362993417	1
8	49504	19438.281337109129	0
8	49530	19443.570388504169	1
8	49534	19444.272146688165	0
8	50095	19646.274178860883	1
8	50096	19646.368112338	0
8	50370	19769.13817822346	1
8	50371	19770.065083509463	0
8	50480	19804.166661602695	1
8	50481	19804.171267764426	0
8	50490	19807.941261569174	1
8	50494	19809.14910280191	0
8	50775	19930.586125390286	1
8	50776	19934.573402157739	0
8	51080	20050.256686302773	1
8	51081	20051.018088498851	0
8	51090	20052.329078099643	1
8	51091	20054.706950722266	0
8	51120	20059.016896039339	1
8	51121	20059.380257002057	0
8	51265	20110.898709455731	1
8	51266	20111.96802220509	0
8	51460	20190.612995434503	1
8	51461	20192.126427866201	0
8	52275	20643.550370696095	1
8	52276	20643.597179590332	0
8	52280	20644.420594451836	1
8	52281	20645.091881480003	0
8	52297	20647.717513722358	1
8	52299	20647.791782026394	0
8	52675	20799.704386790548	1
8	52676	20800.133701856456	0
8	53305	21083.053271626249	1
8	53306	21083.832568704245	0
8	53505	21218.21558387929	1
8	53506	21219.197064889732	0
8	54067	21494.44439416207	1
8	54069	21495.127567496679	0
8	54075	21495.661737558484	1
8	54076	21496.51945557884	0
8	54142	21516.196868577067	1
8	54144	21516.573224778375	0
8	54147	21516.727655777687	1
8	54149	21517.089050742678	0
8	54152	21517.194887717327	1
8	54154	21517.496324253971	0
8	54465	21616.417561725695	1
8	54469	21617.794558338039	0
8	54479	21618.562635162284	1
8	54481	21619.357314553706	0
8	54675	21695.610538869592	1
8	54676	21695.745395566639	0
8	55095	21857.52417119046	1
8	55096	21858.561637946085	0
8	55190	21895.925157218428	1
8	55191	21896.256375073959	0
8	55252	21910.742366768329	1
8	55257	21911.448567712868	2
8	55259	21911.923241931569	1
8	55264	21912.457797908234	0
8	55267	21913.132870702215	1
8	55269	21913.182599000862	0
8	55280	21914.897431711203	1
8	55281	21915.529124913552	0
8	55300	21918.215354126785	1
8	55301	21919.014411274494	0
8	55995	22256.851996000854	1
8	56001	22259.491695798054	0
8	56310	22398.921641128229	1
8	56311	22399.298995759595	0
8	56405	22431.787269332027	1
8	56406	22432.684119980181	0
8	56420	22434.388026530393	1
8	56421	22435.192800692126	0
8	56550	22504.68781384219	1
8	56551	22506.763163130148	0
8	57290	22826.375006025842	1
8	57291	22827.05938686282	0
8	57295	22827.508948342415	1
8	57296	22828.403891459397	0
8	57600	22950.469587095591	1
8	57601	22951.754693450716	0
8	57607	22952.582336102829	1
8	57609	22952.628163139798	0
8	57635	22957.978591643125	1
8	57640	22958.725871182892	2
8	57641	22959.252333683352	1
8	57644	22959.374361201187	0
8	57649	22960.038077604462	1
8	57651	22960.276643587811	0
8	57705	22968.274194914584	1
8	57706	22968.695471649554	0
8	57715	22970.124677344255	1
8	57716	22971.628387855313	0
8	57770	22998.407534523275	1
8	57771	22999.734876897979	0
8	57775	23000.440138161323	1
8	57776	23000.458651733807	0
8	57885	23027.757577928259	1
8	57891	23029.486005807447	0
8	57894	23029.741911277774	1
8	57896	23030.534640179592	0
8	57899	23030.656100181298	1
8	57904	23031.346634026925	0
8	58490	23253.043098159399	1
8	58491	23254.08199826593	0
8	59142	23501.869474666657	1
8	59144	23501.957643660464	0
8	59187	23507.355637956455	1
8	59190	23507.890058688491	2
8	59194	23508.808556469762	1
8	59196	23509.032192108306	0
8	59199	23509.069668514138	1
8	59205	23510.491872585096	2
8	59206	23510.586292831286	1
8	59209	23511.135872569595	0
8	60465	24053.128497861868	1
8	60466	24053.223400827465	0
8	60470	24054.149506898658	1
8	60471	24055.636718476893	0
8	60475	24056.076502575961	1
8	60476	24056.1490135819	0
8	60495	24058.575159793748	1
8	60496	24058.684493691033	0
8	60585	24089.13272494816	1
8	60586	24090.905510352838	0
8	61070	24361.054230564266	1
8	61071	24361.414641642575	0
8	61110	24394.331339140629	1
8	61111	24395.530588883378	0
8	61155	24416.254432140191	1
8	61156	24416.365048849571	0
8	61206	24422.909996494173	1
8	61208	24423.169624563129	0
8	61492	24518.324034901928	1
8	61496	24519.273598406419	0
8	61650	24553.935786356238	1
8	61655	24554.635873373701	2
8	61656	24555.038134651905	1
8	61669	24556.865941350637	0
8	61672	24557.405085987774	1
8	61674	24557.721047223365	0
8	61677	24558.220227320622	1
8	61681	24559.356286436665	0
8	61930	24636.127968926986	1
8	61931	24637.404367523142	0
8	62320	24823.178221761606	1
8	62321	24823.939065846813	0
8	62565	24899.90697803045	1
8	62570	24901.073830229627	2
8	62571	24901.907871780147	1
8	62577	24902.562582343419	2
8	62581	24904.388923447398	1
8	62586	24906.293528633922	0
8	62945	25085.618986779128	1
8	62946	25085.739780637773	0
8	63362	25264.13168985088	1
8	63367	25264.952073503971	2
8	63369	25265.213569263527	1
8	63374	25265.949383222714	0
8	63855	25509.252252804913	1
8	63856	25510.263805975457	0
8	64365	25743.361804651253	1
8	64366	25744.407233943829	0
8	64739	25853.447976871037	1
8	64741	25853.507885504625	0
8	65032	25968.612723115176	1
8	65034	25968.726823529092	0
8	65535	26182.946066782359	1
8	65536	26183.14523475544	0
8	65659	26221.549321280303	1
8	65661	26221.846705584884	0
8	65825	26285.841669621049	1
8	65826	26286.547896456922	0
8	65835	26287.372248731431	1
8	65836	26288.123761068945	0
8	65850	26290.96607422385	1
8	65851	26292.270305584835	0
8	66961	26783.215981479651	1
8	66963	26783.415714456767	0
8	67335	26999.80776470546	1
8	67341	27002.321443294133	0
8	67345	27002.855675462964	1
8	67350	27003.859307931652	2
8	67351	27004.629327096101	1
8	67356	27006.032017421176	0
8	67360	27007.014514363383	1
8	67361	27007.022596174113	0
8	67365	27007.481768110448	1
8	67369	27008.739384663068	0
8	67372	27008.860364407143	1
8	67374	27008.873024198625	0
8	67430	27028.5114869752	1
8	67431	27028.663685681256	0
8	67460	27040.866924056069	1
8	67461	27041.877387807887	0
8	67492	27048.378752191158	1
8	67494	27048.682722776404	0
8	67520	27052.348636236208	1
8	67524	27053.075317021206	0
8	67595	27076.516531857758	1
8	67596	27076.539375728823	0
8	67600	27076.973481073545	1
8	67601	27077.205420337107	0
8	68022	27258.309522229249	1
8	68026	27258.777360913595	0
8	68265	27332.484392226757	1
8	68266	27332.593534136659	0
8	68275	27333.967553745073	1
8	68276	27334.051155988363	0
8	68500	27438.829655642253	1
8	68501	27438.971366324077	0
8	68770	27538.732640738053	1
8	68771	27539.998820040698	0
8	68842	27572.015650985791	1
8	68846	27573.892260642914	0
8	69000	27644.537613172175	1
8	69001	27644.968183342876	0
8	69010	27646.452983028345	1
8	69011	27647.364297693885	0
8	69180	27708.971755094833	1
8	69181	27709.711278908927	0
8	69185	27710.362496794755	1
8	69186	27710.43099099389	0
8	69375	27791.382258515499	1
8	69381	27793.424054875507	0
8	69384	27793.861275753788	1
8	69386	27793.87406493999	0
8	69411	27797.371119143197	1
8	69416	27798.541153565558	0
8	69472	27806.034991532972	1
8	69477	27806.733350803925	2
8	69480	27807.38419266179	3
8	69481	27807.728945122976	2
8	69484	27807.989939193133	1
8	69487	27808.420538536636	2
8	69489	27808.61175448209	1
8	69494	27808.971879056884	0
8	69956	28025.534321363036	1
8	69959	28025.991335274185	2
8	69961	28026.353535197996	1
8	69966	28027.536631011935	0
8	70150	28122.706237117343	1
8	70151	28122.955005085116	0
8	70487	28223.192403546634	1
8	70490	28223.875379835215	2
8	70494	28224.03461999111	1
8	70496	28224.515991506831	0
8	70499	28224.886861755094	1
8	70504	28225.592703409618	0
8	70507	28226.108715956938	1
8	70511	28227.347076966047	0
8	70667	28263.395412890286	1
8	70669	28263.595044860819	0
8	70672	28264.300210443091	1
8	70674	28264.992957193017	0
8	70890	28322.517942418286	1
8	70891	28323.476287282431	0
8	70895	28324.358614680483	1
8	70901	28326.258809216922	0
8	71575	28610.650025310518	1
8	71576	28611.160826707725	0
8	71580	28611.765141501744	1
8	71581	28614.65415628326	0
8	72772	29155.773235657371	1
8	72774	29155.858247638486	0
8	72821	29161.296204642278	1
8	72823	29161.504539696517	0
8	72826	29161.980970796455	1
8	72828	29162.423685734222	0
8	72831	29162.79119784881	1
8	72833	29163.233608789439	0
8	72839	29164.128402887775	1
8	72841	29164.16626469593	0
8	72851	29165.505338009611	1
8	72858	29166.455139537353	0
8	72861	29166.67258488217	1
8	72865	29167.277272551566	0
8	72868	29167.52352928545	1
8	72870	29167.839587896404	0
8	72884	29170.132537825756	1
8	72887	29170.622653554498	2
8	72891	29171.383046704433	1
8	72896	29171.563201854232	0
8	73130	29264.991112009611	1
8	73131	29265.410546696219	0
8	73135	29265.813402706231	1
8	73136	29266.470443376617	0
8	73240	29294.72064721881	1
8	73241	29295.212456946749	0
8	73250	29296.843875016807	1
8	73251	29299.01765313201	0
8	73492	29396.019781169435	1
8	73496	29397.048043858393	0
8	73800	29520.03832315178	1
8	73805	29520.881513999928	2
8	73806	29521.988270680624	1
8	73810	29522.70982181236	2
8	73811	29523.810096664207	1
8	73814	29523.88677297603	0
8	73897	29564.171245121265	1
8	73899	29564.317960584576	0
8	73905	29565.120425807413	1
8	73906	29566.142356208211	0
8	74285	29699.111520641159	1
8	74286	29699.716422739459	0
8	74630	29872.200143680263	1
8	74631	29872.79768938775	0
8	74650	29875.328416346608	1
8	74659	29876.967085981849	0
9	27072	10447.238435950324	1
9	27074	10447.822027332219	0
9	27200	10472.605247121549	1
9	27202	10472.626253889368	0
9	27807	10753.964725519218	1
9	27809	10754.385777969718	0
9	27969	10805.701846848089	1
9	27971	10806.053479225888	0
9	28720	11178.627114265226	1
9	28721	11179.321335049961	0
9	29345	11387.218014893641	1
9	29346	11387.560184134611	0
9	29669	11490.268964817914	1
9	29671	11490.553182425248	0
9	31175	12054.121331559249	1
9	31176	12054.309069018878	0
9	32757	12715.928710087727	1
9	32760	12716.644534932462	2
9	32761	12716.968770876459	1
9	32764	12717.391923843973	0
9	33255	12924.622799814717	1
9	33256	12925.111249075881	0
9	34429	13331.077679168755	1
9	34431	13331.630131695743	0
9	35155	13609.63204621395	1
9	35156	13610.886911033885	0
9	37720	14710.48217327489	1
9	37721	14710.723834596291	0
9	40317	15750.349512957273	1
9	40319	15750.750033883347	0
9	42535	16594.82637271091	1
9	42539	16595.231237570943	0
9	42542	16595.624896222945	1
9	42544	16595.770984851891	0
9	45067	17612.29920370873	1
9	45069	17612.72288232467	0
9	45619	17854.206863193281	1
9	45621	17854.218426947098	0
9	45627	17855.227955122126	1
9	45631	17855.995247240238	0
9	46842	18351.477234847441	1
9	46844	18351.488076519871	0
9	46878	18355.195328309916	1
9	46880	18355.255692745652	0
9	49620	19472.027131566496	1
9	49624	19472.406706743234	0
9	49635	19474.682276085852	1
9	49636	19474.714436631435	0
9	49640	19475.291338840005	1
9	49641	19476.021912563121	0
9	51532	20258.260858747568	1
9	51534	20258.342135548457	0
9	55550	22045.86818210231	1
9	55551	22046.0500943749	0
9	55632	22069.08300975003	1
9	55636	22070.184801985789	0
9	55840	22159.899799371004	1
9	55845	22160.433507029263	2
9	55846	22160.503738340325	1
9	55849	22160.579339245598	0
9	58375	23234.982634560892	1
9	58376	23235.194463504705	0
9	58392	23236.994455298263	1
9	58394	23237.278597466038	0
9	58920	23406.487600104939	1
9	58924	23407.277490204112	0
9	60350	24023.326357381924	1
9	60351	24023.679195238064	0
9	61332	24476.314984897931	1
9	61334	24476.659259815381	0
9	61724	24566.909770002804	1
9	61728	24567.450247516777	0
9	61757	24571.594748332894	1
9	61759	24571.595116954535	0
9	64782	25859.640497412967	1
9	64786	25860.371500974739	0
9	66157	26434.490703291468	1
9	66159	26434.858759129731	0
9	71330	28498.244975045116	1
9	71331	28498.835137814373	0
9	71340	28500.097787500589	1
9	71341	28500.113606768064	0
9	72400	28964.371610964629	1
9	72401	28964.860941442015	0
9	72570	29017.018005593731	1
9	72571	29017.269968345795	0
9	72777	29156.490552131624	1
9	72783	29156.668304725612	0
9	74102	29616.041304241846	1
9	74104	29616.331132594856	0

