version 2
run First_exit_8-5-20191114-11:42:26-8852
attr configname First_exit_8
attr datetime 20191114-11:42:26
attr experiment First_exit_8
attr inifile omnetpp.ini
attr iterationvars ""
attr iterationvarsf ""
attr measurement ""
attr network ResponseTimeNetwork
attr processid 8852
attr repetition 5
attr replication #5
attr resultdir results
attr runnumber 5
attr seedset 5
param **.Source.interArrivalTime exponential(4s)
param **.jobPriority bernoulli(0.4)
param **.PS.serviceTimeU1 "uniform(0.4s, 1.0s)"
param **.PS.serviceTimeU2 "uniform(1s, 1.2s)"
param **.SS1.serviceTime exponential(0.4s)
param **.SS2.serviceTime exponential(0.8s)
param **.PS.exitProbability bernoulli(0.8)

vector 0 ResponseTimeNetwork.QueueU1 queueLength:vector ETV
attr interpolationmode sample-hold
attr title "queue length, vector"
vector 1 ResponseTimeNetwork.QueueU2 queueLength:vector ETV
attr interpolationmode sample-hold
attr title "queue length, vector"
vector 2 ResponseTimeNetwork.SS1 queueLength:vector ETV
attr interpolationmode sample-hold
attr title "queue length, vector"
vector 3 ResponseTimeNetwork.SS2 queueLength:vector ETV
attr interpolationmode sample-hold
attr title "queue length, vector"
vector 4 ResponseTimeNetwork.sink lifeTimeU1:vector ETV
attr interpolationmode none
attr title "lifetime of arrived jobs U1, vector"
attr unit s
vector 5 ResponseTimeNetwork.sink totalServiceTimeU1:vector ETV
attr interpolationmode none
attr title "the total time spent  by arrived jobs U1, vector"
attr unit s
vector 6 ResponseTimeNetwork.sink lifeTime:vector ETV
attr interpolationmode none
attr title "lifetime of arrived jobs, vector"
attr unit s
vector 7 ResponseTimeNetwork.sink totalServiceTime:vector ETV
attr interpolationmode none
attr title "the total time spent  by arrived jobs, vector"
attr unit s
vector 8 ResponseTimeNetwork.sink lifeTimeU2:vector ETV
attr interpolationmode none
attr title "lifetime of arrived jobs U2, vector"
attr unit s
vector 9 ResponseTimeNetwork.sink totalServiceTimeU2:vector ETV
attr interpolationmode none
attr title "the total time spent  by arrived jobs U2, vector"
attr unit s
0	59816	10000.426277237725	2
0	59819	10000.773547012764	1
0	59823	10000.791826761707	2
0	59824	10001.711136395237	1
0	59828	10002.413718091848	2
0	59829	10002.628843089644	1
0	59832	10003.583396131251	0
0	59847	10005.676121173114	1
0	59849	10005.78439978717	2
0	59850	10006.022214271113	1
0	59856	10006.157285951343	2
0	59857	10006.614753089783	1
0	59862	10007.332495532216	0
0	59866	10007.609995072652	1
0	59868	10007.67763064717	2
0	59869	10008.121646932916	1
0	59873	10008.165378006408	2
0	59874	10009.055138688193	1
0	59877	10009.601831816866	0
0	59881	10009.670876859135	1
0	59883	10009.768042452302	2
0	59885	10010.153916391354	3
0	59886	10010.257067983582	2
0	59890	10010.56577310179	3
0	59891	10010.952321542318	2
0	59895	10011.109956124209	3
0	59896	10011.881892632491	2
0	59899	10012.386513371377	1
0	59903	10012.783052342205	2
0	59904	10013.264900077025	1
0	59908	10013.503952161881	2
0	59909	10014.048474906322	1
0	59914	10014.602325030586	0
0	59918	10014.624472094238	1
0	59920	10014.890483790362	2
0	59921	10015.114684036358	1
0	59924	10015.976729230753	0
0	59937	10017.67043259122	1
0	59938	10018.056444168122	0
0	59944	10018.219156939618	1
0	59945	10018.549431054232	0
0	59949	10018.666641348218	1
0	59950	10019.499024704921	0
0	59956	10019.739993212601	1
0	59957	10020.228575310328	0
0	59972	10022.139128163282	1
0	59975	10022.59311086357	0
0	59979	10022.855483710685	1
0	59982	10023.436802065311	0
0	59986	10023.92601927374	1
0	59987	10024.086832916768	0
0	59991	10024.244030668277	1
0	59992	10025.086572238741	0
0	59999	10026.375685800804	1
0	60000	10026.832640341281	0
0	60004	10026.872872649929	1
0	60005	10027.456461599686	0
0	60009	10027.547639584528	1
0	60010	10028.367703753508	0
0	60014	10028.769382283674	1
0	60015	10029.010407756673	0
0	60022	10030.203103659647	1
0	60024	10030.582031828857	2
0	60025	10030.886771466661	1
0	60030	10031.557497011157	0
0	60034	10031.709452382483	1
0	60035	10032.090854324432	0
0	60042	10033.272991952901	1
0	60043	10033.58105162837	0
0	60062	10036.719158196713	1
0	60063	10036.88788605629	0
0	60082	10038.75655312501	1
0	60085	10039.138946167227	0
0	60092	10039.787628432763	1
0	60093	10040.29609756799	0
0	60102	10041.304202321741	1
0	60105	10042.138509885907	0
0	60114	10042.893048976938	1
0	60117	10043.739035444879	0
0	60155	10050.885272385045	1
0	60160	10051.391476522047	0
0	60200	10061.958226104092	1
0	60201	10062.128731068869	0
0	60205	10062.243062988682	1
0	60206	10062.596835275872	0
0	60210	10062.754754192279	1
0	60211	10063.097628395904	0
0	60215	10063.14309781164	1
0	60220	10064.011896030225	0
0	60224	10064.428848856424	1
0	60225	10064.986684118763	0
0	60229	10065.436460998908	1
0	60230	10065.608267649303	0
0	60234	10065.80094226202	1
0	60235	10066.577327800861	0
0	60239	10066.691326516533	1
0	60240	10067.315278497331	0
0	60244	10067.340465283408	1
0	60245	10068.15426683672	0
0	60249	10068.701239322071	1
0	60250	10069.144693256163	0
0	60257	10070.177965190401	1
0	60258	10070.65509087927	0
0	60267	10071.659840629756	1
0	60268	10072.149682638742	0
0	60290	10074.467537058191	1
0	60291	10075.155135097043	0
0	60398	10091.533930974443	1
0	60399	10091.880478339612	0
0	60408	10092.551716615487	1
0	60409	10092.954829958283	0
0	60420	10094.033977252962	1
0	60421	10094.327991452736	0
0	60430	10095.156540361077	1
0	60431	10095.871165923977	0
0	60440	10096.772523746401	1
0	60441	10097.656944313569	0
0	60456	10099.872911621334	1
0	60457	10100.139762073818	0
0	60466	10101.369710714757	1
0	60469	10101.892758038656	0
0	60476	10103.432033843085	1
0	60477	10103.52923457205	0
0	60484	10104.529119440802	1
0	60485	10104.770997123855	0
0	60507	10108.017860214075	1
0	60508	10108.112177144565	0
0	60532	10112.150908494681	1
0	60533	10112.21249868179	0
0	60544	10113.588806593611	1
0	60545	10113.804735041859	0
0	60552	10114.474506169652	1
0	60553	10115.122149027356	0
0	60564	10116.116832922319	1
0	60565	10116.328075286637	0
0	60572	10116.814438089484	1
0	60575	10117.466580427422	0
0	60594	10119.053060098341	1
0	60597	10119.531251297269	0
0	60604	10120.216856756585	1
0	60605	10121.10166154288	0
0	60614	10122.35100029353	1
0	60615	10122.521263336607	0
0	60627	10124.152008898878	1
0	60630	10124.788299978648	0
0	60639	10125.382253007666	1
0	60640	10125.829492027716	0
0	60649	10126.473294397808	1
0	60650	10127.012722021744	0
0	60659	10127.519033521687	1
0	60660	10127.979882632971	0
0	60882	10174.488963424161	1
0	60883	10174.973809405671	0
0	60890	10175.52036474027	1
0	60893	10176.462215486004	0
0	60897	10176.54143485513	1
0	60900	10177.173164660924	0
0	60906	10177.363134062252	1
0	60911	10177.971117306662	0
0	60917	10178.667706807086	1
0	60918	10178.936509657254	0
0	60922	10179.014437861318	1
0	60923	10179.738064509419	0
0	60927	10180.185775465053	1
0	60928	10180.481639687832	0
0	60932	10180.868162076992	1
0	60933	10181.266993698034	0
0	60937	10181.535454709138	1
0	60938	10181.849449555737	0
0	60942	10182.037036590968	1
0	60943	10182.824944981628	0
0	60947	10182.991351695334	1
0	60948	10183.363238068971	0
0	60952	10184.058388318906	1
0	60954	10184.099716969488	2
0	60955	10184.261261266352	1
0	60959	10184.647445458953	2
0	60960	10185.030356530308	1
0	60963	10185.903586377179	0
0	60972	10186.77070511447	1
0	60974	10186.918373925047	2
0	60975	10187.160054295671	1
0	60980	10188.145850985425	0
0	60984	10188.262847361735	1
0	60986	10188.455759655072	2
0	60987	10188.745573760497	1
0	60991	10189.077947094841	2
0	60992	10189.738259306105	1
0	60996	10189.901430333709	2
0	60997	10190.611874333697	1
0	61001	10190.866541228288	2
0	61002	10191.360961810241	1
0	61006	10191.527653737412	2
0	61007	10191.873820440166	1
0	61011	10191.982553221374	2
0	61012	10192.352928806676	1
0	61015	10193.129127411146	0
0	61025	10195.169717754571	1
0	61026	10195.740606162485	0
0	61033	10196.213152403153	1
0	61035	10196.862900201212	2
0	61036	10197.172280724973	1
0	61040	10197.397593286503	2
0	61041	10198.059857766538	1
0	61049	10198.564356961986	2
0	61050	10198.646294574088	1
0	61054	10198.744829107724	2
0	61055	10199.547012529031	1
0	61059	10199.562256782159	2
0	61060	10200.071474186026	1
0	61063	10200.540258875324	0
0	61067	10200.723375267274	1
0	61068	10201.456528551106	0
0	61072	10201.738108870732	1
0	61073	10202.202458910199	0
0	61077	10202.595757595565	1
0	61078	10202.969284958972	0
0	61082	10203.30240585018	1
0	61085	10203.93837486936	0
0	61089	10204.095442005737	1
0	61090	10204.558983774132	0
0	61094	10204.693220615865	1
0	61095	10205.143967382911	0
0	61102	10205.83432930089	1
0	61103	10206.267597305704	0
0	61264	10232.156736827252	1
0	61265	10232.28661804942	0
0	61277	10233.752519582023	1
0	61278	10234.116902526073	0
0	61297	10237.000921941379	1
0	61298	10237.010696790625	0
0	61312	10238.763505052508	1
0	61319	10239.497145596125	0
0	61328	10240.176159076031	1
0	61331	10240.630299841963	0
0	61340	10241.763959276034	1
0	61341	10242.336620539032	0
0	61348	10243.064609672355	1
0	61349	10243.379166958645	0
0	61356	10244.37738908967	1
0	61363	10245.326528913506	0
0	61378	10246.755594286208	1
0	61379	10246.859581060127	0
0	61546	10272.702750830296	1
0	61547	10272.73091430173	0
0	61590	10279.781284415336	1
0	61597	10280.573824063853	0
0	61606	10281.32621396821	1
0	61609	10282.025788046956	0
0	61631	10284.266323184311	1
0	61632	10284.726248738892	0
0	61641	10285.752373266938	1
0	61642	10286.029998752871	0
0	61650	10286.822350297497	1
0	61651	10286.899819475483	0
0	61655	10287.101137847636	1
0	61656	10287.872234954011	0
0	61662	10288.239505724598	1
0	61663	10288.617201758294	0
0	61667	10288.708921054202	1
0	61669	10289.06283771764	2
0	61672	10289.608348258516	1
0	61676	10289.842944580128	2
0	61677	10290.606877509576	1
0	61684	10291.216847647146	0
0	61688	10291.281888687719	1
0	61691	10292.010723680376	0
0	61695	10292.802607619821	1
0	61696	10292.983583324754	0
0	61703	10294.081762835364	1
0	61704	10294.116551871903	0
0	61713	10294.918116088267	1
0	61714	10295.509101312447	0
0	61718	10295.936906163623	1
0	61721	10296.233660723621	0
0	61728	10297.402859670086	1
0	61729	10297.758245868542	0
0	61738	10298.525112966986	1
0	61741	10298.942692295908	0
0	61759	10301.879850187885	1
0	61762	10302.210543426013	0
0	61880	10323.142481717854	1
0	61881	10323.46804991272	0
0	61947	10341.175874649711	1
0	61948	10341.536035041495	0
0	61995	10349.316874770001	1
0	61996	10349.59697885476	0
0	62017	10352.455446116199	1
0	62018	10352.65371505812	0
0	62029	10353.769391119899	1
0	62030	10354.206782696659	0
0	62080	10361.929927202911	1
0	62081	10362.470919839829	0
0	62087	10363.209140060371	1
0	62088	10363.321523445682	0
0	62095	10364.087744797629	1
0	62096	10364.636423279322	0
0	62105	10365.899389751532	1
0	62106	10366.334942576872	0
0	62175	10378.444898956576	1
0	62176	10378.453948682126	0
0	62195	10381.150318186546	1
0	62198	10381.918651782519	0
0	62257	10395.993188899869	1
0	62258	10396.096730147173	0
0	62262	10396.142730465933	1
0	62263	10396.529788540501	0
0	62267	10396.710974448455	1
0	62268	10396.931554572295	0
0	62272	10396.974951741306	1
0	62273	10397.784223668381	0
0	62280	10398.827967315882	1
0	62281	10398.863939681892	0
0	62285	10399.15271397547	1
0	62288	10399.791071277541	0
0	62292	10399.856179102847	1
0	62293	10400.375986257671	0
0	62299	10400.811151834411	1
0	62300	10401.101449800712	0
0	62304	10401.112678620075	1
0	62305	10402.045097713741	0
0	62312	10402.864334520464	1
0	62314	10402.892633124102	2
0	62315	10403.533855607138	1
0	62318	10404.268724912182	0
0	62324	10404.33930876734	1
0	62327	10405.121714769174	0
0	62334	10406.262277038535	1
0	62335	10406.47115128181	0
0	62344	10407.131299608443	1
0	62346	10407.345212469404	2
0	62347	10407.816378088352	1
0	62350	10408.562979336512	0
0	62354	10408.982464485548	1
0	62355	10409.13210551465	0
0	62359	10409.226205185829	1
0	62360	10409.653677219256	0
0	62367	10410.404636587028	1
0	62368	10410.554042242524	0
0	62377	10411.28773834054	1
0	62378	10412.074065303905	0
0	62387	10412.987770211248	1
0	62388	10413.680777303512	0
0	62402	10414.884907237662	1
0	62405	10415.235307075135	0
0	62409	10415.420584648643	1
0	62410	10415.727760309917	0
0	62414	10415.909616589739	1
0	62415	10416.339310747343	0
0	62422	10416.966317743074	1
0	62423	10417.31289017294	0
0	62435	10418.608601391505	1
0	62436	10419.512125685302	0
0	62450	10420.933274590685	1
0	62451	10421.123927795613	0
0	62460	10421.843412551198	1
0	62461	10422.072064143145	0
0	62475	10423.383742593559	1
0	62476	10423.924500046059	0
0	62500	10434.623800317529	1
0	62501	10435.378281567023	0
0	62515	10436.664557318495	1
0	62516	10437.102412611162	0
0	62525	10437.980936988261	1
0	62526	10438.497825195975	0
0	62535	10439.736994598806	1
0	62536	10440.132400982091	0
0	62545	10441.202196075753	1
0	62546	10441.768256814321	0
0	62580	10457.367357981414	1
0	62581	10457.829762628471	0
0	62805	10530.827553451915	1
0	62806	10531.013081579632	0
0	62812	10531.375687432821	1
0	62813	10531.897714447952	0
0	62817	10532.070564532783	1
0	62818	10532.544348924165	0
0	62822	10532.606601140221	1
0	62823	10533.511843357305	0
0	62830	10534.469239065976	1
0	62831	10535.203989522694	0
0	62840	10535.812701576438	1
0	62845	10536.523418557387	0
0	62855	10537.596789192555	1
0	62856	10538.015741810038	0
0	62865	10539.251790929769	1
0	62866	10539.494991473223	0
0	62879	10540.608645593615	1
0	62880	10541.346503994216	0
0	62889	10542.405398129884	1
0	62892	10542.948049457719	0
0	62899	10543.617281889667	1
0	62900	10544.485079915005	0
0	62907	10545.531985430769	1
0	62908	10546.032392728118	0
0	62919	10547.376435713126	1
0	62920	10547.718352107819	0
0	62934	10549.783359931847	1
0	62935	10550.211702094762	0
0	62944	10551.046249637454	1
0	62945	10551.440526864142	0
0	62952	10552.203698067035	1
0	62953	10552.471785224997	0
0	62962	10553.463182092064	1
0	62963	10553.654666009103	0
0	62970	10554.226075725442	1
0	62971	10555.060039290297	0
0	62982	10556.387237030503	1
0	62983	10556.543162872109	0
0	63075	10572.859733183222	1
0	63076	10573.521333552139	0
0	63085	10574.623521215264	1
0	63087	10574.736679681021	2
0	63088	10574.840308184723	1
0	63091	10575.32295819366	0
0	63095	10575.536808086482	1
0	63096	10576.187281958001	0
0	63102	10576.374935999221	1
0	63103	10576.676811858766	0
0	63107	10576.762146979828	1
0	63108	10577.204804542508	0
0	63112	10577.438588496829	1
0	63113	10577.660592753846	0
0	63120	10578.707943281531	1
0	63121	10579.019609314097	0
0	63130	10579.80000344151	1
0	63131	10580.38425618311	0
0	63152	10583.940962608143	1
0	63153	10583.953690504323	0
0	63210	10593.230283077716	1
0	63211	10593.633356754211	0
0	63227	10595.24453110662	1
0	63228	10595.693937817874	0
0	63237	10596.74300468126	1
0	63239	10597.259279418381	2
0	63240	10597.300552735065	1
0	63245	10598.044672187331	0
0	63249	10598.445103234996	1
0	63250	10598.692457274494	0
0	63259	10599.496257203751	1
0	63261	10599.683273546734	2
0	63262	10600.273123452121	1
0	63269	10600.773380414078	0
0	63273	10601.246555834054	1
0	63274	10601.599405374804	0
0	63278	10602.153464922227	1
0	63279	10602.3314006046	0
0	63283	10602.71279823482	1
0	63286	10603.297061865505	0
0	63290	10603.507572118122	1
0	63291	10603.738398539748	0
0	63298	10604.863667217039	1
0	63299	10604.87976689549	0
0	63311	10605.883276120326	1
0	63312	10606.425137201518	0
0	63321	10607.159854716387	1
0	63322	10607.827678512836	0
0	63328	10608.460866393215	1
0	63329	10608.613029361803	0
0	63336	10609.729485873374	1
0	63337	10610.328383912759	0
0	63343	10611.047720808579	1
0	63344	10611.157119651798	0
0	63348	10611.229030362588	1
0	63349	10611.952040637757	0
0	63356	10612.739328062172	1
0	63357	10613.197814205017	0
0	63510	10636.984863627443	1
0	63513	10637.370207424732	0
0	63522	10638.537436253194	1
0	63523	10638.833918835121	0
0	63530	10639.878161639925	1
0	63533	10640.129298971165	0
0	63557	10643.720780307554	1
0	63560	10644.288103320534	0
0	63564	10644.430302124202	1
0	63567	10645.166597122318	0
0	63571	10645.685201718204	1
0	63572	10646.077959206366	0
0	63585	10646.933241866627	1
0	63587	10647.233131602339	2
0	63588	10647.35164817324	1
0	63591	10647.847814996672	0
0	63595	10647.938773875342	1
0	63600	10648.621035550759	0
0	63607	10649.047201935571	1
0	63608	10649.544537788574	0
0	63617	10650.513526148169	1
0	63619	10650.521473191114	2
0	63620	10650.709213877926	1
0	63623	10651.275387830185	0
0	63627	10651.662872307398	1
0	63628	10651.802954222346	0
0	63632	10651.810184214858	1
0	63635	10652.613108829074	0
0	63642	10653.330645484467	1
0	63643	10653.824109177375	0
0	63654	10654.549978801526	1
0	63655	10655.244746848046	0
0	63664	10656.181073436768	1
0	63667	10656.736768348039	0
0	63671	10657.268026269544	1
0	63672	10657.460742191355	0
0	63681	10658.658245416658	1
0	63682	10659.193347247912	0
0	63691	10660.58347953932	1
0	63692	10660.624377682934	0
0	63703	10662.114646496887	1
0	63704	10662.267634661066	0
0	63714	10664.412823772404	1
0	63715	10664.534959732079	0
0	63729	10665.978570078741	1
0	63730	10666.876184051614	0
0	63741	10667.663761945133	1
0	63742	10668.504845355349	0
0	63762	10670.478801019468	1
0	63765	10670.742182913833	0
0	63771	10671.251246167898	1
0	63772	10671.463993343656	0
0	63776	10671.486641046813	1
0	63779	10672.13469535526	0
0	63783	10672.741436894976	1
0	63784	10673.015834192737	0
0	63788	10673.242734818209	1
0	63789	10673.525758097778	0
0	63793	10673.653834715204	1
0	63796	10673.933004037934	0
0	63800	10674.095135943148	1
0	63801	10674.459915248296	0
0	63805	10674.610961063677	1
0	63806	10674.861060379856	0
0	63816	10676.017149555812	1
0	63817	10676.803996095797	0
0	63892	10687.413669181731	1
0	63895	10687.756571976273	0
0	63899	10688.030320977695	1
0	63900	10688.430368834073	0
0	63906	10688.717514606812	1
0	63907	10689.374370190027	0
0	63913	10689.999327377659	1
0	63914	10690.079023894613	0
0	63918	10690.170871470001	1
0	63919	10690.665382235117	0
0	63923	10690.767917542735	1
0	63924	10691.132871611781	0
0	63928	10691.144056621403	1
0	63929	10691.696044560793	0
0	63942	10693.181158814717	1
0	63947	10694.153262822694	0
0	63958	10695.105152569678	1
0	63961	10695.542511409978	0
0	63972	10696.955848401851	1
0	63973	10697.222691350095	0
0	64005	10701.599248933492	1
0	64006	10701.733603866294	0
0	64015	10702.888302437646	1
0	64016	10703.437210092264	0
0	64025	10704.129520520612	1
0	64026	10704.535197578453	0
0	64033	10705.004626004222	1
0	64034	10705.644959245984	0
0	64041	10706.467458982808	1
0	64042	10706.9078077522	0
0	64071	10710.964025370737	1
0	64074	10711.731857782825	0
0	64086	10713.036152240384	1
0	64087	10713.402172953066	0
0	64094	10714.572303547823	1
0	64095	10714.946133744054	0
0	64104	10716.470633889185	1
0	64105	10716.720242281713	0
0	64238	10737.254430446804	1
0	64239	10737.409482104322	0
0	64251	10739.413590729784	1
0	64252	10739.816288484205	0
0	64266	10741.436804642359	1
0	64269	10741.917713362062	0
0	64278	10742.592841989348	1
0	64281	10743.255834166417	0
0	64412	10762.382878555745	1
0	64413	10762.594329060695	0
0	64450	10768.337351443634	1
0	64451	10768.495288344367	0
0	64458	10769.287223535539	1
0	64461	10769.871624790725	0
0	64465	10770.749950373598	1
0	64466	10770.836373280116	0
0	64470	10770.896356291886	1
0	64471	10771.373969352279	0
0	64477	10771.57394969302	1
0	64480	10772.254140490793	0
0	64484	10772.465755124543	1
0	64485	10772.919738701625	0
0	64489	10772.954279513922	1
0	64490	10773.649336772911	0
0	64494	10774.304891542921	1
0	64495	10774.360053024521	0
0	64502	10775.310470974244	1
0	64504	10775.355575770787	2
0	64505	10775.553560890756	1
0	64512	10776.118482904775	0
0	64516	10776.517990877092	1
0	64517	10776.693239896545	0
0	64521	10776.762709767744	1
0	64522	10777.419438509304	0
0	64526	10777.768337622719	1
0	64527	10778.36783254732	0
0	64531	10778.663906300307	1
0	64532	10779.343309321241	0
0	64536	10779.423471990172	1
0	64537	10779.870092848256	0
0	64544	10780.600409690716	1
0	64546	10780.64520532665	2
0	64547	10781.190233864855	1
0	64550	10781.815605084678	0
0	64554	10781.825240806156	1
0	64555	10782.689235820934	0
0	64559	10782.772242308817	1
0	64562	10783.386563860193	0
0	64566	10784.081544918787	1
0	64567	10784.274650467407	0
0	64571	10784.456466788735	1
0	64572	10785.005333503975	0
0	64576	10785.509227787393	1
0	64577	10785.529784402239	0
0	64584	10786.671062003266	1
0	64586	10786.827823755584	2
0	64587	10787.026867543428	1
0	64591	10787.363113703325	2
0	64594	10787.923794887715	1
0	64598	10788.456212125597	2
0	64600	10788.464968557594	3
0	64601	10788.597787878417	2
0	64605	10788.867035627042	3
0	64606	10789.551418396306	2
0	64610	10789.792405784026	3
0	64611	10790.275069358094	2
0	64615	10790.323475207333	3
0	64616	10790.692794530174	2
0	64619	10791.21387917007	1
0	64623	10791.597973899927	2
0	64625	10791.898989812069	3
0	64626	10791.993146690202	2
0	64630	10792.320595047463	3
0	64631	10792.474942986236	2
0	64636	10793.439334399288	1
0	64640	10793.718393368372	2
0	64643	10794.329474012868	1
0	64647	10794.369913708605	2
0	64648	10795.159806566627	1
0	64651	10795.951731477061	0
0	64655	10795.986311447443	1
0	64656	10796.479630031332	0
0	64660	10796.543235899975	1
0	64663	10797.261955289717	0
0	64670	10798.149667755479	1
0	64671	10798.757118042732	0
0	64680	10799.962465047378	1
0	64681	10800.463481625809	0
0	64688	10801.243652331862	1
0	64693	10802.209125559625	0
0	64705	10803.782537204279	1
0	64706	10803.919222210289	0
0	64710	10804.037300159709	1
0	64711	10804.573258068214	0
0	64720	10805.532182398383	1
0	64724	10805.977345670764	2
0	64725	10806.274192329251	1
0	64728	10806.926268304593	0
0	64734	10806.952677328597	1
0	64735	10807.674787698628	0
0	64739	10808.030971359461	1
0	64740	10808.363857563201	0
0	64744	10808.625495541134	1
0	64745	10809.088208128919	0
0	64749	10809.276873040134	1
0	64750	10809.635382428567	0
0	64762	10811.297065183955	1
0	64763	10811.630597300024	0
0	64767	10812.134887293813	1
0	64768	10812.269494552619	0
0	64818	10819.216191790476	1
0	64819	10819.267955935363	0
0	64831	10821.305083013438	1
0	64834	10821.644788188616	0
0	64843	10822.370934138942	1
0	64846	10822.998152263684	0
0	64861	10824.948633004752	1
0	64864	10825.480075810513	0
0	64876	10826.647220896078	1
0	64879	10827.369347536926	0
0	64921	10833.768900332185	1
0	64922	10833.921594831803	0
0	65018	10848.009186368927	1
0	65023	10848.233048132472	0
0	65032	10849.097410202483	1
0	65033	10849.763585339757	0
0	65042	10850.744563447927	1
0	65043	10851.222584440411	0
0	65052	10852.184406802127	1
0	65053	10852.513001960182	0
0	65060	10853.431485681518	1
0	65063	10854.171466156925	0
0	65074	10855.263249326776	1
0	65075	10855.42349629243	0
0	65084	10856.594744138218	1
0	65085	10857.035073471201	0
0	65094	10858.013609135492	1
0	65095	10858.233142696919	0
0	65104	10858.866952799194	1
0	65105	10859.380084188601	0
0	65109	10859.975226864212	1
0	65110	10860.183695519196	0
0	65114	10860.600118072958	1
0	65115	10861.101910901807	0
0	65131	10862.228542527359	1
0	65133	10862.498973051834	2
0	65134	10862.972976371918	1
0	65139	10863.948673369588	0
0	65143	10864.131590677512	1
0	65144	10864.547095636224	0
0	65153	10865.926716432634	1
0	65154	10866.108203732727	0
0	65158	10866.149390407652	1
0	65159	10866.574106465552	0
0	65166	10867.954797741317	1
0	65167	10867.959367916307	0
0	65171	10868.081043958487	1
0	65174	10868.452921280351	0
0	65178	10868.57408333793	1
0	65179	10869.197016911947	0
0	65183	10869.47912170888	1
0	65184	10870.031952477799	0
0	65191	10870.737075186422	1
0	65192	10871.258308644679	0
0	65210	10874.243632822975	1
0	65213	10874.863094674974	0
0	65222	10875.857082154796	1
0	65225	10876.730410966641	0
0	65232	10877.594617483948	1
0	65234	10877.860457622536	2
0	65235	10878.445223850096	1
0	65238	10879.191878079148	0
0	65242	10879.481494574983	1
0	65243	10879.818425378054	0
0	65247	10880.130452239427	1
0	65248	10880.268948186086	0
0	65252	10880.691415793597	1
0	65253	10880.795491502285	0
0	65257	10880.867085338438	1
0	65258	10881.710330870831	0
0	65262	10881.780981749555	1
0	65263	10882.299860633621	0
0	65270	10883.00555775594	1
0	65272	10883.089821982148	2
0	65273	10883.880634639123	1
0	65278	10884.307079201228	0
0	65315	10889.600810084241	1
0	65316	10890.010519320973	0
0	65327	10891.259476051637	1
0	65328	10891.842897656177	0
0	65335	10892.674349561406	1
0	65336	10893.05520058562	0
0	65345	10894.555100448442	1
0	65346	10894.596570599209	0
0	65355	10895.336139576791	1
0	65356	10895.906247145952	0
0	65432	10907.025815204792	1
0	65433	10907.711636551086	0
0	65446	10908.935392354773	1
0	65447	10909.238067598956	0
0	65459	10910.844198545178	1
0	65462	10911.49974835826	0
0	65469	10912.461957058752	1
0	65470	10912.882774403076	0
0	65478	10913.689765310459	1
0	65479	10913.792680770289	0
0	65486	10915.083983591335	1
0	65487	10915.452855277192	0
0	65496	10916.276287649774	1
0	65497	10916.693298208984	0
0	65506	10917.309932307236	1
0	65507	10917.803314233749	0
0	65516	10918.295173541236	1
0	65517	10919.047160352897	0
0	65526	10920.110428670311	1
0	65527	10920.622059196085	0
0	65544	10923.386060921045	1
0	65545	10923.586418458345	0
0	65552	10924.621735579566	1
0	65553	10925.246090489291	0
0	65562	10925.986012621075	1
0	65563	10926.132095769039	0
0	65672	10942.352301074744	1
0	65673	10942.514221482631	0
0	65685	10943.394618228487	1
0	65688	10943.475222254638	0
0	65694	10943.894206898994	1
0	65695	10944.049458923284	0
0	65699	10944.441270651552	1
0	65702	10944.531811284972	0
0	65706	10945.184868879095	1
0	65707	10945.267455742834	0
0	65715	10946.092638705992	1
0	65717	10946.143697360026	2
0	65718	10946.267344433954	1
0	65721	10946.679284275789	0
0	65736	10948.774127096097	1
0	65737	10949.005799425161	0
0	65741	10949.249449183654	1
0	65742	10949.621235788893	0
0	65750	10950.15250932277	1
0	65751	10950.327399961324	0
0	65761	10951.345885260173	1
0	65763	10951.506068420316	2
0	65766	10951.642097317334	1
0	65769	10952.089310578815	0
0	65773	10952.170612506097	1
0	65774	10952.568147120624	0
0	65778	10953.058038989835	1
0	65779	10953.210378691926	0
0	65783	10953.759254707968	1
0	65784	10953.971058213151	0
0	65788	10954.082289763497	1
0	65789	10954.465184806612	0
0	65901	10974.23626482256	1
0	65902	10974.284546079726	0
0	65909	10974.951591883296	1
0	65912	10975.50310251313	0
0	65919	10976.582435440328	1
0	65924	10977.198844038189	0
0	65931	10977.941807785696	1
0	65932	10978.335758867354	0
0	65943	10979.247625069537	1
0	65944	10979.669013971609	0
0	65953	10980.466260696144	1
0	65954	10981.181916223612	0
0	65968	10982.433993383477	1
0	65969	10982.985614070489	0
0	65976	10983.611863259209	1
0	65981	10984.307917574101	0
0	65990	10985.662039585735	1
0	65991	10985.924261949125	0
0	65995	10986.043147671636	1
0	65998	10986.469375346794	0
0	66002	10986.510747319898	1
0	66003	10987.018462689414	0
0	66010	10987.7703079669	1
0	66013	10988.305620540267	0
0	66022	10989.505244651093	1
0	66023	10989.744811212326	0
0	66030	10990.578968186708	1
0	66031	10991.258913331394	0
0	66152	11012.771188195654	1
0	66153	11012.838134563785	0
0	66159	11013.008117328693	1
0	66160	11013.8254869384	0
0	66167	11014.443705489901	1
0	66170	11015.115601016931	0
0	66183	11016.472802775156	1
0	66184	11016.880300645461	0
0	66191	11017.705076479989	1
0	66194	11018.336263560667	0
0	66201	11018.936762593104	1
0	66202	11019.195290138038	0
0	66385	11048.101565596182	1
0	66388	11048.479002704961	0
0	66395	11049.471039180686	1
0	66398	11049.929214757146	0
0	66405	11050.694181668559	1
0	66406	11051.34242068741	0
0	66595	11080.847324133668	1
0	66596	11081.556628096746	0
0	66659	11091.961098535574	1
0	66662	11092.304069896957	0
0	66676	11093.778623326331	1
0	66677	11093.915546703369	0
0	66716	11099.079871011035	1
0	66717	11099.371045541282	0
0	66726	11100.046261243073	1
0	66727	11100.740082580999	0
0	66736	11101.647102781147	1
0	66737	11102.118278285612	0
0	66795	11112.421659909279	1
0	66796	11112.467350951268	0
0	66805	11113.237959375118	1
0	66806	11113.670969424882	0
0	66815	11114.355676089553	1
0	66816	11114.819127462079	0
0	66825	11115.583510539583	1
0	66826	11116.001010088502	0
0	66840	11117.41014708186	1
0	66841	11118.041808105239	0
0	66860	11121.302621225891	1
0	66862	11121.357615430407	2
0	66863	11121.555293003671	1
0	66867	11121.652137548076	2
0	66868	11122.009226177322	1
0	66872	11122.505208309457	2
0	66873	11122.853043341326	1
0	66877	11122.989303385088	2
0	66878	11123.479666350192	1
0	66882	11123.982115958886	2
0	66884	11124.168968740105	3
0	66885	11124.320020526849	2
0	66889	11124.418399537097	3
0	66890	11125.201195047764	2
0	66894	11125.653162430458	3
0	66895	11125.911246325416	2
0	66900	11126.523377177925	1
0	66903	11127.374900294203	0
0	66910	11127.871717669014	1
0	66912	11128.032216116752	2
0	66913	11128.47283731449	1
0	66918	11129.141399177551	0
0	66922	11129.413494917302	1
0	66923	11129.760212745858	0
0	66927	11130.133320953174	1
0	66928	11130.59002192129	0
0	66932	11131.134477042755	1
0	66933	11131.272224535901	0
0	67025	11160.577033838635	1
0	67026	11161.244618613104	0
0	67052	11170.822097624914	1
0	67053	11171.141354391979	0
0	67060	11172.23823018996	1
0	67061	11172.952793066319	0
0	67067	11173.714186875329	1
0	67068	11173.935465163061	0
0	67072	11174.031100698901	1
0	67073	11174.579390157921	0
0	67077	11174.670402733234	1
0	67078	11175.174263029707	0
0	67082	11175.2535812441	1
0	67083	11176.124747623059	0
0	67185	11202.366188694126	1
0	67186	11202.919138294516	0
0	67222	11208.875593244142	1
0	67223	11209.342173284372	0
0	67232	11210.319218934191	1
0	67233	11210.960301957453	0
0	67265	11220.561074859638	1
0	67268	11221.312511164575	0
0	67294	11226.255584408109	1
0	67295	11226.278534678753	0
0	67304	11227.217637400772	1
0	67305	11228.089591811794	0
0	67316	11228.774865576162	1
0	67317	11229.720092766975	0
0	67331	11231.610526546079	1
0	67332	11231.918559396045	0
0	67341	11232.482831923113	1
0	67342	11233.012066762393	0
0	67351	11234.016851103316	1
0	67352	11234.34815743697	0
0	67366	11236.356769322733	1
0	67367	11236.463351633596	0
0	67381	11238.139632734766	1
0	67384	11238.80305340794	0
0	67388	11239.22745084965	1
0	67389	11239.690950131939	0
0	67393	11240.235328639999	1
0	67394	11240.346842599577	0
0	67414	11243.878876040377	1
0	67415	11243.8906267088	0
0	67522	11264.075587743403	1
0	67523	11264.202019607077	0
0	67532	11265.05953762278	1
0	67533	11265.642177034576	0
0	67540	11266.379745367186	1
0	67543	11266.890206249232	0
0	67552	11267.990811498101	1
0	67553	11268.697844067157	0
0	67631	11288.174728322188	1
0	67632	11288.716986756831	0
0	67641	11289.710762666825	1
0	67642	11289.817341412896	0
0	67655	11292.849733582393	1
0	67658	11293.303928969208	0
0	67667	11294.18016398188	1
0	67668	11294.628056951346	0
0	67675	11295.563166111392	1
0	67676	11296.037445377618	0
0	67685	11297.111812933064	1
0	67687	11297.525277758059	2
0	67690	11297.763163741142	1
0	67695	11298.754935339814	0
0	67705	11299.973639125801	1
0	67708	11300.481869170046	0
0	67715	11301.087798617307	1
0	67718	11301.745341243199	0
0	67727	11303.402020034449	1
0	67728	11303.550145500922	0
0	67756	11306.668511953678	1
0	67757	11306.806014726008	0
0	67766	11307.69437481947	1
0	67767	11308.024543957482	0
0	67776	11309.210323306398	1
0	67777	11309.757515767706	0
0	67789	11310.922529369968	1
0	67792	11311.672979562148	0
0	67799	11312.696553600197	1
0	67800	11312.709735540231	0
0	67809	11313.34823661752	1
0	67812	11313.665586232977	0
0	67824	11315.386077786802	1
0	67825	11315.538339137915	0
0	67832	11316.433033638733	1
0	67835	11317.303280912363	0
0	67839	11317.717221889116	1
0	67840	11318.178501725965	0
0	67847	11318.842479653193	1
0	67848	11319.55090936392	0
0	67859	11320.439062938819	1
0	67860	11321.237643485306	0
0	67869	11322.650911830467	1
0	67870	11322.779455055598	0
0	67879	11323.76637667583	1
0	67880	11324.281339303846	0
0	67889	11325.267282098721	1
0	67890	11325.797389773675	0
0	67896	11326.192950751363	1
0	67897	11326.314192261849	0
0	67901	11326.319228839536	1
0	67903	11326.844335443291	2
0	67904	11327.281490220525	1
0	67908	11327.642686815091	2
0	67909	11327.805713893077	1
0	67913	11328.244378367339	2
0	67914	11328.300372756668	1
0	67918	11328.358373582911	2
0	67919	11328.905318269063	1
0	67923	11328.926043372395	2
0	67924	11329.747388874669	1
0	67929	11330.499870964162	0
0	67939	11332.22384915475	1
0	67940	11332.603153099793	0
0	67944	11332.770242394171	1
0	67948	11333.41873863203	2
0	67949	11333.531369625659	1
0	67953	11333.576249204393	2
0	67955	11333.831957410802	3
0	67956	11334.051634769676	2
0	67959	11334.695491470325	1
0	67963	11335.172931967231	2
0	67966	11335.590620324177	1
0	67969	11336.404465938148	0
0	67973	11336.610416039962	1
0	67974	11337.389928079045	0
0	67978	11337.814533293686	1
0	67979	11338.057075005046	0
0	67986	11338.91135555862	1
0	67988	11339.368762438529	2
0	67989	11339.49246491275	1
0	67997	11339.726219313785	2
0	67998	11339.892680573391	1
0	68002	11340.266595230643	2
0	68003	11340.365603634037	1
0	68007	11340.468015967227	2
0	68010	11341.26526320453	1
0	68014	11341.523606263205	2
0	68015	11342.080252740134	1
0	68018	11342.511006706322	0
0	68036	11345.77305417128	1
0	68037	11345.941606350311	0
0	68044	11346.886693545082	1
0	68045	11347.199430934315	0
0	68061	11348.811704229823	1
0	68063	11349.128255226787	2
0	68064	11349.664165396917	1
0	68067	11350.640030986791	0
0	68071	11350.74847056989	1
0	68073	11350.923788464939	2
0	68076	11351.42769183826	1
0	68081	11352.191364536689	0
0	68088	11352.83135659254	1
0	68090	11352.897536263656	2
0	68093	11353.463442143028	1
0	68098	11353.900737059092	0
0	68102	11354.663658362515	1
0	68103	11354.770194124313	0
0	68110	11356.038963645571	1
0	68111	11356.191537595376	0
0	68117	11356.76568190613	1
0	68118	11356.844384776497	0
0	68122	11357.425258343371	1
0	68123	11357.778713332372	0
0	68127	11357.976358970612	1
0	68129	11358.436318195376	2
0	68130	11358.744304145895	1
0	68134	11358.919084504414	2
0	68135	11359.161817039991	1
0	68138	11359.615226750937	0
0	68142	11360.019365145264	1
0	68144	11360.259940327165	2
0	68145	11360.265452037123	1
0	68149	11360.457582859585	2
0	68150	11360.769796669693	1
0	68153	11361.387760621752	0
0	68157	11361.447478032286	1
0	68159	11362.259585146817	2
0	68160	11362.308042375674	1
0	68164	11362.535391945233	2
0	68165	11363.307764607366	1
0	68168	11363.99863880945	0
0	68175	11364.477219948266	1
0	68176	11365.364710011637	0
0	68182	11365.589429500617	1
0	68184	11365.73380062068	2
0	68185	11365.814048316075	1
0	68189	11366.157874180939	2
0	68190	11366.800477096463	1
0	68193	11367.72596257867	0
0	68200	11368.973348347375	1
0	68201	11369.082525126521	0
0	68211	11370.396878835037	1
0	68214	11371.039839599213	0
0	68221	11372.166768850738	1
0	68222	11372.17119210649	0
0	68229	11372.793547034516	1
0	68230	11373.702156476236	0
0	68370	11405.795453411085	1
0	68371	11406.21524647505	0
0	68530	11456.056764654953	1
0	68531	11456.835751041216	0
0	68545	11459.817707490768	1
0	68546	11460.371379777517	0
0	68585	11466.802780273263	1
0	68586	11467.347939647326	0
0	68685	11485.782008193835	1
0	68686	11486.117969298769	0
0	68700	11488.237837930416	1
0	68701	11489.128126699426	0
0	68715	11491.337936374201	1
0	68716	11491.57322963793	0
0	68720	11491.710681134499	1
0	68721	11492.422548850255	0
0	68730	11493.693106188164	1
0	68731	11494.529628014696	0
0	68735	11494.727631849641	1
0	68736	11494.984795972464	0
0	68740	11495.139494552351	1
0	68741	11495.65989168062	0
0	68760	11498.881751345724	1
0	68761	11499.163273591645	0
0	68785	11513.20055286541	1
0	68786	11513.312495436857	0
0	68797	11514.538380874704	1
0	68798	11515.086112003599	0
0	68807	11516.666562032515	1
0	68808	11516.827362464939	0
0	68817	11517.839871902049	1
0	68818	11518.488051814597	0
0	68827	11519.464815927158	1
0	68828	11519.91307424769	0
0	68835	11521.492972514221	1
0	68836	11521.643655394122	0
0	68870	11528.454572790868	1
0	68871	11528.919461578515	0
0	68885	11531.411520866882	1
0	68886	11531.923313413298	0
0	68910	11538.10855345167	1
0	68911	11538.616586856448	0
0	68920	11539.682129333724	1
0	68921	11540.102541626149	0
0	68930	11541.248258630883	1
0	68931	11541.921464296531	0
0	68937	11542.107242953999	1
0	68940	11542.764325326223	0
0	68952	11544.203937006561	1
0	68953	11544.245174576397	0
0	68962	11545.073095940853	1
0	68963	11545.676757372412	0
0	68975	11547.085375232805	1
0	68976	11547.257051504691	0
0	68980	11547.263548222508	1
0	68981	11548.184354464858	0
0	68985	11548.488907706751	1
0	68989	11548.957630203064	2
0	68990	11549.006208891896	1
0	68994	11549.314412492491	2
0	68995	11549.556280486341	1
0	68999	11549.835475257805	2
0	69002	11550.498552647288	1
0	69006	11551.229948521805	2
0	69007	11551.420371024785	1
0	69010	11552.266980733964	0
0	69017	11552.952336205837	1
0	69018	11553.625800438374	0
0	69027	11554.417942974418	1
0	69028	11554.768847940498	0
0	69045	11557.560224856255	1
0	69048	11558.18352595984	0
0	69080	11562.936357669298	1
0	69087	11563.482378588994	0
0	69096	11564.27986465712	1
0	69097	11564.855099732759	0
0	69110	11566.70333316633	1
0	69113	11567.565096857962	0
0	69120	11568.575594051394	1
0	69121	11568.65727164797	0
0	69132	11569.538958844241	1
0	69133	11569.918230824736	0
0	69149	11571.911445961522	1
0	69150	11572.203904016181	0
0	69195	11580.304240923248	1
0	69196	11580.525082125325	0
0	69219	11583.006579960982	1
0	69222	11583.24988315431	0
0	69226	11583.423630801215	1
0	69227	11583.891969428533	0
0	69239	11585.368330873729	1
0	69241	11585.426999989236	2
0	69243	11585.625045967191	3
0	69244	11585.809904693482	2
0	69247	11586.467975204806	1
0	69250	11587.08571595293	0
0	69254	11587.159004234251	1
0	69259	11587.802503876523	0
0	69265	11588.432317028451	1
0	69266	11588.526386002679	0
0	69270	11588.563730839767	1
0	69271	11588.982897162805	0
0	69278	11589.796191963655	1
0	69279	11590.310279438826	0
0	69288	11591.261149757844	1
0	69289	11591.99609508649	0
0	69296	11592.943261669274	1
0	69297	11593.688601771365	0
0	69304	11595.061956543541	1
0	69305	11595.26535071502	0
0	69314	11595.867023420745	1
0	69317	11596.429924093509	0
0	69326	11597.140501400288	1
0	69330	11597.319912234288	2
0	69331	11597.503023119034	1
0	69335	11598.117579207329	2
0	69336	11598.170252753185	1
0	69340	11598.771038725942	2
0	69341	11598.837046831796	1
0	69345	11599.094967839056	2
0	69346	11599.835812614296	1
0	69350	11600.271603633757	2
0	69351	11600.564906394944	1
0	69354	11601.258078675574	0
0	69361	11602.040102608192	1
0	69363	11602.264765659901	2
0	69365	11602.323603546694	3
0	69366	11602.544663920343	2
0	69371	11603.271459361348	1
0	69375	11603.342171596851	2
0	69376	11604.00992868654	1
0	69379	11604.578213040107	0
0	69383	11604.70968326957	1
0	69385	11604.74247989975	2
0	69388	11605.566283644778	1
0	69392	11605.840285792956	2
0	69393	11606.201042993595	1
0	69397	11606.665412979484	2
0	69398	11607.13774098665	1
0	69402	11607.258870535904	2
0	69403	11607.619358168957	1
0	69407	11607.704046443732	2
0	69408	11608.130419713953	1
0	69411	11609.078357800045	0
0	69415	11609.243131394217	1
0	69417	11609.39973750581	2
0	69418	11609.71855272478	1
0	69422	11610.315807521224	2
0	69423	11610.468244457054	1
0	69427	11610.687591464156	2
0	69428	11610.893266840554	1
0	69432	11611.293629019256	2
0	69433	11611.349317048392	1
0	69437	11611.813068186627	2
0	69438	11611.879102718453	1
0	69442	11612.214708160071	2
0	69443	11612.814189650766	1
0	69447	11612.930843281226	2
0	69448	11613.620959649184	1
0	69451	11614.200932279225	0
0	69458	11615.057936474413	1
0	69459	11615.376750102635	0
0	69463	11615.393675222693	1
0	69466	11615.867504586601	0
0	69473	11616.988983287737	1
0	69474	11617.299233331946	0
0	69478	11617.746337965895	1
0	69479	11618.145837264457	0
0	69483	11618.220165374205	1
0	69486	11618.640344099743	0
0	69493	11619.992697261716	1
0	69495	11620.188926510701	2
0	69496	11620.470233764914	1
0	69501	11621.451679873509	0
0	69505	11621.739867051633	1
0	69506	11621.994570861799	0
0	69547	11629.771697433318	1
0	69548	11629.792262682453	0
0	69576	11633.006640595985	1
0	69577	11633.440804084758	0
0	69584	11634.889473357351	1
0	69587	11635.238005001047	0
0	69963	11698.164379993138	1
0	69964	11698.338595697035	0
0	69973	11699.784718512273	1
0	69974	11699.94302709604	0
0	69978	11700.390561150434	1
0	69979	11700.719618466574	0
0	69983	11700.731264421801	1
0	69984	11701.656119349257	0
0	69991	11702.459375766226	1
0	69992	11702.954136821658	0
0	69999	11703.919651265244	1
0	70000	11704.0094866013	0
0	70070	11720.29034219937	1
0	70071	11720.73211119473	0
0	70085	11722.973910837112	1
0	70086	11723.328201010155	0
0	70135	11736.851828499951	1
0	70136	11737.028589630327	0
0	70140	11737.129213475312	1
0	70141	11738.016641602726	0
0	70145	11738.124458656046	1
0	70146	11738.936635105093	0
0	70150	11738.997746667047	1
0	70152	11739.295610426932	2
0	70153	11739.742512044278	1
0	70157	11739.983104654815	2
0	70158	11740.513987116623	1
0	70162	11740.852675390463	2
0	70163	11741.490111347162	1
0	70167	11741.964234908473	2
0	70168	11742.406304131276	1
0	70172	11742.508578324838	2
0	70173	11743.048625668199	1
0	70179	11743.190984369135	2
0	70182	11743.659726646743	1
0	70186	11744.107575383644	2
0	70188	11744.228240787624	3
0	70189	11744.609263614672	2
0	70193	11744.780664062724	3
0	70196	11745.338184487833	2
0	70202	11745.788425983533	3
0	70205	11746.288318910277	2
0	70209	11746.850188879837	3
0	70210	11747.186163319568	2
0	70213	11747.6034122178	1
0	70217	11747.688801086023	2
0	70218	11748.421022468307	1
0	70222	11748.718429952297	2
0	70223	11749.371855873442	1
0	70226	11749.850371779515	0
0	70230	11749.919896286287	1
0	70232	11750.120538659688	2
0	70233	11750.565098726251	1
0	70237	11750.677379506817	2
0	70238	11751.011799767674	1
0	70242	11751.19892590978	2
0	70243	11751.848054187573	1
0	70247	11752.330052499461	2
0	70248	11752.782045792337	1
0	70252	11752.868698753715	2
0	70253	11753.416507805014	1
0	70256	11753.998641428133	0
0	70260	11754.374982810778	1
0	70261	11754.427463769648	0
0	70265	11754.571602363263	1
0	70267	11754.68589253733	2
0	70268	11755.370392849823	1
0	70272	11755.467791035674	2
0	70273	11755.876640894977	1
0	70277	11756.202498645289	2
0	70278	11756.486840586612	1
0	70281	11756.891761516888	0
0	70288	11757.689443350538	1
0	70290	11757.71798916942	2
0	70291	11757.817298919071	1
0	70298	11758.798909960889	0
0	70302	11759.206723525726	1
0	70303	11759.40528931461	0
0	70307	11759.444860768671	1
0	70309	11759.500346003929	2
0	70311	11760.313379415612	3
0	70312	11760.385992453263	2
0	70316	11760.610125744344	3
0	70317	11760.868109994816	2
0	70321	11760.901937617662	3
0	70322	11761.365337863813	2
0	70325	11762.003537327439	1
0	70331	11762.469975632402	2
0	70332	11762.891525796537	1
0	70336	11763.335163816986	2
0	70337	11763.516730832976	1
0	70340	11764.419560335871	0
0	70344	11764.922335229562	1
0	70345	11765.293759651544	0
0	70349	11765.492462724297	1
0	70350	11766.154896157111	0
0	70357	11767.015857166363	1
0	70359	11767.238077293032	2
0	70360	11767.342621015028	1
0	70363	11767.803388643467	0
0	70367	11768.271075897015	1
0	70368	11768.576285203329	0
0	70372	11768.711126074136	1
0	70373	11769.308403809151	0
0	70377	11769.477048751957	1
0	70378	11769.92097201456	0
0	70387	11770.385216410095	1
0	70388	11770.8078608961	0
0	70395	11771.435945518651	1
0	70397	11771.898748583721	2
0	70400	11772.393966896895	1
0	70403	11773.069547070114	0
0	70412	11774.376853963657	1
0	70413	11774.733151339756	0
0	70417	11775.506466827298	1
0	70418	11775.637528572248	0
0	70430	11777.174500865161	1
0	70431	11777.519498308438	0
0	70440	11778.238465308857	1
0	70442	11778.315030864317	2
0	70443	11778.874258428874	1
0	70448	11779.800144027375	0
0	70452	11780.0892933311	1
0	70453	11780.491376734633	0
0	70463	11781.930941338825	1
0	70467	11782.076158954811	2
0	70468	11782.102617038382	1
0	70473	11782.725335276887	0
0	70477	11783.250665354715	1
0	70478	11783.28933547448	0
0	70482	11783.53841344732	1
0	70483	11783.940024618819	0
0	70490	11785.04823385993	1
0	70491	11785.147084554532	0
0	70500	11785.701643662601	1
0	70501	11786.267698260923	0
0	70508	11787.210585213832	1
0	70509	11787.891020529126	0
0	70720	11846.149665008575	1
0	70723	11846.526612999472	0
0	70732	11847.300264644824	1
0	70733	11848.013449556842	0
0	70740	11848.846296939526	1
0	70741	11849.210363768037	0
0	70750	11850.217861995942	1
0	70751	11850.525111347898	0
0	70790	11860.325512950394	1
0	70791	11860.938249553632	0
0	70805	11862.762674597148	1
0	70806	11862.959328291183	0
0	70840	11868.746181903697	1
0	70841	11869.449431408081	0
0	70877	11875.569108497782	1
0	70878	11875.584141056729	0
0	70885	11876.257373453968	1
0	70887	11876.302806494444	2
0	70892	11877.036023774767	1
0	70897	11877.84661793171	0
0	70901	11877.937905459139	1
0	70902	11878.53030918336	0
0	70909	11879.297358107422	1
0	70910	11879.398320187931	0
0	70919	11880.753482262769	1
0	70921	11880.927633865209	2
0	70922	11881.224430211983	1
0	70927	11881.792610626598	0
0	70931	11881.824370374793	1
0	70933	11882.002378073317	2
0	70936	11882.737279274105	1
0	70939	11883.234221797273	0
0	70943	11883.473237845675	1
0	70945	11883.517871272113	2
0	70947	11883.742965766662	3
0	70948	11884.101295654685	2
0	70951	11885.018368220678	1
0	70955	11885.524671772881	2
0	70956	11885.868409528234	1
0	70959	11886.276427152078	0
0	70963	11886.564358601985	1
0	70964	11886.68692398991	0
0	70968	11886.899355492088	1
0	70970	11887.23363191866	2
0	70972	11887.527917060495	3
0	70973	11887.655682802969	2
0	70976	11888.353212131118	1
0	70979	11889.043315335573	0
0	70983	11889.135001143113	1
0	70985	11889.181832135556	2
0	70986	11889.554054171848	1
0	70989	11890.507907706615	0
0	70993	11890.915563518139	1
0	70994	11890.919470832892	0
0	70998	11891.105142505862	1
0	71000	11891.181577357635	2
0	71003	11891.681318512162	1
0	71007	11891.918923805491	2
0	71008	11892.121351293357	1
0	71011	11893.010089533193	0
0	71017	11893.206345237297	1
0	71018	11893.779515658667	0
0	71025	11894.692889674076	1
0	71027	11895.188598575884	2
0	71028	11895.358251316635	1
0	71033	11896.074062092066	0
0	71037	11896.289655923218	1
0	71038	11896.782157837622	0
0	71042	11896.813088210244	1
0	71043	11897.763981852284	0
0	71055	11899.126494772305	1
0	71059	11899.281801781955	2
0	71060	11899.683441734011	1
0	71063	11900.133620122517	0
0	71067	11900.37763320595	1
0	71070	11900.892708379519	0
0	71074	11901.028720112977	1
0	71075	11901.825125921122	0
0	71079	11901.852187207826	1
0	71080	11902.243906525825	0
0	71087	11903.361761631738	1
0	71088	11903.668607815378	0
0	71105	11906.856698147488	1
0	71106	11907.090197743311	0
0	71252	11927.084771829791	1
0	71253	11927.287568322822	0
0	71262	11928.419900571667	1
0	71263	11928.424019302495	0
0	71354	11946.513842901196	1
0	71355	11946.941008635088	0
0	71467	11966.319923616352	1
0	71468	11966.761268102777	0
0	71477	11967.834554407639	1
0	71480	11968.181241613234	0
0	71487	11969.724126847213	1
0	71490	11969.938924763332	0
0	71497	11970.455368961677	1
0	71498	11971.017583461924	0
0	71575	11981.929888878863	1
0	71578	11982.17472007369	0
0	71675	11995.017319249109	1
0	71676	11995.233075156307	0
0	71685	11996.234391089769	1
0	71686	11996.603942535876	0
0	71698	11998.051228122482	1
0	71699	11998.730064050213	0
0	71709	12000.254565374982	1
0	71710	12000.550870301074	0
0	71717	12001.1398501225	1
0	71719	12001.808281726619	2
0	71720	12002.015185249422	1
0	71725	12002.986373634648	0
0	71733	12003.397060108928	1
0	71735	12003.449783526597	2
0	71737	12003.814089305018	3
0	71738	12003.841522528243	2
0	71742	12004.059923872117	3
0	71743	12004.260274746374	2
0	71747	12004.394914893505	3
0	71748	12005.140900244529	2
0	71751	12005.812425211503	1
0	71755	12006.062970535857	2
0	71757	12006.485515594782	3
0	71758	12006.781064110541	2
0	71762	12006.900133516458	3
0	71763	12007.294401058381	2
0	71767	12007.56521604471	3
0	71768	12008.256898454403	2
0	71772	12008.6059193467	3
0	71773	12008.793736469339	2
0	71777	12008.831816563479	3
0	71779	12009.087511024584	4
0	71780	12009.234369449842	3
0	71783	12009.771700073838	2
0	71786	12010.462207591267	1
0	71789	12010.916936300987	0
0	71796	12011.905061059383	1
0	71798	12011.949458745553	2
0	71800	12012.497359246571	3
0	71801	12012.697129462347	2
0	71804	12013.18447119255	1
0	71808	12013.44337438592	2
0	71809	12013.612949435566	1
0	71813	12013.678126407594	2
0	71816	12014.027799572111	1
0	71819	12014.805569232874	0
0	71823	12014.842911959506	1
0	71824	12015.745638815327	0
0	71828	12015.993764417048	1
0	71829	12016.150542268357	0
0	71907	12028.090634755158	1
0	71908	12028.46271807697	0
0	71917	12029.099263003643	1
0	71918	12029.638875017653	0
0	71927	12030.546357218735	1
0	71928	12031.19974370884	0
0	71937	12032.460643886106	1
0	71938	12032.90674147174	0
0	71947	12033.850725875595	1
0	71948	12034.226921053894	0
0	72080	12071.134610599339	1
0	72081	12071.638280303911	0
0	72135	12081.233789303893	1
0	72138	12081.778249306154	0
0	72145	12082.825610846315	1
0	72146	12083.228692990696	0
0	72157	12084.288219642429	1
0	72158	12085.046394809723	0
0	72444	12127.241816408775	1
0	72445	12127.54919334461	0
0	72452	12128.389179664594	1
0	72453	12129.035774928397	0
0	72464	12130.086062609148	1
0	72467	12130.588708766755	0
0	72478	12131.564921044648	1
0	72479	12132.443682057243	0
0	72491	12134.223802401927	1
0	72492	12134.857001066786	0
0	72499	12135.994396353076	1
0	72501	12136.569841009361	2
0	72502	12136.614817244812	1
0	72512	12137.340421350171	2
0	72513	12137.613502960718	1
0	72516	12138.130888289	0
0	72520	12138.767639975044	1
0	72522	12138.913444051256	2
0	72523	12138.951612274182	1
0	72527	12138.979097408705	2
0	72528	12139.594581636666	1
0	72532	12139.733177812223	2
0	72533	12140.234242913146	1
0	72537	12140.770736079037	2
0	72538	12141.14540307561	1
0	72542	12141.384159112354	2
0	72544	12141.452966535056	3
0	72545	12141.967268229109	2
0	72549	12142.1952384828	3
0	72550	12142.704865093875	2
0	72554	12143.116208041098	3
0	72555	12143.297352921237	2
0	72559	12143.34748058057	3
0	72560	12143.84529198601	2
0	72564	12144.090990510603	3
0	72565	12144.499614142227	2
0	72569	12144.838473995889	3
0	72570	12144.937899224666	2
0	72573	12145.932450753749	1
0	72576	12146.463132602787	0
0	72580	12146.590895710482	1
0	72582	12146.930254197346	2
0	72584	12147.399986632555	3
0	72585	12147.453686411651	2
0	72591	12148.167765215989	3
0	72592	12148.328841860518	2
0	72596	12148.343786855789	3
0	72597	12149.031307394682	2
0	72601	12149.660215646832	3
0	72602	12149.738803182049	2
0	72606	12149.967871546458	3
0	72607	12150.254580910476	2
0	72610	12150.872266107816	1
0	72614	12150.980554586214	2
0	72615	12151.490467367619	1
0	72619	12151.510145425655	2
0	72620	12152.156940250722	1
0	72623	12152.689825400216	0
0	72627	12153.084909453466	1
0	72628	12153.138872999297	0
0	72637	12154.29343331946	1
0	72638	12154.946838267584	0
0	72647	12155.864118935303	1
0	72648	12156.605778308044	0
0	72652	12156.780648711814	1
0	72653	12157.341600253683	0
0	72657	12157.662749210641	1
0	72658	12157.821363451628	0
0	72664	12158.294152487674	1
0	72665	12158.359168512158	0
0	72669	12158.397945494988	1
0	72670	12158.903407525614	0
0	72680	12160.352962427162	1
0	72681	12160.899727491352	0
0	72685	12160.935754635709	1
0	72686	12161.660734855633	0
0	72690	12161.914004575733	1
0	72691	12162.308733509218	0
0	72695	12162.613628563165	1
0	72698	12163.127133718475	0
0	72702	12163.522115004699	1
0	72705	12163.881676995351	0
0	72709	12164.060240246487	1
0	72710	12164.333718628266	0
0	72714	12164.425773169232	1
0	72715	12165.142168500616	0
0	72722	12166.224484855903	1
0	72724	12166.642469458594	2
0	72725	12166.889108794524	1
0	72729	12166.974839772151	2
0	72732	12167.387753316077	1
0	72738	12167.570901182646	2
0	72739	12168.28335664991	1
0	72743	12168.439865896701	2
0	72746	12168.936271757695	1
0	72750	12169.173597297377	2
0	72751	12169.370853588606	1
0	72755	12169.556720947364	2
0	72756	12170.18329884947	1
0	72759	12170.60098483755	0
0	72765	12170.941715032565	1
0	72766	12171.374555521614	0
0	72770	12171.603252896917	1
0	72772	12171.717675867194	2
0	72773	12172.367003767301	1
0	72777	12172.573101252819	2
0	72778	12172.87856849834	1
0	72782	12173.076858609979	2
0	72783	12173.606603299981	1
0	72787	12173.79921781385	2
0	72788	12174.444607993417	1
0	72792	12174.857933731743	2
0	72793	12175.188624555167	1
0	72798	12175.991726573106	0
0	72807	12176.554601766699	1
0	72809	12177.193134495039	2
0	72810	12177.434259247003	1
0	72817	12178.042229828765	0
0	72821	12178.365363963908	1
0	72822	12178.988730023397	0
0	72829	12179.665904916118	1
0	72830	12179.934397690898	0
0	72837	12180.839527236617	1
0	72838	12181.196374460186	0
0	72850	12183.03993998479	1
0	72851	12183.372968576492	0
0	72855	12183.67634725331	1
0	72856	12184.253281139645	0
0	72865	12185.036371180077	1
0	72867	12185.172185273729	2
0	72868	12185.742530645493	1
0	72871	12186.599509126942	0
0	72875	12186.755584798665	1
0	72878	12187.037214635701	0
0	72885	12188.497038902748	1
0	72887	12188.515570722753	2
0	72888	12188.606742698575	1
0	72893	12189.09865236987	0
0	72897	12189.557394427204	1
0	72900	12189.745724514701	0
0	72904	12190.005737561323	1
0	72906	12190.048185397903	2
0	72907	12190.223051292604	1
0	72910	12190.897352796016	0
0	72914	12191.301381860095	1
0	72915	12191.595526993848	0
0	72997	12203.956259503545	1
0	73000	12204.421547176888	0
0	73071	12214.644880761795	1
0	73072	12214.669488959213	0
0	73161	12229.173028975983	1
0	73162	12229.415765941203	0
0	73242	12245.263414314209	1
0	73243	12245.352944178234	0
0	73250	12246.267331324466	1
0	73253	12247.069395186899	0
0	73257	12247.072338032792	1
0	73260	12247.735710771715	0
0	73270	12248.959369946668	1
0	73272	12248.971464854912	2
0	73273	12249.291606939173	1
0	73276	12250.117982114394	0
0	73282	12250.513067850601	1
0	73283	12250.98032798875	0
0	73287	12251.352857290478	1
0	73288	12251.399648469601	0
0	73292	12251.463314477535	1
0	73298	12252.107548698724	2
0	73299	12252.247283694854	1
0	73303	12252.348936174149	2
0	73306	12252.888399941482	1
0	73309	12253.456452551632	0
0	73316	12254.287022123181	1
0	73317	12255.004039051066	0
0	73321	12255.123853801489	1
0	73322	12255.612443069982	0
0	73328	12255.842030902776	1
0	73330	12255.856822840466	2
0	73331	12256.563406006395	1
0	73334	12257.10463775658	0
0	73338	12257.467443645868	1
0	73339	12258.046432331074	0
0	73348	12258.635772437666	1
0	73350	12258.904952114952	2
0	73351	12259.43203419243	1
0	73354	12260.397186959172	0
0	73358	12260.480595811745	1
0	73359	12261.378665948157	0
0	73366	12262.300801454493	1
0	73367	12262.945346991868	0
0	73373	12263.612042796739	1
0	73374	12263.856226351076	0
0	73378	12263.92821428158	1
0	73379	12264.345135470071	0
0	73383	12264.940384879785	1
0	73384	12265.14373708061	0
0	73388	12265.515374172534	1
0	73389	12266.058398969621	0
0	73398	12266.852735417487	1
0	73399	12267.643918355238	0
0	73403	12267.652576069491	1
0	73406	12268.308626523903	0
0	73410	12268.370321637399	1
0	73411	12268.807290317407	0
0	73418	12270.041736436675	1
0	73419	12270.255694411379	0
0	73428	12271.202248891123	1
0	73429	12271.620104654795	0
0	73438	12272.431769069214	1
0	73439	12273.203806524455	0
0	73456	12275.081166250028	1
0	73459	12275.923582215246	0
0	73470	12277.127973168831	1
0	73471	12277.370355710678	0
0	73487	12278.827239594202	1
0	73488	12279.080462996719	0
0	73589	12294.017086554573	1
0	73590	12294.272917152951	0
0	73640	12302.337070179653	1
0	73641	12303.156031660449	0
0	73650	12303.979538769702	1
0	73651	12304.715141799015	0
0	73655	12304.814513751085	1
0	73658	12305.603054159314	0
0	73662	12305.760770200752	1
0	73663	12306.284673809207	0
0	73667	12306.665538494436	1
0	73668	12307.209260444895	0
0	73675	12308.223034851662	1
0	73677	12308.373504886579	2
0	73678	12308.502070244348	1
0	73682	12309.055819126788	2
0	73683	12309.440917806506	1
0	73687	12309.564909657763	2
0	73688	12310.003016776817	1
0	73692	12310.028371837202	2
0	73695	12310.428229769824	1
0	73699	12310.536453649494	2
0	73700	12311.381855744442	1
0	73703	12312.321674396463	0
0	73710	12313.106150833663	1
0	73712	12313.447804337257	2
0	73713	12313.554764190262	1
0	73718	12314.271216717448	0
0	73722	12314.477607375895	1
0	73723	12315.127642764423	0
0	73727	12315.49293039505	1
0	73728	12316.023963675501	0
0	73732	12316.100539145335	1
0	73737	12316.698905888099	0
0	73744	12317.855514606531	1
0	73745	12318.571235078659	0
0	73752	12319.629483197786	1
0	73753	12319.690541108132	0
0	73762	12320.432815462557	1
0	73765	12320.67880606646	0
0	73774	12322.330400428006	1
0	73775	12322.564087871083	0
0	73872	12337.199033485496	1
0	73877	12337.642217391664	0
0	73883	12338.006250566505	1
0	73884	12338.256975283362	0
0	73891	12339.371563162513	1
0	73893	12339.999325463216	2
0	73894	12340.008558171364	1
0	73899	12340.464775509742	0
0	73903	12340.922031417859	1
0	73904	12341.037534956244	0
0	73908	12341.295357384151	1
0	73909	12341.629467577656	0
0	73913	12341.995223967655	1
0	73914	12342.562804007187	0
0	73921	12343.294139223623	1
0	73923	12343.474511284375	2
0	73924	12343.741787872958	1
0	73927	12344.302410330513	0
0	73939	12345.570212607501	1
0	73940	12346.22315914401	0
0	73949	12347.545867592788	1
0	73950	12347.841571912897	0
0	73961	12348.442259148467	1
0	73962	12348.915824041172	0
0	74192	12385.721692584794	1
0	74193	12385.792507098738	0
0	74204	12386.371456084519	1
0	74209	12387.331878804305	0
0	74262	12395.630994929608	1
0	74263	12396.130018462668	0
0	74272	12397.154470827028	1
0	74275	12397.600502102551	0
0	74279	12398.189186357875	1
0	74280	12398.328423679768	0
0	74289	12399.718434824559	1
0	74290	12399.889134758905	0
0	74309	12402.560861538246	1
0	74310	12402.85349897892	0
0	74314	12402.875163067071	1
0	74315	12403.301123190585	0
0	74326	12403.944207191056	1
0	74327	12404.564966962307	0
0	74337	12405.845088802241	1
0	74340	12406.115355644242	0
0	74350	12407.401563258133	1
0	74352	12407.817722385546	2
0	74355	12408.047102373566	1
0	74362	12408.743029123039	0
0	74368	12409.010792794631	1
0	74369	12409.219706238906	0
0	74373	12409.711109949375	1
0	74374	12409.813078575262	0
0	74388	12411.521216715194	1
0	74389	12412.075668585959	0
0	74416	12415.680735452864	1
0	74417	12415.919207516784	0
0	74427	12417.468490980908	1
0	74430	12417.911355023929	0
0	74502	12429.371153735298	1
0	74503	12429.569915497191	0
0	74515	12431.271470817453	1
0	74518	12431.875026955344	0
0	74529	12432.767635467346	1
0	74530	12433.034032295207	0
0	74635	12449.040852269102	1
0	74636	12449.481015412091	0
0	74652	12455.984370195006	1
0	74653	12456.342503916488	0
0	74660	12457.044686083015	1
0	74661	12457.350207508371	0
0	74670	12458.261405328318	1
0	74672	12458.606316999079	2
0	74673	12458.7225500927	1
0	74678	12459.356876540666	0
0	74682	12459.374346641959	1
0	74683	12460.15344007734	0
0	74687	12460.389066437659	1
0	74688	12460.930092725454	0
0	74692	12460.983150264322	1
0	74693	12461.89725188596	0
0	74699	12462.379603068805	1
0	74700	12462.458550215064	0
0	74704	12462.611930741059	1
0	74705	12463.073146729282	0
0	74712	12464.396287842502	1
0	74713	12464.744696193626	0
0	74780	12478.685221480178	1
0	74781	12478.842227767049	0
0	74795	12481.273447576226	1
0	74796	12481.514064733756	0
0	74800	12481.757186639817	1
0	74801	12481.989452081059	0
0	74805	12482.25676003969	1
0	74808	12482.744406176942	0
0	74812	12483.294441561055	1
0	74813	12483.415654791311	0
0	74820	12483.95821836666	1
0	74822	12484.602110685047	2
0	74823	12484.725887144568	1
0	74828	12485.552727751645	0
0	74832	12485.941590591794	1
0	74833	12486.505177556515	0
0	74840	12487.406518717568	1
0	74841	12488.344568115357	0
0	74850	12489.476609677212	1
0	74851	12489.752333452996	0
0	74860	12490.706872392401	1
0	74861	12491.618991974393	0
0	74889	12498.833757661854	1
0	74890	12498.994182349802	0
0	74897	12499.808527867897	1
0	74900	12500.494230741649	0
0	75014	12522.468089245336	1
0	75015	12522.731733293088	0
0	75029	12524.389512981489	1
0	75030	12524.643669775783	0
0	75042	12526.059813150837	1
0	75043	12526.597066123508	0
0	75052	12527.742190854536	1
0	75053	12528.244346657259	0
0	75095	12538.137197973765	1
0	75096	12538.55505579692	0
0	75370	12589.337807789306	1
0	75371	12589.989754541447	0
0	75380	12591.166805724916	1
0	75381	12591.369706867565	0
0	75670	12658.091112747583	1
0	75671	12658.476549434828	0
0	75680	12659.274372878072	1
0	75681	12659.800683106309	0
0	75862	12723.842263715105	1
0	75863	12724.257387276888	0
0	75872	12725.667272198517	1
0	75875	12726.033325677188	0
0	76045	12752.812150381251	1
0	76046	12752.947424418362	0
0	76145	12795.558790405438	1
0	76146	12796.364657964952	0
0	76170	12799.587306598273	1
0	76171	12799.950607885422	0
0	76175	12800.124011374779	1
0	76182	12800.567826684752	0
0	76186	12800.712459315639	1
0	76187	12801.426314121812	0
0	76191	12801.563037481906	1
0	76192	12802.028274463118	0
0	76199	12803.155332243305	1
0	76200	12803.78521254263	0
0	76255	12811.999393348185	1
0	76256	12812.337645577082	0
0	76265	12813.33303981902	1
0	76266	12813.680947483612	0
0	76270	12813.809289536458	1
0	76271	12814.24537694459	0
0	76275	12814.278146341923	1
0	76276	12815.110057515652	0
0	76280	12815.159064902912	1
0	76281	12815.889178481001	0
0	76287	12816.489397574059	1
0	76288	12816.846710188642	0
0	76300	12818.658830520898	1
0	76304	12819.040487450211	2
0	76305	12819.407450051695	1
0	76308	12819.970385135287	0
0	76312	12820.437707428667	1
0	76313	12820.446123223608	0
0	76322	12821.083921091632	1
0	76323	12821.868458610071	0
0	76327	12822.032519499832	1
0	76330	12822.811541508787	0
0	76337	12824.01318895032	1
0	76338	12824.155455767547	0
0	76345	12825.284398688735	1
0	76346	12825.353197516219	0
0	76420	12841.989213364423	1
0	76423	12842.499869550053	0
0	76427	12842.66093579802	1
0	76428	12843.0968250641	0
0	76432	12843.352657158206	1
0	76435	12843.738659821717	0
0	76439	12844.195688029671	1
0	76440	12844.571349879481	0
0	76447	12845.599748976713	1
0	76448	12846.002512879191	0
0	76455	12846.627014400069	1
0	76456	12847.08387142805	0
0	76585	12881.814809914241	1
0	76586	12881.953359942652	0
0	76595	12882.853716050658	1
0	76596	12883.825107383311	0
0	76615	12886.446740502537	1
0	76616	12887.075598262917	0
0	76635	12889.67020763937	1
0	76636	12890.155205224521	0
0	76640	12890.453939638609	1
0	76641	12891.096563039973	0
0	76645	12891.714398762166	1
0	76646	12891.982639811394	0
0	76660	12895.392459437014	1
0	76661	12895.810538772239	0
0	76665	12895.946139259652	1
0	76668	12896.503718879192	0
0	76672	12896.553970048802	1
0	76673	12896.928523154954	0
0	76677	12897.441375735783	1
0	76678	12897.91419337995	0
0	76682	12898.224853485629	1
0	76684	12898.368402186907	2
0	76685	12898.651118565375	1
0	76689	12898.999910093995	2
0	76690	12899.489344921593	1
0	76693	12900.344833305736	0
0	76697	12900.608932236756	1
0	76699	12900.977551832686	2
0	76700	12901.004436846615	1
0	76704	12901.309562997496	2
0	76705	12901.558310085654	1
0	76709	12901.814325191437	2
0	76710	12902.136252323145	1
0	76713	12902.663667218832	0
0	76717	12903.55022671052	1
0	76718	12903.657690546641	0
0	76722	12904.167410795408	1
0	76723	12904.366864166388	0
0	76727	12904.500936385151	1
0	76729	12904.911265327084	2
0	76730	12905.074912745578	1
0	76734	12905.23774092492	2
0	76735	12905.756949937742	1
0	76739	12906.184177594154	2
0	76740	12906.412728337597	1
0	76744	12906.541581621352	2
0	76745	12907.330998784842	1
0	76749	12907.659937884351	2
0	76750	12908.208866383441	1
0	76754	12908.357377867112	2
0	76755	12909.145551427154	1
0	76759	12909.346988273633	2
0	76760	12909.74954307338	1
0	76764	12910.04909251601	2
0	76767	12910.731814065322	1
0	76771	12911.050174605276	2
0	76772	12911.182929765459	1
0	76775	12911.591479155959	0
0	76779	12911.830428221148	1
0	76780	12912.140581063533	0
0	76784	12912.701394707005	1
0	76786	12912.936339857611	2
0	76787	12913.050923582658	1
0	76790	12914.031858710877	0
0	76794	12914.289844414529	1
0	76795	12914.567283515844	0
0	76802	12915.664585682341	1
0	76803	12916.532449450835	0
0	76820	12918.858753392632	1
0	76821	12919.24947693616	0
0	76830	12920.333984414642	1
0	76831	12920.65336934517	0
0	76840	12922.036123117851	1
0	76843	12922.51823325144	0
0	76852	12923.258541717631	1
0	76853	12923.853024186202	0
0	76864	12924.880787602279	1
0	76865	12925.568141628624	0
0	76872	12926.039891319337	1
0	76875	12926.650559319937	0
0	76900	12932.55125356007	1
0	76901	12932.938578679636	0
0	76905	12933.051167730477	1
0	76906	12933.363553965501	0
0	76910	12933.548028737085	1
0	76913	12933.931371372742	0
0	76917	12934.030468300303	1
0	76918	12934.845794645594	0
0	76925	12935.426299433774	1
0	76926	12935.827288847407	0
0	76935	12936.629536083608	1
0	76936	12937.249303419335	0
0	76950	12938.891560788949	1
0	76951	12939.409035914333	0
0	76964	12940.354596967099	1
0	76965	12940.790980847447	0
0	76974	12941.553002993048	1
0	76976	12941.566606781782	2
0	76977	12942.143946609448	1
0	76982	12942.635714406136	0
0	76986	12942.927638285235	1
0	76987	12943.44139794003	0
0	76991	12943.563497984876	1
0	76992	12943.86346943219	0
0	76996	12944.022057375514	1
0	76997	12944.294086482923	0
0	77001	12944.832829454504	1
0	77002	12945.015852074453	0
0	77006	12945.231336952532	1
0	77007	12945.558091898111	0
0	77014	12947.175452303795	1
0	77015	12947.195160367654	0
0	77022	12948.576424457601	1
0	77023	12948.642746755422	0
0	77032	12949.842591153678	1
0	77033	12950.322109822078	0
0	77112	12964.953027446056	1
0	77113	12965.05024385129	0
0	77135	12968.806405200995	1
0	77136	12969.211186866397	0
0	77145	12970.502986998146	1
0	77146	12970.62004318878	0
0	77155	12972.060777760842	1
0	77156	12972.180468472121	0
0	77160	12972.495613010692	1
0	77161	12972.850054730875	0
0	77175	12973.94830084659	1
0	77177	12974.106125442369	2
0	77180	12974.647661073626	1
0	77183	12975.320480932881	0
0	77187	12975.338494476635	1
0	77188	12975.888122213566	0
0	77192	12976.004139720074	1
0	77193	12976.872601689332	0
0	77197	12977.008486205091	1
0	77198	12977.697773533108	0
0	77202	12977.892518187031	1
0	77203	12978.317606866386	0
0	77207	12978.52538984584	1
0	77208	12978.842562400483	0
0	77212	12979.468942865411	1
0	77213	12979.68742379302	0
0	77225	12981.299431316571	1
0	77227	12981.311386520395	2
0	77228	12981.787133126851	1
0	77233	12982.355205038847	0
0	77237	12982.424705108886	1
0	77238	12983.026446151133	0
0	77242	12983.288088127282	1
0	77243	12983.448004151839	0
0	77247	12983.848494099568	1
0	77248	12983.896774975867	0
0	77252	12984.024435977156	1
0	77253	12984.420724297971	0
0	77257	12984.446829189616	1
0	77258	12985.314064418622	0
0	77265	12985.885876719966	1
0	77270	12986.51903238106	0
0	77309	12992.043189918571	1
0	77310	12992.531513432257	0
0	77317	12993.094354184068	1
0	77320	12993.623661315239	0
0	77331	12994.767965403447	1
0	77332	12995.205383954368	0
0	77339	12996.218306875412	1
0	77342	12996.560465454435	0
0	77349	12997.175547391135	1
0	77352	12997.638053102124	0
0	77356	12998.107331400913	1
0	77357	12998.193402325021	0
0	77366	12998.658975947994	1
0	77368	12998.674175997807	2
0	77370	12998.730421443449	3
0	77371	12999.551337418458	2
0	77374	13000.476147501855	1
0	77378	13000.57833929763	2
0	77381	13001.036014833613	1
0	77384	13001.595288454913	0
0	77388	13001.654663616485	1
0	77389	13002.266285437983	0
0	77393	13002.380240123206	1
0	77394	13003.172277076575	0
0	77398	13003.537576192959	1
0	77401	13003.826201217282	0
0	77408	13004.942871493595	1
0	77409	13005.045806750781	0
0	77421	13006.818766084085	1
0	77422	13007.255614687721	0
0	77429	13008.155728378544	1
0	77430	13008.662412340226	0
0	77442	13010.113350393672	1
0	77445	13010.712591827693	0
0	77465	13016.065042615971	1
0	77466	13016.22331615362	0
0	77475	13017.634623241947	1
0	77476	13017.827362256093	0
0	77485	13018.836358126935	1
0	77486	13019.390430556291	0
0	77495	13020.397476789354	1
0	77496	13020.898830112775	0
0	77510	13022.944063746244	1
0	77512	13023.248550889029	2
0	77513	13023.280187949069	1
0	77516	13023.848933397276	0
0	77525	13024.848628022861	1
0	77526	13025.725471790177	0
0	77535	13026.761032740973	1
0	77538	13027.548270232691	0
0	77607	13043.045948256326	1
0	77608	13043.530356021151	0
0	77617	13044.434234013426	1
0	77618	13044.594614085248	0
0	77625	13045.224949285194	1
0	77628	13045.656039012847	0
0	77675	13056.15211646213	1
0	77678	13056.562816570869	0
0	77687	13057.482449318805	1
0	77690	13058.286787222076	0
0	77697	13059.027477507612	1
0	77702	13059.73787931123	0
0	77711	13060.615704053784	1
0	77712	13060.780713267561	0
0	77719	13061.687561325468	1
0	77722	13062.147918324016	0
0	77731	13063.462507344472	1
0	77734	13063.723003290158	0
0	77746	13065.462749381536	1
0	77749	13065.791395677982	0
0	77758	13066.635127321961	1
0	77761	13067.17736654103	0
0	77773	13068.696365885948	1
0	77778	13069.114337068408	0
0	77800	13071.641618908211	1
0	77801	13071.95967454499	0
0	77813	13073.884611423853	1
0	77814	13074.208052420695	0
0	77828	13075.95647841425	1
0	77830	13076.139121983828	2
0	77833	13076.662442952753	1
0	77838	13077.645051128124	0
0	77842	13077.946555984477	1
0	77843	13078.138782633734	0
0	77850	13079.255575223633	1
0	77851	13079.606814782773	0
0	77860	13080.461295118981	1
0	77862	13080.541894777247	2
0	77863	13080.866491402765	1
0	77866	13081.84190343794	0
0	77870	13082.216825478479	1
0	77871	13082.40545992021	0
0	77875	13082.620879821955	1
0	77877	13083.028054626344	2
0	77878	13083.070837590038	1
0	77882	13083.192358679024	2
0	77883	13083.636156248846	1
0	77887	13083.783397572681	2
0	77890	13084.345942810071	1
0	77894	13084.592687459048	2
0	77895	13084.792925489447	1
0	77898	13085.379774721698	0
0	77907	13086.640892027437	1
0	77908	13086.668755930694	0
0	77917	13087.344932152768	1
0	77918	13088.046398827	0
0	77962	13095.486112928521	1
0	77963	13095.767402046299	0
0	78045	13108.241275362906	1
0	78054	13108.949404701716	0
0	78061	13109.493901716767	1
0	78065	13109.725578840689	2
0	78066	13109.8795538104	1
0	78071	13110.77378271705	0
0	78075	13110.807756974933	1
0	78076	13111.764856387754	0
0	78080	13111.822666710119	1
0	78081	13112.563478668905	0
0	78085	13112.633848156791	1
0	78087	13112.784226673802	2
0	78089	13112.793920097762	3
0	78090	13113.455869398625	2
0	78094	13113.500506361714	3
0	78097	13114.258500797986	2
0	78101	13114.325183501019	3
0	78102	13114.963826197139	2
0	78106	13115.400543432102	3
0	78108	13115.607511333966	4
0	78111	13115.700911526089	3
0	78115	13115.849773906552	4
0	78116	13116.632744040606	3
0	78120	13116.652303374988	4
0	78121	13117.491887318702	3
0	78125	13117.76010300301	4
0	78126	13118.341603278076	3
0	78130	13118.388642869392	4
0	78131	13118.983933551876	3
0	78135	13119.261968998395	4
0	78136	13119.821308412902	3
0	78140	13120.16754185303	4
0	78141	13120.735672065556	3
0	78144	13121.300738188378	2
0	78147	13122.048785884385	1
0	78150	13122.702009414635	0
0	78154	13122.843221751918	1
0	78157	13123.580884079202	0
0	78163	13124.194181291726	1
0	78165	13124.249057070598	2
0	78166	13124.25809858859	1
0	78169	13125.194212491237	0
0	78173	13125.566146895268	1
0	78174	13125.783094948842	0
0	78178	13126.033133922046	1
0	78179	13126.333780577066	0
0	78183	13126.903161740285	1
0	78185	13127.114851798344	2
0	78186	13127.278949659117	1
0	78190	13127.372681898392	2
0	78191	13127.745264046904	1
0	78196	13128.179387344685	0
0	78203	13128.78058372744	1
0	78205	13128.896435961912	2
0	78206	13129.273980356786	1
0	78209	13130.164605028169	0
0	78219	13131.741982327427	1
0	78222	13132.218698004573	0
0	78226	13132.24276917581	1
0	78227	13133.067945726808	0
0	78231	13133.108559009586	1
0	78232	13133.747177252067	0
0	78238	13134.097254441547	1
0	78239	13134.576539934413	0
0	78243	13134.993241453545	1
0	78244	13135.191739568892	0
0	78248	13135.580180228185	1
0	78249	13135.768072859836	0
0	78253	13136.067330645611	1
0	78254	13136.473804710745	0
0	78258	13136.613050313018	1
0	78259	13137.016326005138	0
0	78263	13137.06232801882	1
0	78264	13137.906083527008	0
0	78271	13138.731494567335	1
0	78272	13138.941404792606	0
0	78294	13142.308004077959	1
0	78297	13142.677047968129	0
0	78304	13143.995613614047	1
0	78305	13144.28940519391	0
0	78314	13145.259242351157	1
0	78315	13145.495699439276	0
0	78322	13146.561468195006	1
0	78323	13146.972529097538	0
0	78327	13147.772175298642	1
0	78330	13147.911549192652	0
0	78339	13149.003012295099	1
0	78342	13149.148456044667	0
0	78351	13150.057867960551	1
0	78352	13150.534840038312	0
0	78382	13156.215050872319	1
0	78383	13156.247497031545	0
0	78392	13157.57869997489	1
0	78394	13157.633743980669	2
0	78395	13157.993887554608	1
0	78398	13158.586045994131	0
0	78402	13158.775617932232	1
0	78403	13159.307148766412	0
0	78407	13159.323775365147	1
0	78408	13160.172830481628	0
0	78412	13160.384603512683	1
0	78413	13160.81262682703	0
0	78417	13161.204079326313	1
0	78418	13161.219521648983	0
0	78422	13161.236125036819	1
0	78423	13162.113464810826	0
0	78435	13163.841532071872	1
0	78436	13164.385954939933	0
0	78445	13165.563484040644	1
0	78446	13165.843791584192	0
0	78453	13166.360975869836	1
0	78454	13166.900061906488	0
0	78461	13167.525429741485	1
0	78464	13168.075275186668	0
0	78473	13168.895153304012	1
0	78474	13169.475389920673	0
0	78483	13170.402487655482	1
0	78484	13170.756256416146	0
0	78505	13174.033436201874	1
0	78506	13174.185831673056	0
0	78514	13174.666618928449	1
0	78515	13174.932922219982	0
0	78519	13175.060454935166	1
0	78520	13175.652889350693	0
0	78527	13176.409476175688	1
0	78528	13176.809605860881	0
0	78535	13177.577087843892	1
0	78536	13178.283852603411	0
0	78545	13179.432842130805	1
0	78546	13179.753427278701	0
0	78562	13181.080574762026	1
0	78563	13181.48835546133	0
0	78585	13184.278862360457	1
0	78588	13184.966798159535	0
0	78605	13187.149753315849	1
0	78608	13187.758428004857	0
0	78734	13210.517466239659	1
0	78735	13211.315324226105	0
0	78749	13212.914505504245	1
0	78750	13213.458459078417	0
0	78759	13214.365289964939	1
0	78760	13214.701287567046	0
0	78847	13238.020394000846	1
0	78848	13238.164699205243	0
0	78860	13239.71767243232	1
0	78861	13240.090082892402	0
0	78870	13241.221144095608	1
0	78873	13241.484318308065	0
0	78882	13242.641342801987	1
0	78883	13242.730924928233	0
0	78895	13244.730278419195	1
0	78896	13245.213885569105	0
0	78910	13247.46774263096	1
0	78913	13248.050359787437	0
0	78924	13249.213201166395	1
0	78925	13249.334088633134	0
0	78936	13250.105980369316	1
0	78937	13250.510194037546	0
0	78946	13251.173239622306	1
0	78947	13251.524180445605	0
0	78956	13252.659179371466	1
0	78957	13253.087245703227	0
0	78961	13253.099124262723	1
0	78966	13253.652239655209	0
0	78970	13253.778845167802	1
0	78972	13253.967598909706	2
0	78973	13254.651244841627	1
0	78977	13254.778686868685	2
0	78978	13255.567781473621	1
0	78984	13255.785015551133	2
0	78985	13256.1028713179	1
0	78989	13256.211941803788	2
0	78990	13256.834962783679	1
0	78994	13257.49336822117	2
0	78995	13257.697248425958	1
0	78999	13257.871054246411	2
0	79000	13258.119410265115	1
0	79005	13258.567989034875	0
0	79009	13259.268055354811	1
0	79010	13259.484312176303	0
0	79014	13259.769780058618	1
0	79015	13260.040157122555	0
0	79025	13261.140869703012	1
0	79029	13261.311482939945	2
0	79030	13261.89181562161	1
0	79037	13262.78246200324	0
0	79041	13262.789697966067	1
0	79042	13263.768946864428	0
0	79051	13264.896924244595	1
0	79052	13265.165717557417	0
0	79058	13265.712133678496	1
0	79059	13266.150068780985	0
0	79063	13266.182833422078	1
0	79064	13266.970904077282	0
0	79081	13269.227801146292	1
0	79082	13269.567172553222	0
0	79086	13269.63794633368	1
0	79089	13270.35681339099	0
0	79093	13270.961991227278	1
0	79094	13271.083540062112	0
0	79100	13271.480368477165	1
0	79101	13272.025761305931	0
0	79105	13272.336267102278	1
0	79106	13272.562325305975	0
0	79116	13274.054869712657	1
0	79118	13274.325796274185	2
0	79119	13274.773505757208	1
0	79124	13275.542078354879	0
0	79128	13276.288828437035	1
0	79129	13276.51803541283	0
0	79136	13277.487571390817	1
0	79137	13278.23442596171	0
0	79146	13279.875728485112	1
0	79147	13280.036030206754	0
0	79201	13287.780920991267	1
0	79202	13287.85065110849	0
0	79412	13322.367226934088	1
0	79415	13322.837446133723	0
0	79419	13323.312586287254	1
0	79420	13323.531900758087	0
0	79426	13323.846851627585	1
0	79427	13324.342805967457	0
0	79433	13324.478652526055	1
0	79434	13325.133918922232	0
0	79440	13325.451392787877	1
0	79441	13325.597360299551	0
0	79445	13325.682467205502	1
0	79446	13326.343463560683	0
0	79452	13326.638542523601	1
0	79453	13326.960820322507	0
0	79461	13327.188111678219	1
0	79466	13327.94396231405	0
0	79473	13328.439705454368	1
0	79474	13328.935900000926	0
0	79483	13329.779134105616	1
0	79488	13330.437091860664	0
0	79497	13331.458645693484	1
0	79498	13331.536702279165	0
0	79505	13332.014637278975	1
0	79508	13332.358019746072	0
0	79519	13333.134990670762	1
0	79520	13334.117903495557	0
0	79531	13334.771505404085	1
0	79532	13335.384640899464	0
0	79536	13335.970234203508	1
0	79537	13336.153941536532	0
0	79544	13337.115619482344	1
0	79545	13337.613961949735	0
0	79559	13339.035442127602	1
0	79562	13339.829956670547	0
0	79566	13340.123018369413	1
0	79567	13340.707679233303	0
0	79571	13340.797754413494	1
0	79575	13340.904536081303	2
0	79577	13341.383340537694	3
0	79578	13341.404669382259	2
0	79581	13342.344687202129	1
0	79585	13342.710277480403	2
0	79587	13342.795243096635	3
0	79588	13342.838047207541	2
0	79592	13343.140337604184	3
0	79593	13343.627429620338	2
0	79597	13344.045550406009	3
0	79598	13344.381144799407	2
0	79602	13345.089565537894	3
0	79603	13345.092842168988	2
0	79609	13345.672219591889	3
0	79611	13345.890715772186	4
0	79612	13345.97499044116	3
0	79616	13346.175000155792	4
0	79617	13346.435022301389	3
0	79621	13346.568931265782	4
0	79622	13347.011342641594	3
0	79626	13347.541474319721	4
0	79627	13347.96808242842	3
0	79631	13348.328160245053	4
0	79632	13348.831146244215	3
0	79636	13349.215003476767	4
0	79637	13349.353410597028	3
0	79640	13349.954972636582	2
0	79644	13350.441991992115	3
0	79645	13350.519057261035	2
0	79648	13351.012106879125	1
0	79652	13351.25721364076	2
0	79653	13351.455064760963	1
0	79656	13351.87074555878	0
0	79660	13352.25389958612	1
0	79662	13352.298064488628	2
0	79663	13352.465747230942	1
0	79667	13352.529222022973	2
0	79668	13353.437404963211	1
0	79672	13353.625121409273	2
0	79673	13354.014067309373	1
0	79677	13354.204078226638	2
0	79678	13354.941189381084	1
0	79682	13354.980229454202	2
0	79683	13355.41565498684	1
0	79687	13355.705553741454	2
0	79688	13356.162264190683	1
0	79692	13356.597029380226	2
0	79694	13356.67343459495	3
0	79695	13356.833742256019	2
0	79698	13357.829047479549	1
0	79701	13358.546453314669	0
0	79705	13358.937090724829	1
0	79707	13359.01954904607	2
0	79708	13359.535013612754	1
0	79712	13359.676315488426	2
0	79713	13360.411324073908	1
0	79717	13360.468739582152	2
0	79718	13360.844555665295	1
0	79721	13361.572851638657	0
0	79725	13361.613795120872	1
0	79727	13361.759127067184	2
0	79728	13362.006017909593	1
0	79731	13362.929439021948	0
0	79735	13363.206229146132	1
0	79736	13363.644248598882	0
0	79740	13363.782452238852	1
0	79741	13364.499143498738	0
0	79748	13365.363903470633	1
0	79749	13365.836387020976	0
0	79756	13366.653906407565	1
0	79758	13366.899148275925	2
0	79759	13367.039132202159	1
0	79764	13367.817818918846	0
0	79771	13368.571028109308	1
0	79774	13369.172551518979	0
0	79781	13369.882316707178	1
0	79782	13370.717115891653	0
0	79799	13373.003277702731	1
0	79800	13373.279825755975	0
0	79814	13375.534540014286	1
0	79815	13375.63970110046	0
0	79827	13376.808087803532	1
0	79830	13377.449298048785	0
0	79836	13377.907848820497	1
0	79837	13378.308256899167	0
0	79841	13378.648868203527	1
0	79842	13378.964101013981	0
0	79849	13379.582268765097	1
0	79851	13379.946137949229	2
0	79852	13380.2268195254	1
0	79857	13381.22388230676	0
0	79861	13381.232662528281	1
0	79862	13382.145042746628	0
0	79866	13382.178076377631	1
0	79867	13382.604645353809	0
0	79874	13383.525450982874	1
0	79876	13383.704732921422	2
0	79877	13384.311216113644	1
0	79882	13384.777519981025	0
0	79897	13386.786650160852	1
0	79899	13386.842941191027	2
0	79904	13387.175447980242	1
0	79908	13387.718188562949	2
0	79909	13388.095114030291	1
0	79912	13388.544007822427	0
0	79918	13388.972696993632	1
0	79919	13389.03799482046	0
0	79929	13390.300195209204	1
0	79930	13390.958668614805	0
0	79937	13391.647431814191	1
0	79939	13391.677356805323	2
0	79940	13392.047532660908	1
0	79948	13392.300376762857	2
0	79949	13392.928153954002	1
0	79952	13393.604665089839	0
0	79956	13393.773961003327	1
0	79957	13394.569359222309	0
0	79961	13395.019621073738	1
0	79962	13395.417851072059	0
0	79969	13396.244377341573	1
0	79971	13396.337954747143	2
0	79972	13396.874869659052	1
[...]
9	165502	27032.557374421194	20.989982411331
9	165510	27034.133726486902	5.594733692877
9	165513	27035.01830928257	3.109165700061
9	165524	27036.771771553031	1.398903875925
9	165542	27039.645466491406	4.643599335378
9	165567	27043.462694202143	7.338338324264
9	165643	27055.39654021749	0.840275911614
9	165716	27066.178140182483	3.623239849836
9	165725	27067.176603795697	41.704764446298
9	165731	27068.73840849024	3.232840142548
9	165734	27069.324259835824	2.470149842391
9	165750	27073.226720514077	2.420395176404
9	165765	27076.623300826637	14.283462166095
9	165850	27097.224628188092	21.457840295841
9	165865	27099.520922091421	0.44973624032
9	165951	27112.907447895192	2.732532577443
9	166035	27123.679489773249	6.049610301369
9	166065	27128.573416085466	3.372797721816
9	166152	27140.110229391857	0.613427465037
9	166220	27150.209035127118	1.881344107866
9	166246	27154.681019600222	5.210065428187
9	166336	27167.540615510363	11.493453489043
9	166339	27168.08768460134	5.171080188571
9	166368	27171.900907265375	11.495151825966
9	166420	27179.455627697126	17.606186562657
9	166437	27182.691480044312	4.320025886169
9	166484	27188.453025948387	8.092238928616
9	166507	27193.36152278083	11.361410698008
9	166512	27194.192496814351	10.004457024145
9	166520	27198.592717118219	4.400220303868
9	166535	27205.204678157931	5.332291309341
9	166560	27212.746724044421	4.149060262994
9	166592	27227.63279747321	2.306088943509
9	166595	27228.202282110422	1.623806366892
9	166605	27231.210399235076	1.189800667728
9	166758	27262.242333194515	17.740652141886
9	166796	27267.383612731467	2.583171734527
9	166801	27268.14998694397	3.367176193866
9	166807	27269.223264094576	1.490851667283
9	166834	27272.87924276655	11.981086344053
9	166867	27277.781151825463	4.377095963338
9	166892	27283.695584110152	8.097221909164
9	166925	27294.440364131915	17.005545429017
9	166940	27299.545326071279	0.57601714218
9	166987	27311.562652610518	3.826916173062
9	166995	27313.317934950731	0.715501251584
9	167055	27321.72566357622	14.827865223336
9	167077	27325.335229062703	6.814310067156
9	167102	27330.359053623251	0.440387417702
9	167105	27331.187470649503	5.834448832123
9	167125	27334.92708540747	2.795639597609
9	167285	27360.445803008984	3.296989287092
9	167317	27365.042676107503	0.705985934334
9	167402	27375.720383595732	0.875721845496
9	167414	27379.021407315937	2.754408916559
9	167479	27387.796041885439	0.636887577176
9	167586	27401.561466753718	2.34902371704
9	167589	27402.289782576545	4.55416253077
9	167610	27405.955056496666	3.907251349271
9	167631	27409.693605738229	2.154409945087
9	167643	27411.413660771636	7.937387743289
9	167653	27412.548034096839	1.262135852547
9	167694	27420.006177596519	2.416904050948
9	167715	27423.631053288239	4.395516001077
9	167736	27427.197181064128	3.756375573116
9	167755	27429.148006187199	0.561387471762
9	167783	27433.223501986456	6.122097021435
9	167856	27442.537570736236	25.960955325195
9	167902	27449.494187836308	8.931844039057
9	167905	27450.16056463081	2.920247834769
9	167908	27450.749486168898	1.855811187337
9	168012	27466.431366374024	0.52337587853
9	168125	27483.496102151439	1.814861250475
9	168165	27487.765263217108	4.318330165045
9	168236	27496.90055725903	8.086737654734
9	168252	27500.040242587427	0.692339889053
9	168398	27518.433602879033	24.376706981009
9	168404	27519.722810601559	7.792440387434
9	168407	27520.264176655677	0.541366054118
9	168425	27523.287600408471	13.411945514746
9	168428	27523.907876292965	16.640546265179
9	168479	27532.342100861225	5.507518117712
9	168486	27533.06667163812	0.724570776895
9	168499	27535.174261224013	40.360990366106
9	168530	27539.042882550437	0.661838748306
9	168540	27540.833859494584	9.12991693296
9	168543	27541.569186083576	4.588647392358
9	168549	27542.767826539347	9.066359527765
9	168563	27543.673093865369	11.1067111036
9	168594	27548.589941870863	5.731171581867
9	168603	27549.549739593337	0.959797722474
9	168606	27550.178743243473	8.19330802048
9	168660	27557.704117969584	0.744609036017
9	168698	27563.524964480497	2.27563453047
9	168701	27564.008231233921	36.510177676629
9	168744	27570.488839848735	1.922394942149
9	168759	27572.331050212052	11.218373106328
9	168784	27575.881107515725	4.798696217392
9	168823	27581.818191930028	4.603273057172
9	168850	27586.073373450739	11.025203344121
9	168856	27587.450525337531	8.63433376804
9	168915	27595.511580116979	0.918770999834
9	168928	27597.200803307189	1.233154932741
9	168958	27601.851880668408	5.92044372184
9	169056	27615.569318116666	0.702625189722
9	169100	27620.990152614446	1.481433211831
9	169147	27627.220886134191	4.066336632552
9	169409	27665.945907582222	6.450302980427
9	169462	27671.527963048425	10.728963737444
9	169465	27672.000501070843	20.432334375546
9	169578	27686.138713680552	2.314252444041
9	169589	27688.318342982483	1.970409169495
9	169592	27689.273146334401	2.581390107918
9	169595	27689.933052295464	0.659905961063
9	169607	27692.54538725663	2.887373663474
9	169638	27695.729882794638	7.245878322433
9	169655	27697.635948303874	0.707489608927
9	169689	27702.468181781072	22.0268023964
9	169700	27704.858318338796	10.062083168621
9	169715	27708.356165592532	3.995744619801
9	169738	27710.385278139237	2.809764157798
9	169811	27720.343450524539	11.336749124844
9	169887	27729.807177320004	1.490124180212
9	169991	27743.533311327011	0.927959899232
9	170066	27754.406990473183	1.941071510585
9	170074	27755.426455880586	0.433287731418
9	170099	27758.689521868085	11.864290086506
9	170133	27762.774174003745	6.66132568336
9	170186	27770.864274941502	18.153984339118
9	170202	27774.188996490209	1.45608157528
9	170205	27774.650256279136	0.461259788927
9	170211	27776.195562233708	1.728051876669
9	170216	27777.152114516522	0.956552282814
9	170219	27777.630262503705	1.770900395796
9	170237	27780.750009866224	15.827175059138
9	170702	27846.281915213515	0.831240314152
9	170705	27846.890192074909	2.431602122059
9	170712	27847.501959513801	0.611767438892
9	170754	27854.139984443525	9.057312094957
9	170775	27858.30178675323	14.575854696768
9	170809	27864.048005473727	2.703735489312
9	170855	27870.077308129912	3.555463726137
9	170875	27872.646249734164	1.401753585045
9	170883	27874.277904926447	0.662827645103
9	170889	27875.448436395006	1.504102648668
9	170915	27879.170261946108	4.528635516407
9	170928	27881.290290017726	8.805838660952
9	170956	27885.029519907079	0.528476204164
9	170965	27885.951895319877	16.118234628682
9	171118	27905.799923163671	0.515202635014
9	171162	27912.059120461458	9.932815475775
9	171245	27923.243160363726	4.612233048683
9	171265	27926.076810127424	1.50681459917
9	171280	27928.168495415823	1.98469142233
9	171292	27929.774580638084	5.680166720999
9	171328	27934.726464338852	2.726110368025
9	171380	27942.016803624081	12.917203883281
9	171390	27943.355178887789	2.051490306389
9	171531	27963.19653554351	1.513883975878
9	171565	27967.097584204114	30.091879822184
9	171615	27974.672837878316	0.854230201524
9	171625	27975.715358130326	4.036077511585
9	171675	27983.957737178373	11.325617156538
9	171702	27987.300870082359	0.712998169009
9	171710	27988.669663222804	22.845215545136
9	171789	27999.611615198916	4.652890266084
9	171861	28010.063434846205	2.338719466544
9	171985	28026.629536314235	1.64412660433
9	172140	28049.218607356186	5.192749404639
9	172168	28053.627958819895	6.391427150762
9	172201	28058.474458775362	0.594898091257
9	172214	28060.545509831206	0.915364408586
9	172302	28072.791397641058	2.920988096946
9	172413	28087.144208086813	0.461615292681
9	172499	28100.550033053354	9.482981626785
9	172574	28112.438523851865	15.462465799183
9	172611	28116.834080666555	3.706640439584
9	172630	28118.495117126703	2.334315684548
9	172636	28119.545668368898	6.082621302402
9	172773	28135.87515575338	2.036991669148
9	172819	28142.096414574811	7.991069171626
9	172854	28147.08424157963	7.618221708853
9	172935	28159.287991561244	2.130616524541
9	172967	28164.186810293809	3.966214518732
9	172977	28165.201702862993	5.325046974955
9	173012	28170.190227064738	20.314963694774
9	173015	28170.887203951567	57.474985830892
9	173114	28185.489207314621	1.927571888986
9	173172	28193.470167967086	15.601860365169
9	173183	28195.20018479276	6.261801159174
9	173193	28196.656704033878	1.85479306299
9	173196	28197.396351874354	1.927455220445
9	173202	28198.512084087603	9.169275924816
9	173207	28199.458492967546	8.475808815459
9	173210	28200.002457425058	29.453048799579
9	173321	28214.23886150691	10.987858574799
9	173369	28220.612133660506	0.497030070191
9	173382	28222.422184481345	31.774570804706
9	173393	28224.346158434231	9.025911557114
9	173430	28229.036138446271	0.535063647619
9	173455	28232.613019384598	4.528524738029
9	173551	28246.33109743564	3.472090972645
9	173603	28252.564523883552	12.617776582264
9	173653	28259.855429238237	4.81204968763
9	173659	28261.446609445398	19.520274663872
9	173667	28262.473686679934	13.04251790531
9	173697	28267.313848616487	6.855988884055
9	173715	28271.260676114341	4.678176535134
9	173745	28282.856231601293	5.436360764825
9	173825	28298.031934409898	0.687247750862
9	173840	28301.814349763325	2.131138126445
9	174023	28331.469280378669	7.963630370105
9	174056	28336.159982148987	0.693940147059
9	174154	28350.056590767933	5.667348555145
9	174177	28354.740608771692	0.965569983376
9	174187	28356.31827535046	2.71176282762
9	174195	28358.115475387338	11.523793462733
9	174255	28373.134649043587	9.868416950681
9	174272	28375.984547654467	5.978518597047
9	174327	28384.316257252054	3.076877159528
9	174349	28387.227634627721	5.654023527218
9	174372	28390.471389325545	2.248168819721
9	174393	28393.089652238577	5.175305593998
9	174401	28394.454534382164	8.490398143684
9	174411	28396.196548649879	3.173705215569
9	174526	28413.99975385524	5.05386531337
9	174554	28418.037145970553	6.642528133522
9	174579	28421.414354088135	8.957546806486
9	174597	28424.383484398793	7.544691410128
9	174721	28443.816352105562	5.351278371707
9	174737	28446.365066270159	3.331973121879
9	174740	28447.316705452652	11.550471337841
9	174830	28473.835298794401	5.159495162332
9	174846	28475.290994876858	8.276567127284
9	174856	28476.413357559826	6.432659427416
9	174922	28489.293150428711	3.604477685412
9	174970	28495.4021651419	9.390534973398
9	174988	28498.195673767769	3.264140485251
9	174993	28499.029630030331	19.727057797545
9	175035	28504.41736404436	1.855717076709
9	175095	28512.994840709738	1.806912555469
9	175182	28527.424047241884	3.206612821072
9	175207	28530.812711354268	7.944398309467
9	175222	28534.115189233979	4.814150500751
9	175230	28536.157632646438	2.912323415109
9	175315	28554.783126866782	28.364271437218
9	175340	28562.581352786386	13.8697661041
9	175350	28569.268786790628	2.611454741036
9	175422	28588.731232258425	0.596892272728
9	175470	28595.638646808482	19.395510711857
9	175482	28598.081516099691	0.944081423106
9	175535	28608.18617574133	2.954742091659
9	175597	28615.849398087116	2.543188147025
9	175766	28638.888678297294	7.185299546409
9	175769	28639.388748785095	3.166155568762
9	175780	28640.705328599769	3.741860310039
9	175790	28644.455710302649	9.248688872558
9	175884	28665.078627102981	5.216283917451
9	175899	28667.818174264506	4.720879040145
9	176040	28685.974913491967	2.901069663492
9	176118	28696.154339967535	17.107652574423
9	176212	28710.274043037722	5.033445599388
9	176331	28727.422227172972	8.061826559372
9	176393	28735.923097740672	11.759687188204
9	176396	28736.905934882815	5.469773843118
9	176486	28752.967965053263	6.034633721859
9	176515	28756.61694389983	5.837445340724
9	176536	28759.930978315052	0.722320548259
9	176569	28764.80371051874	3.247341188753
9	176584	28766.814277536245	11.485581097963
9	176661	28775.301286271038	5.547920037205
9	176786	28793.164439341697	7.661823479307
9	176832	28800.507781179381	9.767069385074
9	176837	28801.33784790611	6.15108775939
9	176876	28807.26312547113	0.827281273622
9	176881	28808.109749482071	2.316635454201
9	176949	28828.601017331789	11.481256749906
9	176962	28830.397027175399	41.254073404993
9	176965	28830.880216869098	1.336975128946
9	176972	28832.253193127389	3.6521757956
9	176975	28833.175171159605	18.192374147087
9	176980	28836.114919726709	0.844746083254
9	177026	28846.929374727281	0.5534429261
9	177087	28854.948071505129	0.428961296426
9	177141	28862.338922608272	8.376661318331
9	177231	28875.846486713459	0.699949101871
9	177251	28878.997500808445	2.383378502976
9	177297	28884.332573390847	3.383939863619
9	177313	28887.092616399658	10.644007738789
9	177416	28900.963122094937	13.754333262196
9	177424	28901.940324783979	6.880635966906
9	177432	28903.054691511301	0.473820015788
9	177453	28906.281241648227	6.151569074072
9	177456	28906.875662773291	1.707255646797
9	177459	28907.767215755677	3.029798143599
9	177462	28908.626489340935	7.088325192973
9	177475	28910.801443740727	1.301243122389
9	177480	28911.32377298372	4.932567501902
9	177544	28919.150851154003	2.890437845605
9	177615	28929.216124289858	0.469842940057
9	177645	28933.657838812427	6.478806499575
9	177653	28935.104786933915	1.875820961865
9	177673	28937.471479921977	5.076094464368
9	177741	28947.773897725067	0.929145765584
9	177749	28949.18348140456	8.694109337398
9	177780	28956.446098628981	0.574705258803
9	177795	28959.424708440418	17.855679839322
9	177805	28963.501825096274	5.49160999895
9	177825	28977.479073427948	0.754320463259
9	177842	28980.852009027876	0.623301879922
9	177847	28981.257990687998	0.405981660122
9	177855	28983.075996173578	13.31466720298
9	177860	28983.745831733452	0.665820998326
9	177912	28991.777396318929	4.970823617993
9	177932	28995.191241032657	6.539744565443
9	177940	28996.814382031759	1.623140999102
9	177947	29001.941461933787	0.57399285459
9	177950	29002.738979296816	0.797517363029
9	177990	29010.312428088102	5.358188980724
9	178030	29023.198704413527	13.982849684625
9	178035	29026.157034591778	0.484503692808
9	178097	29047.857291711688	0.835064583598
9	178115	29051.360617546855	3.696516660005
9	178135	29057.806696822514	0.967037670547
9	178152	29062.072845819974	2.436768499209
9	178185	29072.142497171292	5.208781634294
9	178251	29090.115973471276	2.002587824157
9	178259	29091.637121360873	5.583005077659
9	178270	29094.200660766393	3.553246142502
9	178396	29112.990550657686	12.911301939992
9	178455	29123.908822239414	7.431037297057
9	178520	29131.851277682992	0.719416930573
9	178526	29133.090924721645	2.397538665382
9	178534	29134.361283668192	10.588604175558
9	178579	29142.21677924869	8.013481818024
9	178590	29144.086997807392	15.389039787983
9	178602	29145.988557432044	0.983220577333
9	178687	29164.235386207164	39.378390995624
9	178705	29168.434129390288	1.140016201159
9	178710	29169.107205384429	4.871819177265
9	178791	29184.440413439557	0.49444802003
9	178794	29185.229772851573	2.552013239177
9	178868	29195.596866949933	3.704943290826
9	178916	29202.585806643968	2.556707804031
9	178981	29212.720343835005	0.713144752709
9	179018	29218.067285309691	8.789210523334
9	179039	29221.222836688632	11.395384405889
9	179047	29222.307272033958	5.53842614771
9	179062	29224.069101356814	9.16811758652
9	179109	29231.199905200713	0.831624454819
9	179120	29232.934495560304	11.947400630218
9	179186	29242.347339769557	6.281462692668
9	179194	29244.32609160632	2.897083331662
9	179408	29274.203730295536	2.358445665309
9	179420	29275.787917674503	19.750318930403
9	179428	29277.325157673641	3.578362668933
9	179463	29282.772111887607	0.871380136721
9	179479	29285.835240340773	2.046939509674
9	179515	29291.869058542367	6.725514924344
9	179574	29301.9639146937	13.476550294035
9	179611	29306.836276044273	0.958656175854
9	179712	29321.146106642154	11.221959888099
9	179727	29322.944396095485	9.947637901844
9	179815	29343.726096196415	2.631323460277
9	179820	29345.106145559754	3.641608664418
9	179854	29352.130185916638	2.908992792767
9	179867	29354.64572059415	2.015264923234
9	179870	29355.618474767503	0.972754173353
9	179880	29367.785161580957	1.364833325438
9	179909	29382.916711065286	2.305974999754
9	179917	29384.329016623666	1.373908690745
9	179966	29390.621866193807	0.515563912923
9	180168	29416.969702722341	1.569776287503
9	180282	29433.237011896982	11.894304634223
9	180298	29436.142731964378	9.005256873397
9	180394	29449.059786040404	4.041976559454
9	180437	29458.190810230927	5.18483943164
9	180445	29459.794821502821	7.525502895448
9	180503	29468.012605078752	0.96389645664
9	180516	29469.771045185208	8.121460375076
9	180529	29472.043130018423	6.757731340134
9	180532	29472.473495766707	0.430365748284
9	180565	29478.470902713481	6.296484022336
9	180595	29486.272750168625	10.637647124821
9	180642	29493.471801541917	0.985596861551
9	180678	29499.012266387407	9.772236190269
9	180689	29499.949538963836	3.077449463386
9	180740	29507.144304333616	7.859130465003
9	180758	29509.575208860951	8.570208508784
9	180862	29523.129888027383	0.726566290669
9	180887	29526.751624570356	5.655206981095
9	180907	29530.057749130145	7.448065003985
9	181009	29543.338533615123	0.557422623411
9	181058	29549.862462400402	0.467189807305
9	181138	29561.217855760725	6.731285860016
9	181164	29564.951694524511	4.210103758025
9	181271	29579.266453697425	5.933272764267
9	181312	29584.745358860339	2.684169837769
9	181394	29596.117691711275	4.055786247927
9	181412	29598.900721643897	0.944835021161
9	181554	29618.305468610474	13.220221885802
9	181587	29622.968054099925	1.251682944928
9	181681	29634.967493107108	18.953220024434
9	181694	29637.230068410918	4.370114364388
9	181697	29637.808378635192	3.553883989151
9	181707	29639.530051062707	32.859934927184
9	181726	29642.095493806372	24.218395796535
9	181800	29652.389589831778	1.64814760752
9	181851	29660.065413475117	0.829483551625
9	181857	29661.454733226156	8.401630574272
9	181876	29663.680884214664	55.807017201973
9	182023	29683.874681468528	1.799441873551
9	182038	29686.08706953799	5.633773561944
9	182066	29690.173319399204	0.850366018852
9	182075	29692.286796868906	11.745353319412
9	182097	29695.082124540011	11.773307219539
9	182116	29696.844845111469	2.817595490814
9	182134	29699.447512519207	3.55015913334
9	182170	29704.894115155877	0.951873336127
9	182192	29708.179989341869	15.311201125052
9	182231	29713.959737393809	0.503278570436
9	182276	29720.138472996038	3.722048141289
9	182312	29725.08983974684	19.329182729029
9	182460	29744.74640511287	6.211218211564
9	182463	29745.148181005973	5.117304402242
9	182482	29748.372774114912	0.755276001338
9	182505	29752.337025494674	4.822109896822
9	182514	29754.207634262122	2.396473137439
9	182522	29755.585985239815	8.897723241238
9	182530	29756.58024854263	16.259236113543
9	182591	29765.80734702131	9.626185011303
9	182641	29773.208112412749	13.421548971223
9	182648	29773.955260509264	2.507622665466
9	182651	29774.55075402396	2.442095439015
9	182702	29781.876576636974	0.608582649287
9	182712	29783.475643357691	7.24735157583
9	182715	29784.168733263771	9.788624286895
9	182727	29785.676082658005	8.097516977484
9	182735	29786.726027216931	6.299628814519
9	182775	29792.690783893021	0.622050437192
9	182822	29799.32298122318	31.971030949561
9	183020	29829.865470799254	0.986438142695
9	183040	29832.418761154273	9.050979251389
9	183101	29840.900410474846	0.668625245057
9	183154	29848.26270228333	13.275489854273
9	183215	29857.736414145887	6.511962586249
9	183332	29876.844758553032	2.639887621884
9	183339	29877.625930641053	19.383867917647
9	183375	29881.781725614725	11.487788642636
9	183383	29883.417614228718	20.969973139355
9	183443	29891.249518787309	1.092686240675
9	183500	29899.390173294682	5.970030537039
9	183523	29902.592736151402	0.756209616829
9	183600	29914.190817872349	0.875592388539
9	183611	29915.680013888056	9.312473996915
9	183628	29918.09639956691	0.935744321905
9	183636	29919.951554612542	0.865944152325
9	183703	29927.968281007425	7.943731054971
9	183839	29946.409593772661	5.040333788694
9	183920	29959.291929767562	0.93765980415
9	184014	29972.466421061708	3.645295499683
9	184044	29976.719856824307	3.994188245709
9	184127	29987.791796637138	2.513325203687
9	184157	29991.762957458802	3.835569357323
9	184202	29999.132018500641	17.473828891064

