version 2
run First_exit_8-7-20191017-13:43:33-1861
attr configname First_exit_8
attr datetime 20191017-13:43:33
attr experiment First_exit_8
attr inifile omnetpp.ini
attr iterationvars ""
attr iterationvarsf ""
attr measurement ""
attr network ResponseTimeNetwork
attr processid 1861
attr repetition 7
attr replication #7
attr resultdir results
attr runnumber 7
attr seedset 7
param **.Source.interArrivalTime exponential(4s)
param **.jobPriority bernoulli(0.4)
param **.PS.serviceTimeU1 "uniform(0.4s, 1.0s)"
param **.PS.serviceTimeU2 "uniform(1s, 1.2s)"
param **.SS1.serviceTime exponential(0.4s)
param **.SS2.serviceTime exponential(0.8s)
param **.PS.exitProbability bernoulli(0.8)

vector 0 ResponseTimeNetwork.SS1 queueLength:vector ETV
attr interpolationmode sample-hold
attr title "queue length, vector"
vector 1 ResponseTimeNetwork.SS2 queueLength:vector ETV
attr interpolationmode sample-hold
attr title "queue length, vector"
vector 2 ResponseTimeNetwork.QueueU1 queueLength:vector ETV
attr interpolationmode sample-hold
attr title "queue length, vector"
vector 3 ResponseTimeNetwork.QueueU2 queueLength:vector ETV
attr interpolationmode sample-hold
attr title "queue length, vector"
vector 4 ResponseTimeNetwork.sink lifeTimeU2:vector ETV
attr interpolationmode none
attr title "lifetime of arrived jobs U2, vector"
attr unit s
vector 5 ResponseTimeNetwork.sink lifeTime:vector ETV
attr interpolationmode none
attr title "lifetime of arrived jobs, vector"
attr unit s
vector 6 ResponseTimeNetwork.sink lifeTimeU1:vector ETV
attr interpolationmode none
attr title "lifetime of arrived jobs U1, vector"
attr unit s
3	0	0	0
3	20	4.661610059285	1
3	21	5.032249999497	0
3	25	5.282309721592	1
3	26	5.441796214957	0
3	30	6.042018689916	1
3	31	6.249334209305	0
3	40	7.186146185318	1
3	41	7.936175889507	0
3	52	9.363296977533	1
3	56	10.397199184712	0
3	70	12.834859068465	1
3	71	12.873888992463	0
3	80	14.149072234904	1
3	81	14.18697868577	0
3	85	14.540858627162	1
3	86	14.988386631671	0
3	95	16.020112782232	1
3	96	16.187364043835	0
3	100	16.560026333449	1
3	101	17.158113051932	0
3	105	17.50121023583	1
3	106	17.777647283561	0
3	115	19.233369561678	1
3	116	19.599765675406	0
3	122	19.913444937204	1
3	126	20.661657552545	0
3	130	20.683776394646	1
3	136	21.906745172369	0
3	145	23.261869943527	1
3	146	23.549733396511	0
3	160	25.157048725803	1
3	161	25.672227617198	0
3	165	25.937999844357	1
3	172	26.814730174899	2
3	173	27.029090774184	1
3	181	28.353489490817	0
3	185	28.473078762286	1
3	191	29.864839485041	0
3	200	31.660429419534	1
3	201	31.681721976793	0
3	205	31.764154246027	1
3	212	32.498275597274	2
3	214	32.973502764166	3
3	215	33.189823152192	2
3	218	33.985363144076	1
3	222	34.852444068757	2
3	223	34.890249169685	1
3	226	35.368915554389	0
3	230	35.664299625433	1
3	231	35.792703211886	0
3	235	35.873088585525	1
3	236	36.637811529563	0
3	240	37.169965166555	1
3	241	37.279244622468	0
3	250	38.510699804855	1
3	251	38.835252228288	0
3	260	40.067990672019	1
3	261	40.548980950039	0
3	270	41.961846603673	1
3	272	42.024010698273	2
3	273	42.183277157076	1
3	286	44.304478994092	0
3	290	44.55249232371	1
3	297	45.187028287798	2
3	298	45.467889136668	1
3	312	46.983888509714	2
3	339	51.221882202013	3
3	360	55.02204027063	2
3	368	56.285672155524	1
3	371	56.823930557574	0
3	375	56.938942217608	1
3	382	57.507381325416	2
3	384	57.685000496051	3
3	386	57.83360523142	4
3	387	58.218653197762	3
3	395	59.721776185966	2
3	404	60.928752711215	3
3	405	61.154917728052	2
3	414	61.716810828336	3
3	415	62.582398923988	2
3	418	63.35645299618	1
3	421	64.134187155253	0
3	425	65.048576182091	1
3	426	65.080170892634	0
3	435	66.212160880377	1
3	436	66.563696490031	0
3	440	67.086986572812	1
3	441	67.448397765018	0
3	455	70.642200679258	1
3	456	71.009765781271	0
3	465	71.968471002716	1
3	466	72.74495686234	0
3	475	74.464058625519	1
3	476	75.334105057763	0
3	480	75.706682083524	1
3	482	75.917589053507	2
3	483	76.048936959617	1
3	487	76.494507297059	2
3	488	76.788996806117	1
3	492	76.982865991982	2
3	494	77.294388599269	3
3	496	77.341831993382	4
3	497	77.387811135575	3
3	500	78.373539428301	2
3	518	81.123379055857	1
3	522	81.308272885397	2
3	536	82.956782407758	3
3	543	83.589101932593	4
3	563	85.90951782905	5
3	594	90.519201522673	4
3	598	90.899141461272	5
3	599	91.204802305557	4
3	605	91.314316618777	5
3	607	91.351264170117	6
3	612	92.003126627412	7
3	613	92.708744339811	6
3	622	94.047981639847	7
3	623	94.063419021553	6
3	631	95.543601403086	5
3	637	95.936103116745	6
3	641	96.794201643186	5
3	649	98.170171137088	4
3	653	98.36898584531	5
3	655	98.729610930942	6
3	657	98.732946004688	7
3	658	98.99740041078	6
3	662	99.12432521201	7
3	663	99.981485753534	6
3	671	101.310351107158	5
3	680	102.469206100738	6
3	689	103.491232499304	7
3	701	104.821321944196	8
3	728	108.938918463426	9
3	753	111.699299961626	10
3	764	113.270346096652	9
3	767	113.725936811353	8
3	770	114.513689276186	7
3	774	114.527750108577	8
3	776	114.781058248048	9
3	777	115.09998601487	8
3	780	115.825565008569	7
3	783	116.500124332757	6
3	787	116.867394328206	7
3	788	117.437344403268	6
3	792	117.501291121845	7
3	794	118.153213323103	8
3	795	118.267118788633	7
3	799	118.7376503864	8
3	801	118.766378763197	9
3	802	119.107268170669	8
3	805	119.859006846818	7
3	809	120.227642908065	8
3	810	120.608683261164	7
3	813	121.367639995907	6
3	816	121.969860566669	5
3	820	122.024193510491	6
3	821	122.960992358467	5
3	825	123.059853559782	6
3	827	123.103082140252	7
3	829	123.482633218806	8
3	830	123.943267158447	7
3	834	124.537906476765	8
3	835	124.56579209853	7
3	839	124.888541041114	8
3	840	125.328710227441	7
3	843	125.925086413817	6
3	847	126.561960654115	7
3	848	126.858479569973	6
3	852	127.503288073336	7
3	853	127.517547295177	6
3	857	127.822536062352	7
3	858	127.953266888838	6
3	862	128.590417757678	7
3	863	128.607046800041	6
3	871	129.829015333139	5
3	874	130.350573804675	4
3	883	131.354430549025	5
3	885	131.470325979583	6
3	887	131.897395291414	7
3	888	132.209599480338	6
3	891	132.927722712911	5
3	894	133.353624673912	4
3	897	134.31219748168	3
3	901	134.500867370152	4
3	902	134.927132806673	3
3	906	135.43489349979	4
3	907	135.486028800465	3
3	910	135.941577882532	2
3	914	136.028272850704	3
3	916	136.286838498406	4
3	917	136.405213414345	3
3	921	136.416124511826	4
3	922	136.901933416843	3
3	925	137.717138729177	2
3	933	139.017697195641	1
3	936	139.488875087888	0
3	950	141.307248154189	1
3	951	141.642272367143	0
3	957	141.814717213444	1
3	961	142.612829455315	0
3	980	150.337234536662	1
3	981	150.584301491045	0
3	990	152.064317992329	1
3	991	152.894868837292	0
3	995	153.016975537347	1
3	997	153.099299561705	2
3	999	153.216125718849	3
3	1001	153.499843811865	4
3	1003	153.705288375487	5
3	1004	153.829587876838	4
3	1008	154.392232141681	5
3	1009	154.508296122955	4
3	1012	155.009837355925	3
3	1016	155.420174830205	4
3	1017	155.808591808932	3
3	1021	156.183571240583	4
3	1022	156.241668687569	3
3	1026	156.257942401099	4
3	1028	156.647242705152	5
3	1029	156.759133285465	4
3	1033	156.846591151088	5
3	1034	157.38190241218	4
3	1038	157.986691334479	5
3	1039	158.343007222884	4
3	1043	158.646900216159	5
3	1044	158.811002621189	4
3	1047	159.598126391456	3
3	1051	159.762472774786	4
3	1052	160.021546281217	3
3	1060	161.6341262354	2
3	1066	162.300645133795	3
3	1071	162.58353616629	4
3	1072	163.125025152969	3
3	1080	164.521379292752	2
3	1084	164.62946507324	3
3	1091	165.458982668219	4
3	1092	165.918497488411	3
3	1096	166.366326176025	4
3	1097	166.864313310986	3
3	1100	167.592056365819	2
3	1103	168.162159437868	1
3	1107	168.343564241639	2
3	1109	168.846393766213	3
3	1110	169.006547475136	2
3	1113	169.71407567644	1
3	1116	170.589764586924	0
3	1120	170.840663135468	1
3	1122	171.306890644869	2
3	1124	171.398486853364	3
3	1125	171.430606730882	2
3	1128	172.403198942117	1
3	1132	172.86212903286	2
3	1133	173.056503797503	1
3	1136	173.754781099031	0
3	1140	174.181452567631	1
3	1141	174.251276558167	0
3	1150	176.176235799436	1
3	1151	176.290703979473	0
3	1160	177.247420046039	1
3	1162	177.374832453019	2
3	1164	177.805368493294	3
3	1165	177.95891619451	2
3	1173	179.274768245599	1
3	1181	180.244763057406	0
3	1185	180.547057502061	1
3	1189	180.729412968259	2
3	1191	180.798042392591	3
3	1195	181.449320015597	2
3	1203	182.791230443359	1
3	1207	183.059002699737	2
3	1208	183.473763244605	1
3	1211	184.223027175159	0
3	1220	186.268719763962	1
3	1221	186.465545795076	0
3	1230	187.735881488846	1
3	1231	188.450717652366	0
3	1235	188.522401421268	1
3	1241	189.97336450453	0
3	1245	190.365967965654	1
3	1252	191.195109616639	2
3	1253	191.529941160196	1
3	1262	192.391988698333	2
3	1263	193.053000005112	1
3	1266	193.466677765978	0
3	1275	194.068065646553	1
3	1276	194.655403216939	0
3	1300	202.736146210721	1
3	1301	203.125838005838	0
3	1310	206.411017867155	1
3	1311	206.876056479141	0
3	1360	240.070273641936	1
3	1361	240.118816832316	0
3	1370	241.169114468682	1
3	1371	241.594790564574	0
3	1382	242.77187240682	1
3	1406	246.702097843031	0
3	1440	251.05268693858	1
3	1446	252.203040333042	0
3	1460	254.125448396238	1
3	1462	254.338799566817	2
3	1463	254.653404735956	1
3	1479	256.026514564923	2
3	1488	257.466755147833	1
3	1516	261.189799072542	0
3	1540	264.74449347803	1
3	1541	265.022959009273	0
3	1555	266.769315145671	1
3	1556	267.194339840205	0
3	1660	298.125176245512	1
3	1662	298.577606662371	2
3	1663	298.577723312912	1
3	1667	299.282024414531	2
3	1668	299.327450219284	1
3	1672	299.532954918323	2
3	1684	300.94175957759	3
3	1695	302.745451844645	2
3	1708	304.918988307633	1
3	1716	305.525621455391	2
3	1743	310.357306263989	1
3	1754	311.572386250731	2
3	1811	319.507253182671	3
3	1820	320.856912242736	2
3	1829	321.586933306741	3
3	1830	322.449457268066	2
3	1836	322.602394751093	3
3	1840	324.050617301207	2
3	1843	324.597925190231	1
3	1847	324.707488337471	2
3	1848	325.520738738379	1
3	1852	326.045828665394	2
3	1853	326.115630092122	1
3	1856	326.785579118947	0
3	1865	327.772775832207	1
3	1867	328.074306388939	2
3	1869	328.102312344467	3
3	1871	328.156929009855	4
3	1872	328.159491878502	3
3	1875	328.631491503619	2
3	1878	329.061877621046	1
3	1882	329.069677117119	2
3	1883	329.502349226444	1
3	1887	329.95143724084	2
3	1888	330.154004688549	1
3	1891	330.688931051769	0
3	1895	331.210196999079	1
3	1896	331.375210295093	0
3	1910	332.666817747325	1
3	1916	334.150746503519	0
3	1920	335.000431986843	1
3	1921	335.014088763064	0
3	1930	336.17137262091	1
3	1932	336.213227972535	2
3	1934	336.436517177619	3
3	1935	336.663213189671	2
3	1939	336.744255082202	3
3	1940	337.063324140644	2
3	1944	337.098692928277	3
3	1945	337.818111731418	2
3	1949	338.413241083045	3
3	1950	338.576915990402	2
3	1958	340.00286469588	1
3	1967	341.00643092451	2
3	1968	341.454983342979	1
3	1974	341.813769662856	2
3	1984	343.231456110457	3
3	1986	343.482875142294	4
3	2002	345.679726923426	3
3	2011	346.715763495052	4
3	2012	347.034696697752	3
3	2021	348.288939526426	4
3	2023	348.836543418131	5
3	2024	348.98462699501	4
3	2033	349.971098307849	5
3	2034	350.724171105662	4
3	2040	350.851165722221	5
3	2045	351.750973724018	6
3	2046	352.370410018211	5
3	2049	352.770824829798	4
3	2052	353.19281855019	3
3	2055	353.67114369197	2
3	2063	354.578395337035	1
3	2071	355.870591300661	0
3	2075	356.673865613684	1
3	2076	356.801730992906	0
3	2080	357.240487128216	1
3	2082	357.381712819484	2
3	2084	357.492373715835	3
3	2085	357.510424129134	2
3	2089	357.62483919624	3
3	2091	357.672672444288	4
3	2092	357.947584047802	3
3	2096	358.350641312568	4
3	2097	358.459944253443	3
3	2100	358.937291305494	2
3	2104	359.14455692491	3
3	2105	359.440627979003	2
3	2108	359.910438181581	1
3	2112	360.259552310957	2
3	2113	360.50978063548	1
3	2117	360.83535287887	2
3	2118	361.139831122877	1
3	2122	361.527349997864	2
3	2123	361.593897260334	1
3	2127	362.020280356583	2
3	2128	362.447827437082	1
3	2131	362.908235532166	0
3	2135	363.125842363668	1
3	2137	363.218376860747	2
3	2138	363.32879286942	1
3	2142	363.349539616199	2
3	2143	364.10701692922	1
3	2146	365.016833670279	0
3	2150	365.104632764725	1
3	2151	365.544700453645	0
3	2175	370.308331417385	1
3	2176	370.818382260026	0
3	2180	371.538821013158	1
3	2182	371.651982454904	2
3	2183	371.666490483479	1
3	2187	371.995414820347	2
3	2188	372.486062067057	1
3	2191	373.056854962333	0
3	2200	373.696190910313	1
3	2201	374.58024604354	0
3	2207	374.998165538924	1
3	2212	375.773834152007	2
3	2214	375.802789414342	3
3	2216	376.195594036326	4
3	2217	376.199398802322	3
3	2228	377.081509241386	4
3	2233	377.472253864132	5
3	2234	377.844415202512	4
3	2242	379.559946390343	3
3	2295	387.776778179461	2
3	2298	388.473706947181	1
3	2302	388.569062693759	2
3	2303	388.994675299067	1
3	2309	389.489394995723	2
3	2321	390.979187046057	3
3	2392	400.792722454063	4
3	2402	402.575745734084	5
3	2424	405.281907390507	6
3	2431	406.555874257734	7
3	2528	420.336592259874	8
3	2605	432.42633452188	7
3	2614	433.505502617706	8
3	2615	433.638850879723	7
3	2629	435.542158561731	8
3	2630	435.94554674221	7
3	2638	437.602224862816	6
3	2641	438.441512808165	5
3	2644	439.222731308181	4
3	2647	439.662081173955	3
3	2651	440.086397174494	4
3	2653	440.123842350134	5
3	2654	440.371940741556	4
3	2657	440.910160694139	3
3	2663	441.265314070528	4
3	2668	441.369452122657	5
3	2670	441.586654519979	6
3	2672	441.703753235083	7
3	2674	441.851846584308	8
3	2675	442.064798930574	7
3	2684	443.086588429548	8
3	2685	443.57661921257	7
3	2693	445.263236159839	6
3	2697	445.40438305351	7
3	2703	446.546553569062	6
3	2707	446.750480900283	7
3	2708	447.134947528512	6
3	2711	447.770665956064	5
3	2717	448.305819094137	6
3	2722	448.787407194556	7
3	2723	449.480542372967	6
3	2731	451.354078235299	5
3	2735	451.721328448639	6
3	2741	452.800098685044	5
3	2752	453.9014289983	6
3	2757	454.247728408416	7
3	2758	454.903599069789	6
3	2766	456.148903332892	5
3	2772	456.92354626445	6
3	2777	457.619690291193	7
3	2778	457.877644052831	6
3	2786	459.298654560474	5
3	2789	459.786516539202	4
3	2793	460.025372570743	5
3	2794	460.683995883082	4
3	2798	460.844255061971	5
3	2800	461.032559936457	6
3	2801	461.14439667222	5
3	2805	461.359285351915	6
3	2806	462.106079924348	5
3	2809	462.589048187443	4
3	2813	462.898648993909	5
3	2814	463.453427945132	4
3	2817	464.125256191854	3
3	2821	464.380463563798	4
3	2823	464.715067079272	5
3	2824	464.898471579476	4
3	2828	465.444279281381	5
3	2829	465.741762582361	4
3	2838	466.85144881981	5
3	2839	467.015122322747	4
3	2848	468.109629770177	5
3	2849	468.700266362177	4
3	2858	469.481504464613	5
3	2859	469.814583600368	4
3	2868	470.624242498167	5
3	2869	471.427369440216	4
3	2872	471.955205532265	3
3	2876	472.360388711768	4
3	2877	472.62196808081	3
3	2880	473.296838959082	2
3	2884	473.786773458622	3
3	2885	473.831857116575	2
3	2889	473.861560876844	3
3	2890	474.557926470748	2
3	2893	475.143162627107	1
3	2896	475.849917588484	0
3	2905	478.516829309084	1
3	2906	479.215725442568	0
3	2910	479.383489387152	1
3	2911	480.092865425615	0
3	2920	481.664576167878	1
3	2921	481.952069149848	0
3	2935	484.15449385982	1
3	2936	484.18331299812	0
3	2940	484.597982274951	1
3	2946	485.414219880164	0
3	2960	487.022212201123	1
3	2962	487.248257995144	2
3	2963	487.270181871252	1
3	2969	487.561495137649	2
3	2973	488.065026909263	3
3	2978	488.35470357268	4
3	2985	489.20872145961	5
3	2989	490.042231917381	4
3	3015	493.238306300071	5
3	3054	500.002354898629	4
3	3065	500.885945069568	5
3	3069	501.994210826885	4
3	3075	502.560699286831	5
3	3085	503.571532571422	6
3	3091	504.916656214278	5
3	3095	505.265990398833	6
3	3101	506.304621766741	5
3	3105	506.537570756236	6
3	3112	507.444411327708	7
3	3113	507.735973345442	6
3	3116	508.169380496908	5
3	3120	508.325506963675	6
3	3121	508.602093542693	5
3	3130	509.516084197251	6
3	3131	510.019892006414	5
3	3134	510.777901514433	4
3	3138	511.254691207061	5
3	3140	511.270765874258	6
3	3141	511.556394300423	5
3	3145	511.738179956706	6
3	3147	511.82717917858	7
3	3148	512.006665821932	6
3	3152	512.247535714213	7
3	3153	512.635706585599	6
3	3157	512.9029354726	7
3	3158	513.108006534306	6
3	3161	513.580005778605	5
3	3164	514.281728333747	4
3	3167	515.254741277546	3
3	3170	515.814279400977	2
3	3174	516.035110929696	3
3	3175	516.68877837807	2
3	3178	517.16476886631	1
3	3182	517.22976980656	2
3	3184	517.80476038251	3
3	3185	518.043724483997	2
3	3189	518.240145195543	3
3	3190	518.481884351699	2
3	3199	519.461313919742	3
3	3201	519.506818254967	4
3	3203	519.738446310689	5
3	3204	519.88488593204	4
3	3210	520.543630822196	5
3	3212	520.698641028581	6
3	3216	521.593654029444	5
3	3219	522.016010021838	4
3	3225	522.740504054974	5
3	3229	523.453175864695	4
3	3233	523.830068994385	5
3	3234	524.215312259877	4
3	3237	524.779875307577	3
3	3240	525.541062170873	2
3	3244	525.748837305292	3
3	3245	526.139624178503	2
3	3248	527.082502485859	1
3	3252	527.411388483047	2
3	3254	527.56240329795	3
3	3255	527.619070929429	2
3	3258	528.301873114147	1
3	3261	528.885321467138	0
3	3265	529.533130580042	1
3	3266	529.694984650427	0
3	3270	530.321980125744	1
3	3272	530.467467294586	2
3	3273	530.555082760147	1
3	3276	531.214944499406	0
3	3280	531.597073611046	1
3	3281	532.164904678148	0
3	3285	532.237944695595	1
3	3287	532.703976097726	2
3	3288	532.855168126571	1
3	3292	533.282588082105	2
3	3294	533.585990878429	3
3	3296	533.757796191785	4
3	3297	533.8293461503	3
3	3300	534.37737921644	2
3	3304	534.705197568565	3
3	3306	534.992971141961	4
3	3308	535.079247756825	5
3	3309	535.093638559896	4
3	3313	535.633288666552	5
3	3314	536.043399572884	4
3	3318	536.083267432118	5
3	3320	536.442859767711	6
3	3322	536.448584913332	7
3	3323	536.758625815342	6
3	3327	536.815017332599	7
3	3328	537.368473632307	6
3	3331	538.14812878333	5
3	3335	538.476017322753	6
3	3336	538.770657566515	5
3	3339	539.74907711544	4
3	3343	539.963294311632	5
3	3344	540.163791641732	4
3	3348	540.909210607993	5
3	3349	541.019555624108	4
3	3352	541.897876656986	3
3	3356	541.94671659918	4
3	3357	542.881166841834	3
3	3360	543.405782650131	2
3	3364	543.410265944252	3
3	3366	543.805021471308	4
3	3368	543.938076718532	5
3	3370	544.036475186678	6
3	3371	544.259931980678	5
3	3374	545.123954449267	4
3	3377	545.824698304058	3
3	3381	546.221364045448	4
3	3382	546.485201081074	3
3	3385	546.96103292643	2
3	3389	547.543479442512	3
3	3391	547.608058228221	4
3	3392	547.908384469989	3
3	3395	548.360993095906	2
3	3399	548.560159318544	3
3	3401	548.757161823136	4
3	3402	549.011294887075	3
3	3405	549.674306080211	2
3	3409	549.877418661346	3
3	3411	549.991166219396	4
3	3413	550.601995861846	5
3	3414	550.656704646954	4
3	3420	550.954661200198	5
3	3425	551.936820401181	6
3	3426	552.342387163871	5
3	3434	554.02068212754	4
3	3443	555.627111479368	5
3	3444	555.704386096633	4
3	3452	557.300424148793	3
3	3455	558.242147746029	2
3	3458	558.86917860601	1
3	3461	559.292184171871	0
3	3465	559.509756331689	1
3	3467	559.522937091782	2
3	3474	559.848024589415	3
3	3487	560.555453528229	4
3	3554	568.959821922355	5
3	3611	576.964684400963	6
3	3647	582.642301739627	7
3	3666	584.90360953525	8
3	3668	584.991827864798	9
3	3702	589.911465241455	10
3	3712	591.190474100236	11
3	3726	594.072736056663	10
3	3735	595.45746541406	11
3	3736	595.749024492597	10
3	3739	596.322417687114	9
3	3742	596.947976691045	8
3	3745	597.472392242823	7
3	3748	598.0594190795	6
3	3751	598.727507428734	5
3	3754	599.138205300227	4
3	3757	599.714409958154	3
3	3760	600.115699750746	2
3	3764	600.236867813234	3
3	3766	600.520183086503	4
3	3767	600.564071509011	3
3	3771	601.18926790146	4
3	3772	601.424619194262	3
3	3776	601.468555856886	4
3	3778	602.227337919663	5
3	3779	602.330931532851	4
3	3782	602.891623476942	3
3	3791	603.999154517599	4
3	3793	604.189398959344	5
3	3794	604.551780852212	4
3	3797	604.996152743094	3
3	3801	605.146567929499	4
3	3803	605.175291471136	5
3	3809	605.70783498164	6
3	3814	606.424999282221	7
3	3821	607.146485071056	8
3	3823	607.324022424501	9
3	3827	608.349005693898	8
3	3833	608.513563812991	9
3	3845	610.152134730367	10
3	3862	612.158289542569	11
3	3866	612.826138594299	12
3	3876	613.809835896184	13
3	3885	615.296083759286	12
3	3906	617.534648354652	13
3	3945	622.601283523535	12
3	3958	623.891498384415	13
3	3976	626.292606689619	14
3	3977	626.595171069867	13
3	3988	627.778439650683	14
3	3992	628.603557419871	13
3	4000	629.694978569775	12
3	4008	631.224896152831	11
3	4011	631.670521217446	10
3	4015	631.930348931358	11
3	4016	632.101453684365	10
3	4019	633.022279959825	9
3	4023	633.056641715781	10
3	4025	633.156917987102	11
3	4026	633.474256090262	10
3	4029	633.998605625472	9
3	4033	634.060683113419	10
3	4035	634.23609826373	11
3	4036	634.554733446148	10
3	4039	634.967749442207	9
3	4043	635.064630110518	10
3	4045	635.235456097558	11
3	4047	635.419344877664	12
3	4048	635.94114946411	11
3	4054	636.610559292726	12
3	4058	637.529269150924	11
3	4064	637.645653884377	12
3	4068	638.505607003299	11
3	4071	639.2009530921	10
3	4075	639.249333529009	11
3	4077	639.657166865045	12
3	4078	639.745134104183	11
3	4082	639.966118904445	12
3	4083	640.548489197064	11
3	4087	640.807556487432	12
3	4088	641.382453321712	11
3	4092	641.398347252075	12
3	4094	641.768786166296	13
3	4095	641.909828461334	12
3	4098	642.504853233602	11
3	4101	643.111577761779	10
3	4105	643.425361300888	11
3	4106	643.75794942719	10
3	4109	644.263054873795	9
3	4112	645.157029746893	8
3	4115	646.102383910586	7
3	4118	646.841181854718	6
3	4121	647.656335077156	5
3	4125	647.960811512756	6
3	4126	648.092393745203	5
3	4130	648.49198145357	6
3	4131	648.839037266374	5
3	4135	649.411476211486	6
3	4137	649.471190363216	7
3	4138	649.586090680072	6
3	4141	650.082051478699	5
3	4145	650.167540605475	6
3	4146	650.990432146611	5
3	4149	651.548494803207	4
3	4153	652.414781324578	5
3	4154	652.459272394655	4
3	4158	652.56392396195	5
3	4159	653.236149295699	4
3	4163	653.441387396006	5
3	4164	654.14004315068	4
3	4167	654.556614528084	3
3	4171	654.591029032143	4
3	4172	655.031267555989	3
3	4175	655.506442450266	2
3	4179	655.954768272844	3
3	4180	656.25456409268	2
3	4183	656.658645730139	1
3	4186	657.392208820907	0
3	4190	657.591158349078	1
3	4192	657.735007968673	2
3	4193	657.813812274858	1
3	4197	658.116944624511	2
3	4198	658.392710534064	1
3	4201	658.876523332856	0
3	4210	660.867376855764	1
3	4212	661.020596665611	2
3	4213	661.406991993265	1
3	4222	662.624908173062	2
3	4223	662.69742218815	1
3	4231	663.929004576851	0
3	4245	666.20075151387	1
3	4246	666.32708706362	0
3	4250	666.412601439642	1
3	4251	666.892464169579	0
3	4255	667.723155645059	1
3	4257	667.747110491619	2
3	4258	667.778151843695	1
3	4262	668.423708878181	2
3	4263	668.723571321413	1
3	4267	668.832821389285	2
3	4269	668.914669937616	3
3	4270	669.220386287382	2
3	4273	669.836612398502	1
3	4276	670.411416107368	0
3	4280	670.856605306273	1
3	4282	670.857874403797	2
3	4283	671.228118597621	1
3	4286	671.764938298378	0
3	4305	676.128542043849	1
3	4307	676.369581249337	2
3	4308	676.542812863794	1
3	4312	676.817776252435	2
3	4314	676.885400628833	3
3	4315	677.397050125814	2
3	4319	677.477183625495	3
3	4321	677.543183878425	4
3	4322	677.844863221851	3
3	4326	678.112771448753	4
3	4328	678.439653805452	5
3	4329	678.758222475379	4
3	4333	679.045575342284	5
3	4334	679.393897079547	4
3	4337	680.345718043448	3
3	4340	681.263554605526	2
3	4344	681.506030842994	3
3	4346	681.818503532995	4
3	4348	681.876926852705	5
3	4349	682.177101684232	4
3	4353	682.246263629859	5
3	4354	682.827722972036	4
3	4358	683.168477039665	5
3	4359	683.767165628225	4
3	4362	684.521256132713	3
3	4371	685.5714460378	4
3	4373	685.835323658484	5
3	4374	686.049800109314	4
3	4378	686.282399942487	5
3	4380	686.393318758307	6
3	4381	686.783335796287	5
3	4384	687.66683011801	4
3	4388	688.185704032965	5
3	4389	688.494207890947	4
3	4393	688.586561109515	5
3	4394	688.93360661204	4
3	4398	689.311399785746	5
3	4399	689.447923119236	4
3	4403	690.065209031572	5
3	4405	690.111040330225	6
3	4407	690.184961153628	7
3	4408	690.222663221704	6
3	4412	690.263772638478	7
3	4414	690.521377987654	8
3	4415	690.991652166108	7
3	4419	691.271552636468	8
3	4420	691.414023450166	7
3	4423	691.960276423451	6
3	4427	692.236661901141	7
3	4428	692.686047376702	6
3	4432	692.855174972452	7
3	4434	693.02412989383	8
3	4435	693.130161264781	7
3	4438	694.062289456101	6
3	4442	694.214866148458	7
3	4443	694.588890411574	6
3	4447	694.703744274788	7
3	4448	695.287479887027	6
3	4452	695.58317712487	7
3	4453	695.736436079917	6
3	4456	696.197699238928	5
3	4460	696.425487389488	6
3	4462	696.87487752654	7
3	4463	697.007377837934	6
3	4467	697.573434059799	7
3	4468	697.962728968179	6
3	4472	698.45435486387	7
3	4473	698.850293418449	6
3	4476	699.562755116737	5
3	4480	700.19539960898	6
3	4482	700.308885918394	7
3	4483	700.425522025126	6
3	4487	701.041929943557	7
3	4488	701.422658841602	6
3	4492	701.586952590524	7
3	4493	702.287301148718	6
3	4496	702.961063451843	5
3	4499	703.815464260021	4
3	4502	704.250902643764	3
3	4506	704.38181042625	4
3	4508	704.642575787701	5
3	4509	704.847329815022	4
3	4512	705.545862187921	3
3	4516	706.183357306569	4
3	4517	706.19022739363	3
3	4521	706.534625231104	4
3	4523	706.581301893925	5
3	4524	706.970121994113	4
3	4538	708.812769677971	5
3	4545	709.195519424628	6
3	4547	709.434877563163	7
3	4548	709.862709923844	6
3	4551	710.317574164608	5
3	4557	710.433834407495	6
3	4562	711.264402569153	7
3	4563	711.748675164917	6
3	4572	712.956282717351	7
3	4573	713.405824709322	6
3	4577	713.70146463266	7
3	4578	714.086525011539	6
3	4582	714.459109777609	7
3	4583	714.890579571306	6
3	4586	715.3485756497	5
3	4589	716.039728368177	4
3	4592	716.665674133376	3
3	4595	717.287850044864	2
3	4598	718.250487487261	1
3	4604	718.666247711749	2
3	4606	718.79052021775	3
3	4610	719.636559106792	2
3	4616	720.227381573133	3
3	4621	721.048944663655	4
3	4622	721.093453115375	3
3	4628	721.245902782117	4
3	4630	721.388025205076	5
3	4632	721.577074308471	6
3	4636	722.891648336883	5
3	4640	723.29067083072	6
3	4641	723.862720371654	5
3	4645	724.169924144094	6
3	4646	724.830338395118	5
3	4650	725.06957490938	6
3	4651	725.654553481248	5
3	4655	726.444359774944	6
3	4656	726.500973262089	5
3	4659	727.264275417114	4
3	4662	728.080015197732	3
3	4665	728.587669250565	2
3	4669	729.126658376509	3
3	4670	729.327140803552	2
3	4674	729.790758910808	3
3	4676	729.796990644271	4
3	4677	729.949978854098	3
3	4681	730.186936068125	4
3	4682	730.407825397105	3
3	4685	730.848933008323	2
3	4688	731.453856192725	1
3	4692	731.53233290865	2
3	4694	732.224054235399	3
3	4695	732.34208576629	2
3	4699	732.376213728273	3
3	4701	732.45119229208	4
3	4702	733.138308297108	3
3	4706	733.47941570029	4
3	4707	733.74272859987	3
3	4710	734.200499390868	2
3	4713	734.676189578428	1
3	4717	734.820416922048	2
3	4718	735.481668072949	1
3	4722	735.556583767482	2
3	4724	736.220801182645	3
3	4725	736.481025242164	2
3	4728	737.244702140904	1
3	4732	737.325836153972	2
3	4733	737.927053932297	1
3	4736	738.832705030787	0
3	4740	739.036519555848	1
3	4742	739.392020917132	2
3	4743	739.520845688191	1
3	4746	740.394931896646	0
3	4750	740.702433093448	1
3	4752	741.141432882074	2
3	4753	741.187503992403	1
3	4757	741.262716666462	2
3	4758	741.728160903147	1
3	4762	741.878154805792	2
3	4763	742.527757604709	1
3	4766	743.419014436854	0
3	4770	743.960150471422	1
3	4771	744.230185611835	0
3	4775	744.592676451922	1
3	4776	744.998613714855	0
3	4780	745.203053910745	1
3	4781	745.431859694058	0
3	4785	745.62691632693	1
3	4787	745.695255431664	2
3	4788	745.979462016709	1
3	4791	746.527092026183	0
3	4795	746.61122124228	1
3	4796	747.322768704556	0
3	4800	747.446268133098	1
3	4801	747.824778560931	0
3	4835	754.047892886831	1
3	4836	754.259784660747	0
3	4845	755.546749565617	1
3	4846	755.694966394946	0
3	4855	756.544917095283	1
3	4856	757.11183507539	0
3	4885	762.0873307072	1
3	4886	762.718490399446	0
3	4890	763.232076121748	1
3	4891	763.649086618589	0
3	4900	764.987915904538	1
3	4907	765.492005696946	2
3	4909	765.552353651253	3
3	4911	765.721334900771	4
3	4912	765.998570588823	3
3	4915	766.657082188861	2
3	4921	766.953144057098	3
3	4925	768.080588365286	2
3	4933	770.043955300222	1
3	4937	770.211631886074	2
3	4943	771.211868329704	1
3	4952	772.140937998977	2
3	4954	772.150880549023	3
3	4955	772.933955438607	2
3	4964	774.170926805926	3
3	4965	774.289021261581	2
3	4973	775.540149473431	1
3	4981	776.877133962171	0
3	4990	778.11930064435	1
3	4991	778.331594373737	0
3	5015	782.743866830065	1
3	5016	783.103603625461	0
3	5025	784.11548099181	1
3	5026	784.646841680841	0
3	5050	792.968412625606	1
3	5051	793.373292354441	0
3	5085	798.142797705799	1
3	5086	798.903343169023	0
3	5107	801.904999656774	1
3	5111	802.973828338578	0
3	5120	803.952123257443	1
3	5121	804.18790398536	0
3	5135	809.137788962896	1
3	5136	809.327614547665	0
3	5165	821.25991783051	1
3	5166	821.416249092351	0
3	5170	822.136918123965	1
3	5171	822.397469274848	0
3	5175	822.642638327422	1
3	5176	823.210829693553	0
3	5180	823.250733959545	1
3	5181	823.697198373507	0
3	5185	824.028533186164	1
3	5186	824.199196845441	0
3	5195	825.170441502852	1
3	5196	825.225194629048	0
3	5210	827.817491386527	1
3	5211	828.052446933112	0
3	5215	828.12290338485	1
3	5216	828.702436209631	0
3	5220	829.08459140743	1
3	5222	829.225127202393	2
3	5223	829.615232804159	1
3	5226	830.607368916015	0
3	5230	830.760230810818	1
3	5237	832.447862189713	2
3	5238	832.46879384734	1
3	5241	833.049653615498	0
3	5245	833.294521947222	1
3	5246	833.518413364024	0
3	5255	836.740603748422	1
3	5256	836.929231683137	0
3	5260	837.240052221727	1
3	5261	837.875372578409	0
3	5327	845.582544443802	1
3	5341	848.15487671662	0
3	5359	850.16468067281	1
3	5361	850.274227649489	2
3	5371	851.72538953705	3
3	5375	852.651086202356	2
3	5381	853.041951443543	3
3	5390	854.04451208372	4
3	5395	854.345045194325	5
3	5422	857.530704142168	6
3	5441	860.838978298379	5
3	5449	862.279740166988	4
3	5452	862.823365501499	3
3	5460	863.389055870748	4
3	5475	865.55332654474	5
3	5494	867.793405076237	6
3	5496	868.215177353331	7
3	5549	873.326014715378	8
3	5589	878.904694007008	9
3	5659	889.996597694645	10
3	5700	895.790348116947	11
3	5701	896.217527347054	10
3	5715	897.625535909246	11
3	5721	898.318685383486	10
3	5730	899.229389058248	11
3	5771	905.862300278244	10
3	5782	906.859106759874	11
3	5786	908.521475227548	10
3	5795	909.333821159049	11
3	5796	910.22454011347	10
3	5799	911.15008583879	9
3	5803	911.185830274642	10
3	5810	911.767739393488	11
3	5811	912.51057578395	10
3	5820	913.6153954731	11
3	5821	913.840403359661	10
3	5830	914.882362536488	11
3	5836	915.99144169567	10
3	5845	917.25237422073	11
3	5846	917.843449894058	10
3	5855	918.621223593358	11
3	5856	919.043715446068	10
3	5859	919.689093648221	9
3	5867	920.610004520368	8
3	5873	920.966360759681	9
3	5877	921.941823968336	8
3	5885	923.518600958258	7
3	5888	924.157822861381	6
3	5892	924.363523093281	7
3	5894	924.619004847794	8
3	5895	924.743389570804	7
3	5898	925.452043073063	6
3	5901	926.324807886078	5
3	5904	926.985812313014	4
3	5908	927.241886181588	5
3	5910	927.391333988763	6
3	5911	927.610706997474	5
3	5915	927.776072853127	6
3	5922	928.390926244575	7
3	5923	928.794293063411	6
3	5929	928.914250170564	7
3	5931	929.129029641106	8
3	5935	930.664918436713	7
3	5939	930.921469057317	8
3	5946	931.6323667562	9
3	5947	932.105462410205	8
3	5955	933.645271760641	7
3	5963	934.809300375912	6
3	5967	934.91536428859	7
3	5968	935.669039730677	6
3	5971	936.572680889718	5
3	5974	937.365191171873	4
3	5977	937.795318853711	3
3	5981	938.508164847461	4
3	5983	938.569106938063	5
3	5984	938.686905827648	4
3	5988	938.881722653311	5
3	5989	939.204300274323	4
3	5993	939.459994632619	5
3	5994	939.732181110927	4
3	5998	940.213904663805	5
3	5999	940.377396932985	4
3	6002	940.912936350839	3
3	6006	941.198004176518	4
3	6008	941.497273067912	5
3	6009	941.518548055641	4
3	6013	942.163252494993	5
3	6014	942.375113205887	4
3	6018	942.546311864797	5
3	6019	942.962752064127	4
3	6022	943.472790634861	3
3	6026	943.499536711062	4
3	6028	943.924292983319	5
3	6037	944.598826439676	6
3	6041	945.611203883025	5
3	6044	946.334406625056	4
3	6048	946.384621469423	5
3	6049	947.053812458129	4
3	6052	947.703688990646	3
3	6055	948.188632635022	2
3	6059	948.225624704442	3
3	6060	948.903406728287	2
3	6063	949.434506026138	1
3	6067	949.832102068707	2
3	6069	949.941758801591	3
3	6070	950.015441739787	2
3	6074	950.185275113353	3
3	6076	950.580931697357	4
3	6077	950.65850260681	3
3	6080	951.350234456961	2
3	6083	951.77826200211	1
3	6087	951.869454245428	2
3	6088	952.542454095507	1
3	6091	953.314166532733	0
3	6095	953.784494355053	1
3	6096	953.917129244885	0
3	6100	954.126298692518	1
3	6101	954.327243495916	0
3	6112	955.418189394412	1
3	6119	956.195119064987	2
3	6121	956.522608631821	3
3	6130	958.325399828932	2
3	6139	959.231367433083	3
3	6140	959.856861068678	2
3	6149	960.708298859579	3
3	6150	961.162927667607	2
3	6153	961.854736061437	1
3	6156	962.712816930931	0
3	6165	964.894885989481	1
3	6166	965.729742207542	0
3	6170	966.113229291337	1
3	6177	966.788234670876	2
3	6178	967.238779318543	1
3	6186	968.794066449558	0
3	6210	971.716448856126	1
3	6211	972.077722483007	0
3	6215	972.200908711232	1
3	6222	973.096296008422	2
3	6223	973.60820023424	1
3	6226	974.050568884909	0
3	6255	977.997888888553	1
3	6257	978.061871040713	2
3	6258	978.701369077282	1
3	6261	979.675163363654	0
3	6275	981.117722617769	1
3	6276	981.422650841234	0
3	6280	981.520038966538	1
3	6281	982.120893096069	0
3	6285	982.250978856905	1
3	6287	982.36658855892	2
3	6288	982.959625364265	1
3	6291	983.764324257833	0
3	6295	983.988561932491	1
3	6296	984.496401543946	0
3	6300	984.513092797183	1
3	6301	985.394907465189	0
3	6305	985.808094476418	1
3	6306	985.874573597622	0
3	6310	986.125616095506	1
3	6311	986.591233243032	0
3	6315	987.343470639765	1
3	6316	987.524681620703	0
3	6335	992.123293811506	1
3	6336	993.030992469847	0
3	6365	997.38734778455	1
3	6367	997.435956418282	2
3	6368	998.077054132744	1
3	6371	999.04404846969	0
3	6375	999.048506759018	1
3	6376	999.85311051378	0
3	6385	1001.596188621138	1
3	6387	1001.608364357067	2
3	6388	1002.379063826105	1
3	6391	1003.077094988156	0
3	6395	1003.301660340412	1
3	6396	1003.887387772793	0
3	6405	1005.809630089426	1
3	6406	1006.088075783631	0
3	6430	1013.618981774529	1
3	6431	1014.300308345827	0
3	6435	1014.360752990647	1
3	6436	1015.241418458159	0
3	6445	1016.7231444191	1
3	6446	1016.726994623581	0
3	6450	1017.306417044652	1
3	6451	1017.452798975643	0
3	6455	1017.502260320198	1
3	6456	1018.294627502665	0
3	6470	1021.481105115584	1
3	6471	1021.946485551248	0
3	6482	1025.807504823766	1
3	6487	1026.261827059684	2
3	6489	1026.391541901329	3
3	6490	1027.065986652116	2
3	6509	1029.221693377296	3
3	6530	1031.940725191763	4
3	6610	1043.447870677185	5
3	6641	1047.162958853293	6
3	6666	1050.701005183656	7
3	6684	1053.357152087342	8
3	6685	1053.754524753061	7
3	6688	1054.683312757364	6
3	6692	1055.051556921039	7
3	6693	1055.551811683182	6
3	6696	1056.485826299204	5
3	6700	1056.585390190647	6
3	6701	1057.081042278329	5
3	6705	1057.341930140666	6
3	6706	1057.827257847743	5
3	6710	1058.004518501935	6
3	6711	1058.692745562553	5
3	6715	1059.379808380163	6
3	6716	1059.505585461299	5
3	6720	1060.3540015159	6
3	6721	1060.384735504075	5
3	6725	1061.176477452353	6
3	6726	1061.339636369378	5
3	6730	1061.685920028884	6
3	6731	1062.060429787126	5
3	6734	1062.702096464953	4
3	6737	1063.463379590914	3
3	6740	1063.898181424991	2
3	6744	1064.016426306928	3
3	6746	1064.046967629351	4
3	6748	1064.165088642213	5
3	6750	1064.557076703671	6
3	6751	1064.632305711278	5
3	6754	1065.050869546415	4
3	6757	1065.632986476835	3
3	6761	1065.645626477214	4
3	6763	1065.677452260276	5
3	6764	1066.111320528578	4
3	6767	1066.813423265893	3
3	6771	1066.923945040567	4
3	6773	1066.998272151152	5
3	6775	1067.317248912798	6
3	6776	1067.556449008737	5
3	6780	1068.18455103976	6
3	6781	1068.27087321035	5
3	6784	1069.092606402378	4
3	6787	1069.88608142231	3
3	6790	1070.407169968592	2
3	6794	1070.44885757615	3
3	6796	1070.955969114707	4
3	6797	1071.330389082668	3
3	6800	1072.29128902024	2
3	6803	1072.700673362709	1
3	6806	1073.169744084173	0
3	6820	1075.774309077339	1
3	6821	1075.788347801693	0
3	6825	1075.842750691605	1
3	6827	1076.419925557736	2
3	6828	1076.483514893694	1
3	6832	1076.6108467081	2
3	6833	1076.915960683474	1
3	6844	1078.319414856832	2
3	6848	1078.826085684901	1
3	6852	1079.414571069612	2
3	6854	1079.538970976088	3
3	6856	1079.604290454891	4
3	6857	1079.76033121998	3
3	6861	1080.056995428163	4
3	6862	1080.275054100841	3
3	6868	1080.600252166131	4
3	6875	1081.275315082791	5
3	6885	1082.427189136526	6
3	6901	1084.717883167264	5
3	6904	1085.685641924838	4
3	6907	1086.173658451472	3
3	6916	1087.75925989696	4
3	6917	1087.892747117799	3
3	6920	1088.61212151161	2
3	6923	1089.216858546097	1
3	6926	1089.868403292062	0
3	6930	1089.96016102812	1
3	6931	1090.415001979457	0
3	6935	1090.583427663207	1
3	6936	1091.01791221405	0
3	6940	1091.40931320543	1
3	6941	1091.644297556147	0
3	6945	1092.073013979771	1
3	6947	1092.172473687462	2
3	6948	1092.344657699285	1
3	6951	1092.850734369304	0
3	6970	1096.507221793788	1
3	6971	1096.672158441659	0
3	6977	1096.868404444768	1
3	6982	1097.360928722061	2
3	6984	1097.377797347169	3
3	6985	1098.081874317456	2
3	6999	1100.093964990359	3
3	7000	1100.311611289777	2
3	7009	1101.364888445975	3
3	7011	1101.639144854356	4
3	7012	1101.760188445322	3
3	7015	1102.43992683614	2
3	7019	1102.51384665257	3
3	7025	1103.597865022406	2
3	7029	1104.131548147493	3
3	7030	1104.229219508324	2
3	7034	1104.302756819741	3
3	7035	1104.82871637979	2
3	7039	1105.438293746144	3
3	7040	1105.567850080192	2
3	7043	1106.082307777055	1
3	7046	1106.942902753981	0
3	7050	1107.006213408798	1
3	7051	1107.624815123122	0
3	7055	1108.496745440966	1
3	7056	1108.510816925404	0
3	7065	1109.272556329632	1
3	7067	1109.310221474025	2
3	7068	1110.075720102491	1
3	7074	1110.824717689205	2
3	7078	1111.829577878827	1
3	7087	1112.954741822319	2
3	7088	1113.196034016984	1
3	7092	1113.812948632993	2
3	7093	1114.071111064043	1
3	7097	1114.132302525611	2
3	7098	1114.585912039515	1
3	7102	1114.68296121513	2
3	7103	1115.026679756737	1
3	7107	1115.522490268886	2
3	7109	1115.742793856675	3
3	7110	1115.98266428212	2
3	7114	1116.108507091144	3
3	7115	1116.728926367884	2
3	7121	1117.406398143907	3
3	7125	1118.398681470998	2
3	7133	1119.758904881696	1
3	7142	1120.833002245045	2
3	7144	1120.9297230711	3
3	7146	1121.147564486671	4
3	7147	1121.182918115067	3
3	7155	1122.320644117021	2
3	7164	1123.801282635737	3
3	7165	1123.998459343859	2
3	7174	1125.137794982709	3
3	7175	1125.382886748588	2
3	7183	1126.555520819653	1
3	7189	1126.727351182527	2
3	7193	1128.070348723246	1
3	7202	1129.120686149985	2
3	7204	1129.220679634935	3
3	7205	1129.848689360231	2
3	7208	1130.346247741639	1
3	7211	1130.808975788125	0
3	7230	1134.198429369305	1
3	7237	1134.979939847453	2
3	7239	1135.012528287627	3
3	7240	1135.264724627729	2
3	7248	1136.442459334699	1
3	7251	1136.84703269553	0
3	7255	1137.044120088167	1
3	7256	1137.435674411604	0
3	7260	1137.471707918982	1
3	7262	1137.486410021805	2
3	7264	1137.896156022537	3
3	7265	1138.274586123774	2
3	7269	1138.465170510079	3
3	7270	1138.675215758929	2
3	7274	1139.397168458961	3
3	7275	1139.598624775778	2
3	7278	1140.167064801683	1
3	7281	1140.871296829204	0
3	7290	1141.613677245586	1
3	7291	1142.185956116018	0
3	7300	1143.371266315553	1
3	7301	1143.710044469449	0
3	7305	1143.949147441349	1
3	7307	1144.040809662278	2
3	7311	1144.391766064901	3
3	7316	1144.863603706975	4
3	7317	1145.344522966954	3
3	7320	1145.851482281831	2
3	7324	1145.897328857704	3
3	7326	1146.154156732975	4
3	7333	1147.239231106249	5
3	7334	1147.513830428848	4
3	7343	1148.298028311573	5
3	7344	1148.940892493444	4
3	7348	1149.058614772555	5
3	7355	1150.591404850225	6
3	7356	1150.68754793871	5
3	7359	1151.29756903434	4
3	7363	1151.425907506658	5
3	7365	1151.754104715016	6
3	7366	1152.182012214044	5
3	7369	1152.622895051118	4
3	7378	1153.364951620229	5
3	7379	1153.738406570115	4
3	7385	1154.040854816566	5
3	7397	1155.683935287035	6
3	7402	1156.120499616851	7
3	7403	1156.529962730687	6
3	7406	1157.031523301545	5
3	7412	1157.235221059595	6
3	7421	1159.215397302481	5
3	7425	1159.286444219787	6
3	7426	1159.810415768345	5
3	7429	1160.603191202927	4
3	7433	1160.881799970171	5
3	7435	1160.972412466494	6
3	7437	1161.037120033868	7
3	7438	1161.284780086625	6
3	7442	1161.685339057749	7
3	7443	1162.080993593625	6
3	7447	1162.305419503167	7
3	7448	1162.633285133728	6
3	7451	1163.193072854729	5
3	7454	1163.967607348134	4
3	7458	1164.332229781612	5
3	7459	1164.760933493591	4
3	7463	1165.390081972377	5
3	7465	1165.569169005402	6
3	7466	1165.668497420197	5
3	7469	1166.622554094579	4
3	7473	1166.828270665127	5
3	7474	1167.153670099659	4
3	7478	1167.303259264955	5
3	7480	1167.344686613261	6
3	7481	1168.040321557971	5
3	7484	1168.559195191928	4
3	7487	1169.405423830732	3
3	7490	1169.932250384291	2
3	7494	1170.270139290996	3
3	7495	1170.57081176271	2
3	7498	1171.469615302284	1
3	7502	1171.787603288303	2
3	7504	1171.834854344704	3
3	7505	1172.242164827048	2
3	7508	1172.793775588696	1
3	7512	1172.8883778808	2
3	7514	1172.924341306422	3
3	7516	1173.561272336393	4
3	7518	1173.637899179397	5
3	7519	1173.650416978638	4
3	7522	1174.320867234192	3
3	7525	1174.88356670528	2
3	7529	1175.044226209533	3
3	7530	1175.36609401028	2
3	7536	1176.026889818242	3
3	7541	1176.62001204537	4
3	7542	1176.938729298863	3
3	7545	1177.600354825382	2
3	7549	1177.660808567962	3
3	7553	1178.305247063555	4
3	7570	1180.325624254599	5
3	7577	1181.071351241226	6
3	7581	1181.985303916506	5
3	7584	1182.433178195547	4
3	7588	1182.476573867184	5
3	7592	1182.958987183224	6
3	7597	1183.16260119033	7
3	7626	1186.440280992665	8
3	7640	1188.714563462096	7
3	7649	1189.619437294322	8
3	7650	1190.000814232188	7
3	7658	1191.273778893664	6
3	7667	1191.857736224223	7
3	7669	1191.881371905202	8
3	7670	1192.150494582909	7
3	7679	1193.03046163434	8
3	7681	1193.602622903614	9
3	7682	1193.604907402028	8
3	7690	1195.377368628331	7
3	7694	1195.460289430485	8
3	7701	1196.231192935286	9
3	7702	1197.023558090026	8
3	7711	1197.81018757454	9
3	7712	1198.521985822594	8
3	7716	1198.974423002877	9
3	7717	1199.13171541491	8
3	7721	1199.371897122734	9
3	7725	1199.474497173428	10
3	7729	1200.369726067459	9
3	7737	1201.729865645994	8
3	7745	1203.301258421228	7
3	7751	1203.754037751637	8
3	7756	1204.013439933911	9
3	7757	1204.755471187788	8
3	7760	1205.355827849316	7
3	7763	1205.959338307944	6
3	7767	1206.027339148673	7
3	7768	1206.580157277179	6
3	7776	1207.907538021966	5
3	7785	1208.634084864936	6
3	7786	1208.986774446308	5
3	7792	1209.095103941104	6
3	7797	1209.881531222777	7
3	7801	1210.330367636575	8
3	7803	1210.601636472261	9
3	7812	1212.146916064486	8
3	7820	1213.600757757207	7
3	7823	1214.387970432086	6
3	7827	1214.5990816794	7
3	7833	1215.770880152989	6
3	7842	1216.478166360898	7
3	7844	1216.692428370504	8
3	7845	1216.762440114148	7
3	7848	1217.408237814909	6
3	7851	1218.314297705801	5
3	7854	1218.84070966682	4
3	7858	1218.965107100064	5
3	7859	1219.488395950483	4
3	7862	1220.014958912745	3
3	7866	1220.202293150521	4
3	7868	1220.361939478134	5
3	7869	1220.577935822593	4
3	7877	1222.117756977683	3
3	7881	1222.300984621657	4
3	7888	1223.296963372819	5
3	7889	1223.708330999041	4
3	7893	1224.172755038374	5
3	7894	1224.250368007883	4
3	7898	1224.636840661169	5
3	7904	1225.884500988951	4
3	7910	1226.35187745382	5
3	7915	1226.586731038971	6
3	7917	1226.634319532268	7
3	7919	1226.715877298555	8
3	7920	1227.101367545879	7
3	7923	1227.670105082268	6
3	7937	1229.402168678044	7
3	7948	1231.821876162716	6
3	7956	1233.413242218323	5
3	7964	1234.782849874958	4
3	7973	1235.725205036741	5
3	7974	1235.782209983101	4
3	7978	1235.830634711267	5
3	7980	1235.978373156955	6
3	7981	1236.663041516399	5
3	7984	1237.382232320687	4
3	7987	1238.096941064025	3
3	7991	1238.291056017267	4
3	7993	1238.732284163764	5
3	7994	1238.921059375914	4
3	7998	1239.323662707025	5
3	7999	1239.395304657897	4
3	8003	1239.647891968094	5
3	8005	1239.736576332212	6
3	8006	1240.054069737863	5
3	8010	1240.42845526058	6
3	8011	1240.554811147839	5
3	8014	1241.030129230308	4
3	8017	1241.835312068003	3
3	8020	1242.251298047562	2
3	8024	1242.53331897066	3
3	8026	1242.908337316998	4
3	8027	1243.169865269779	3
3	8031	1243.301486800331	4
3	8032	1243.946650950012	3
3	8035	1244.501890999318	2
3	8038	1245.385940267851	1
3	8041	1246.363810565888	0
3	8045	1247.055900820915	1
3	8046	1247.339721997648	0
3	8055	1248.539430457217	1
3	8057	1248.939693466693	2
3	8058	1249.2177680134	1
3	8062	1249.319498033739	2
3	8064	1249.458493835152	3
3	8066	1249.521921453923	4
3	8067	1249.644429504608	3
3	8071	1249.886923663192	4
3	8072	1250.450342282017	3
3	8076	1250.573805316209	4
3	8077	1251.291112362703	3
3	8080	1252.140352252887	2
3	8083	1253.037392021685	1
3	8086	1253.525648859578	0
3	8095	1254.671982947542	1
3	8097	1254.890348345025	2
3	8099	1255.113757102937	3
3	8100	1255.139158172146	2
3	8104	1255.433200819956	3
3	8105	1255.880736961294	2
3	8109	1256.049604360483	3
3	8111	1256.455868437992	4
3	8112	1256.693545737755	3
3	8116	1256.695554424374	4
3	8117	1257.187814927366	3
3	8120	1257.841269781659	2
3	8123	1258.792372816275	1
3	8126	1259.788146267724	0
3	8130	1260.136540185882	1
3	8131	1260.560834190561	0
3	8135	1260.638370155308	1
3	8136	1261.314995233374	0
3	8155	1269.497639592045	1
3	8157	1269.693381349191	2
3	8158	1270.395902252208	1
3	8162	1270.696779382273	2
3	8163	1271.112806237081	1
3	8166	1271.611672504397	0
3	8170	1272.237325160164	1
3	8171	1272.345211511442	0
3	8180	1273.212471487714	1
3	8187	1274.409123841704	2
3	8188	1274.446602641866	1
3	8194	1275.02047901546	2
3	8199	1275.388777919867	3
3	8200	1275.831486740458	2
3	8208	1277.066125700093	1
3	8212	1277.153170411231	2
3	8219	1278.187221344762	3
3	8226	1278.715069808479	4
3	8227	1278.955520645372	3
3	8230	1279.696628388326	2
3	8234	1279.786373795494	3
3	8235	1280.484022630454	2
3	8238	1281.463391254452	1
3	8241	1282.187842510437	0
3	8255	1286.839811710756	1
3	8256	1287.046989401325	0
3	8260	1287.340537603613	1
3	8261	1287.741237013356	0
3	8265	1288.111723158844	1
3	8266	1288.259986978059	0
3	8270	1288.402882188873	1
3	8272	1288.573231238418	2
3	8274	1288.9364793604	3
3	8275	1289.193899592606	2
3	8278	1289.685977341596	1
3	8281	1290.356250359712	0
3	8307	1295.220726294652	1
3	8311	1295.815271520491	0
3	8320	1297.037380865281	1
3	8322	1297.129839023626	2
3	8324	1297.258367116028	3
3	8325	1297.362156961595	2
3	8329	1297.811906083973	3
3	8330	1297.873571891121	2
3	8334	1297.914588998035	3
3	8335	1298.737272115906	2
3	8339	1298.900723841096	3
3	8340	1299.630142801644	2
3	8343	1300.267414348636	1
3	8346	1300.920548183721	0
3	8350	1301.048547592461	1
3	8351	1301.603204371052	0
3	8355	1301.84782888897	1
3	8357	1302.42049153917	2
3	8358	1302.546688036498	1
3	8362	1302.633944485725	2
3	8363	1303.093766434182	1
3	8367	1303.342201268348	2
3	8368	1303.5996251275	1
3	8371	1304.566198148782	0
3	8380	1305.428065792923	1
3	8382	1305.70218266281	2
3	8383	1306.055362954519	1
3	8386	1306.529031950345	0
3	8390	1306.780383082013	1
3	8391	1307.252372194564	0
3	8395	1307.475509537227	1
3	8397	1307.625687852041	2
3	8399	1307.906858669986	3
3	8401	1308.007501156582	4
3	8402	1308.071842457976	3
3	8405	1308.593554622184	2
3	8409	1308.633542469876	3
3	8410	1309.041834379004	2
3	8413	1309.837136282229	1
3	8417	1310.355189666317	2
3	8418	1310.835975139977	1
3	8421	1311.65632584702	0
3	8425	1311.673542883142	1
3	8427	1311.795592319142	2
3	8429	1311.810191364942	3
3	8430	1312.636058686923	2
3	8434	1312.688629155328	3
3	8436	1312.929776116652	4
3	8437	1313.49531516318	3
3	8441	1313.849762922444	4
3	8442	1314.372248306282	3
3	8446	1314.737328230002	4
3	8447	1315.350560875161	3
3	8451	1315.435458124072	4
3	8452	1315.909963747923	3
3	8456	1316.203111481527	4
3	8458	1316.412153748472	5
3	8459	1316.777014363155	4
3	8463	1317.058374508062	5
3	8464	1317.466631840373	4
3	8467	1318.095729199907	3
3	8470	1318.970115945831	2
3	8473	1319.407134839816	1
3	8476	1319.909258653054	0
3	8485	1321.049076142185	1
3	8486	1321.322330173769	0
3	8495	1323.992161691424	1
3	8496	1324.316436231225	0
3	8500	1324.319773949324	1
3	8501	1325.181764356415	0
3	8505	1325.292069093286	1
3	8507	1325.800076112236	2
3	8508	1325.890897360114	1
3	8512	1326.217019214039	2
3	8513	1326.345438115993	1
3	8522	1327.525849155168	2
3	8523	1327.867721019634	1
3	8527	1327.999266666691	2
3	8541	1329.227684937504	3
3	8546	1329.777943647296	4
3	8548	1329.90262625173	5
3	8550	1330.16659045889	6
3	8551	1330.516393616744	5
3	8557	1330.64596664726	6
3	8559	1330.697915214657	7
3	8563	1331.847581394291	6
3	8566	1332.305554589531	5
3	8575	1333.480010605408	6
3	8576	1333.71354836672	5
3	8584	1335.367287267087	4
3	8592	1336.687602830812	3
3	8598	1337.113742382751	4
3	8602	1337.89704601834	3
3	8611	1338.96675367929	4
3	8612	1339.68814324168	3
3	8620	1341.057502114209	2
3	8629	1341.804802155338	3
3	8641	1343.340120787588	4
3	8647	1345.143225225103	3
3	8653	1345.741162163372	4
3	8658	1345.823947143819	5
3	8659	1346.766088254	4
3	8667	1348.146087708133	3
3	8670	1348.75557077331	2
3	8678	1350.104315968645	1
3	8682	1350.268952516612	2
3	8686	1350.594201567656	3
3	8691	1351.349171159031	4
3	8692	1351.508449586477	3
3	8695	1352.044827982686	2
3	8699	1352.264361307816	3
3	8706	1352.910711776828	4
3	8707	1353.18325065672	3
3	8711	1353.412982918335	4
3	8718	1354.370260515921	5
3	8724	1355.397075622572	4
3	8727	1355.970637508339	3
3	8730	1356.887667780227	2
3	8733	1357.506981102747	1
3	8741	1359.005989738644	0
3	8747	1359.128708858965	1
3	8749	1359.37543322609	2
3	8754	1359.944631453815	3
3	8761	1360.271065043441	4
3	8763	1360.282972345096	5
3	8764	1360.715226921669	4
3	8772	1361.923657875505	3
3	8781	1362.383637057636	4
3	8782	1363.12025525998	3
3	8786	1363.494210176383	4
3	8793	1364.272530628083	5
3	8795	1364.767415013853	6
3	8796	1365.069482761619	5
3	8805	1365.902452608733	6
3	8806	1366.005354993835	5
3	8815	1367.12441093561	6
3	8816	1367.337573939653	5
3	8822	1367.472835915637	6
3	8827	1368.060626655638	7
3	8828	1368.723020216681	6
3	8831	1369.608717773899	5
3	8834	1370.561499783907	4
3	8837	1371.535871690556	3
3	8841	1371.794914664638	4
3	8842	1372.228097184512	3
3	8845	1372.643038651531	2
3	8849	1373.002592215312	3
3	8851	1373.063115904139	4
3	8852	1373.516616346685	3
3	8856	1374.134288854849	4
3	8857	1374.279669289149	3
3	8861	1374.73147898909	4
3	8862	1374.890864324661	3
3	8866	1375.123277240145	4
3	8867	1375.692649619512	3
3	8871	1375.993623877368	4
3	8873	1376.326622137562	5
3	8874	1376.514764847511	4
3	8877	1377.200386643966	3
3	8881	1377.377441800112	4
3	8882	1377.799055747592	3
3	8886	1378.066895939242	4
3	8887	1378.435101432863	3
3	8891	1378.637240202521	4
3	8892	1379.315404161389	3
3	8896	1379.885577395706	4
3	8897	1380.028583869009	3
3	8900	1380.875913054493	2
3	8904	1380.932705777124	3
3	8906	1381.013811877351	4
3	8907	1381.280643433935	3
3	8911	1381.322384947442	4
3	8913	1381.34808927981	5
3	8915	1381.913569012472	6
3	8916	1382.179460820972	5
3	8919	1383.029809245092	4
3	8923	1383.094081859258	5
3	8924	1383.668340850013	4
3	8928	1383.975903946862	5
3	8929	1384.114853958969	4
3	8932	1385.061062435989	3
3	8935	1385.768354589629	2
3	8938	1386.699760024806	1
3	8941	1387.44951512804	0
3	8950	1388.703378699843	1
3	8951	1389.110526315864	0
3	8957	1389.520190302228	1
3	8962	1390.455270454208	2
3	8964	1390.456483581142	3
3	8965	1390.766180295726	2
3	8974	1391.410940134758	3
3	8976	1391.897073367364	4
3	8977	1392.0795378976	3
3	8986	1393.258735013274	4
3	8987	1393.540416168977	3
3	8995	1394.642490523213	2
3	9001	1394.85532693123	3
3	9005	1396.133317177182	2
3	9008	1397.098575558698	1
3	9011	1397.792165245533	0
3	9015	1398.473372544195	1
3	9016	1398.623599069051	0
3	9020	1398.86904155444	1
3	9022	1399.169134224474	2
3	9023	1399.343169783519	1
3	9027	1399.529951595469	2
3	9028	1400.184401376264	1
3	9032	1400.312477266557	2
3	9034	1400.623405685309	3
3	9036	1400.627228221706	4
3	9037	1401.135996734535	3
3	9041	1401.243988250328	4
3	9042	1402.083129493657	3
3	9046	1402.085010492153	4
3	9047	1402.950683250648	3
3	9051	1403.320233570643	4
3	9052	1403.473906429202	3
3	9055	1404.097333123904	2
3	9058	1404.651112790728	1
3	9061	1405.201391695622	0
3	9075	1408.100496374201	1
3	9077	1408.124686245596	2
3	9078	1408.281625925482	1
3	9081	1408.8854558739	0
3	9085	1408.983976916184	1
3	9087	1409.638787509018	2
3	9088	1409.741166340758	1
3	9092	1410.188716265961	2
3	9093	1410.38766160683	1
3	9097	1410.466757372124	2
3	9098	1410.959936869203	1
3	9102	1411.193182309265	2
3	9104	1411.338240866981	3
3	9105	1411.639370640566	2
3	9109	1411.785442802575	3
3	9110	1412.383088420577	2
3	9114	1412.660752004825	3
3	9115	1413.279337587034	2
3	9119	1413.498982262181	3
3	9120	1413.920277543937	2
3	9124	1414.04675534107	3
3	9125	1414.878206400679	2
3	9129	1415.05386338736	3
3	9130	1415.338880640607	2
3	9134	1415.977542805802	3
3	9135	1416.038628526091	2
3	9138	1416.811503644766	1
3	9142	1416.909593636821	2
3	9144	1417.121649378434	3
3	9145	1417.325015955291	2
3	9149	1417.666719041663	3
3	9150	1417.756978052681	2
3	9153	1418.404616316281	1
3	9156	1419.007072138846	0
3	9165	1420.697100371456	1
3	9166	1421.320007701734	0
3	9170	1421.510048448116	1
3	9171	1422.050498072853	0
3	9177	1422.390667466916	1
3	9182	1423.080335177515	2
3	9183	1423.272084333052	1
3	9186	1423.752139032356	0
3	9195	1425.358971230625	1
3	9196	1425.468626681136	0
3	9200	1425.70113590276	1
3	9201	1425.914471055873	0
3	9210	1427.495187931391	1
3	9211	1428.388311844237	0
3	9215	1428.405184498506	1
3	9216	1429.149925026355	0
3	9220	1429.299366641928	1
3	9222	1429.307201837624	2
3	9223	1429.9693999617	1
3	9232	1431.170615915049	2
3	9233	1431.313096710911	1
3	9237	1432.070437933858	2
3	9238	1432.252759276528	1
3	9241	1432.89298479004	0
3	9245	1433.156103656546	1
3	9246	1433.892582457291	0
3	9250	1433.975221901974	1
3	9252	1434.125615966982	2
3	9254	1434.247514016261	3
3	9255	1434.590824824443	2
3	9259	1434.698078016958	3
3	9260	1435.309206097398	2
3	9263	1436.279061660554	1
3	9267	1437.096538810338	2
3	9268	1437.253839206194	1
3	9272	1437.559756115843	2
3	9273	1437.881677670089	1
3	9276	1438.514851908396	0
3	9285	1439.746781272337	1
3	9286	1439.954386905319	0
3	9290	1440.265733635156	1
3	9291	1440.832621961663	0
3	9300	1441.647707032299	1
3	9301	1442.214256001654	0
3	9310	1443.83031621467	1
3	9311	1443.88762766462	0
3	9345	1461.552424722381	1
3	9346	1462.339648417541	0
3	9350	1462.921864927838	1
3	9351	1463.280883619161	0
3	9355	1464.05391010491	1
3	9356	1464.10841748381	0
3	9360	1464.454286707028	1
3	9361	1464.961241912208	0
3	9370	1467.759665408907	1
3	9371	1467.862943056021	0
3	9375	1468.362470022203	1
3	9376	1468.850071938923	0
3	9380	1469.398345975607	1
3	9381	1469.587498261854	0
3	9385	1469.591890299098	1
3	9386	1470.032280526105	0
3	9390	1470.053678578846	1
3	9392	1470.271915802308	2
3	9393	1470.722511690091	1
3	9396	1471.177729167584	0
3	9405	1472.204654052734	1
3	9406	1472.43057453544	0
3	9410	1472.902068898666	1
3	9411	1473.295660974459	0
3	9420	1475.150066958712	1
3	9421	1475.198009398441	0
3	9440	1478.110455051624	1
3	9441	1478.441112286288	0
3	9550	1503.521589841588	1
3	9551	1503.783520839909	0
3	9560	1505.101762280443	1
3	9561	1505.474397837777	0
3	9570	1506.676585340819	1
3	9571	1507.131062514219	0
3	9585	1508.891961731533	1
3	9639	1515.396293526661	2
3	9689	1521.965707714716	3
3	9698	1522.799741539456	4
3	9702	1523.182233206696	5
3	9745	1529.713713109977	6
3	9746	1529.84015581056	5
3	9754	1530.937750508194	4
3	9763	1531.837367950737	5
3	9764	1532.471295790956	4
3	9773	1532.96788000057	5
3	9775	1533.10050018485	6
3	9776	1533.872870396986	5
3	9779	1534.67282089924	4
3	9783	1534.69242560173	5
3	9789	1536.249151374563	4
3	9793	1536.930747818549	5
3	9794	1537.152020348958	4
3	9797	1537.701987459348	3
3	9801	1537.856758537927	4
3	9803	1538.152112776113	5
3	9804	1538.680542376987	4
3	9808	1538.822140183189	5
3	9810	1539.011438492689	6
3	9811	1539.273940755357	5
3	9814	1539.790323243826	4
3	9818	1539.992517937145	5
3	9819	1540.534441844211	4
3	9823	1541.203453548755	5
3	9824	1541.456372366124	4
3	9832	1543.042603460676	3
3	9840	1544.51362183874	2
3	9844	1544.962141837907	3
3	9846	1544.990848091907	4
3	9847	1545.275836567418	3
3	9853	1545.719470835408	4
3	9858	1545.829238820656	5
3	9859	1546.445954940864	4
3	9870	1547.736782588052	5
3	9877	1547.945215541599	6
3	9881	1548.905272837379	5
3	9895	1550.756994919406	6
3	9951	1557.880562574625	5
3	9965	1559.898893524601	6
3	9966	1559.980743234255	5
3	9977	1561.003455581684	6
3	9981	1562.452250152663	5
3	9989	1563.963587200338	4
3	9998	1564.607082007967	5
3	9999	1565.084734455798	4
3	10002	1565.512191298394	3
3	10005	1565.934552490222	2
3	10014	1566.847160351648	3
3	10015	1567.350159455626	2
3	10021	1567.805812817518	3
3	10023	1567.874413031387	4
3	10025	1568.049381173514	5
3	10030	1568.38363363152	6
3	10031	1568.87061325449	5
3	10037	1569.071644287062	6
3	10041	1570.008070255467	5
3	10050	1570.862320349772	6
3	10051	1571.697342175594	5
3	10054	1572.436535389604	4
3	10065	1573.729422126686	5
3	10067	1573.730631919842	6
3	10074	1574.621670621647	7
3	10078	1575.638892170158	6
3	10087	1576.573165900417	7
3	10088	1577.13322614783	6
3	10096	1578.388399475092	5
3	10099	1578.94299524997	4
3	10105	1579.287282392777	5
3	10107	1579.41572903502	6
3	10111	1580.83943201278	5
3	10120	1581.958817469445	6
3	10121	1582.158157414642	5
3	10124	1582.610107541202	4
3	10133	1583.718101957922	5
3	10134	1584.105724042259	4
3	10138	1584.475017894941	5
3	10140	1584.959480599724	6
3	10141	1585.096326337499	5
3	10149	1586.695520462306	4
3	10153	1586.791305863794	5
3	10160	1587.768538690163	6
3	10161	1588.389575557108	5
3	10165	1589.359910594032	6
3	10166	1589.38661133463	5
3	10169	1590.200974608934	4
3	10172	1590.986066652392	3
3	10175	1591.775023955875	2
3	10178	1592.550102313119	1
3	10182	1592.785928369787	2
3	10183	1593.048823899287	1
3	10187	1593.760700969638	2
3	10188	1593.777699713991	1
3	10191	1594.619940873305	0
3	10200	1596.750042140288	1
3	10201	1597.701526752957	0
3	10205	1597.943488292125	1
3	10206	1598.147473821933	0
3	10210	1598.169611763724	1
3	10211	1598.878236807049	0
3	10215	1599.018435559246	1
3	10216	1599.728602227852	0
3	10225	1601.002729292988	1
3	10227	1601.260187704279	2
3	10228	1601.314497698889	1
3	10232	1601.580611233434	2
3	10233	1601.877648915163	1
3	10237	1602.01293184196	2
3	10238	1602.579586506634	1
3	10241	1603.495876570557	0
3	10245	1604.047696467374	1
3	10246	1604.461916444123	0
3	10250	1604.73897889539	1
3	10252	1605.085866975223	2
3	10253	1605.141336951263	1
3	10257	1605.363026699774	2
3	10258	1605.713340450262	1
3	10262	1606.570380098688	2
3	10263	1606.590041180372	1
3	10267	1606.889824924834	2
3	10268	1607.560322752779	1
3	10272	1608.085908613816	2
3	10273	1608.285450640272	1
3	10277	1608.874913695629	2
3	10278	1609.163438538739	1
3	10281	1610.018461575543	0
3	10285	1610.125971114653	1
3	10286	1610.678695025665	0
3	10315	1619.409059327384	1
3	10316	1620.105060930174	0
3	10320	1620.343619397559	1
3	10322	1620.403985344818	2
3	10324	1620.515638174744	3
3	10325	1620.94743559756	2
3	10328	1621.543585101512	1
3	10331	1622.006434517397	0
3	10340	1622.989587017733	1
3	10341	1623.803302040261	0
3	10345	1623.860164343311	1
3	10347	1624.093093921003	2
3	10348	1624.670316558129	1
3	10352	1624.936054632508	2
3	10353	1625.466674986978	1
3	10357	1625.596991095665	2
3	10358	1626.312892075659	1
3	10361	1627.184727018637	0
3	10365	1627.594285915157	1
3	10366	1627.659447636393	0
3	10370	1628.270477015595	1
3	10371	1628.590858310259	0
3	10375	1629.07716234693	1
3	10376	1629.511692290644	0
3	10385	1630.930427530798	1
3	10386	1631.408600059973	0
3	10390	1631.452464208573	1
3	10396	1632.624755935308	0
3	10405	1633.830195504548	1
3	10406	1633.946138173884	0
3	10412	1634.636628889092	1
3	10417	1635.126469314708	2
3	10426	1636.425220043355	3
3	10465	1641.933178907663	2
3	10476	1642.471527371457	3
3	10485	1644.011191847205	2
3	10496	1644.674297093147	3
3	10503	1645.925709435501	4
3	10530	1648.987898064831	5
3	10535	1649.027408251672	6
3	10541	1650.34488790746	5
3	10549	1652.073086363386	4
3	10553	1652.234516853563	5
3	10559	1653.1949262549	4
3	10562	1653.675955579692	3
3	10570	1654.012048737965	4
3	10582	1657.132208750845	3
3	10593	1658.473554926533	4
3	10595	1658.514611856625	5
3	10599	1659.333524069452	4
3	10602	1659.880943357741	3
3	10606	1659.955056912272	4
3	10607	1660.845371097123	3
3	10610	1661.724763261929	2
3	10614	1661.761445561617	3
3	10616	1661.909597857536	4
3	10618	1662.446942272155	5
3	10619	1662.580677356088	4
3	10622	1663.049397922709	3
3	10626	1663.178336189758	4
3	10628	1663.222171002006	5
3	10629	1663.88997596589	4
3	10633	1663.945565402924	5
3	10639	1665.040500440663	4
3	10647	1666.226737797009	3
3	10653	1666.330134210428	4
3	10658	1667.031824702606	5
3	10659	1667.558089942839	4
3	10662	1668.278752106549	3
3	10666	1668.633334451435	4
3	10667	1668.825551989237	3
3	10670	1669.458349303696	2
3	10673	1670.426976522552	1
3	10677	1670.734049654396	2
3	10678	1671.130061257798	1
3	10682	1671.458086697279	2
3	10684	1671.562220864769	3
3	10685	1671.634559535263	2
3	10691	1672.344574903659	3
3	10695	1673.359671324054	2
3	10699	1673.442074640514	3
3	10703	1673.870519418827	4
3	10764	1681.67715058029	5
3	10829	1691.735148040512	4
3	10840	1693.096751227484	5
3	10844	1693.762668014019	4
3	10855	1694.786531067055	5
3	10864	1697.154855051664	4
3	10867	1697.61298511492	3
3	10870	1698.324280160693	2
3	10873	1698.940291004283	1
3	10876	1699.601703708972	0
3	10880	1700.280286759154	1
3	10881	1700.397243674453	0
3	10890	1701.944064604266	1
3	10891	1702.019763997207	0
3	10895	1702.251547885383	1
3	10896	1702.810998027456	0
3	10905	1703.340976661286	1
3	10911	1704.771034341937	0
3	10920	1705.468880035605	1
3	10921	1705.884858404592	0
3	10930	1706.639575355173	1
3	10931	1706.842650048555	0
3	10940	1708.27913934879	1
3	10941	1708.404218052122	0
3	10950	1709.204639583524	1
3	10951	1709.771843015383	0
3	10985	1715.298940000765	1
3	10986	1715.613356493202	0
3	10990	1716.242109788118	1
3	11029	1720.615459173177	2
3	11059	1724.910376626345	3
3	11060	1725.434062424558	2
3	11063	1726.114846882899	1
3	11069	1726.612279541106	2
3	11074	1727.037538872937	3
3	11076	1727.531006425949	4
3	11077	1727.57093377246	3
3	11080	1728.220092804566	2
3	11089	1729.225069338551	3
3	11090	1729.40400947791	2
3	11093	1730.27811505373	1
3	11097	1730.316252410445	2
3	11099	1731.144404091815	3
3	11100	1731.222490104403	2
3	11103	1731.732518152775	1
3	11106	1732.608103805337	0
3	11110	1732.842911530617	1
3	11111	1733.026378811266	0
3	11115	1733.235627155697	1
3	11116	1733.676153704965	0
3	11140	1740.076986381384	1
3	11141	1740.549100989931	0
3	11150	1741.360168487516	1
3	11151	1741.70089617771	0
3	11157	1742.354285991654	1
3	11162	1742.666286733688	2
3	11164	1742.680825699802	3
3	11165	1742.966663996446	2
3	11173	1744.486199519261	1
3	11182	1744.950061275521	2
3	11183	1745.467022850447	1
3	11199	1747.338521375235	2
3	11203	1748.733921349084	1
3	11206	1749.570266502665	0
3	11220	1751.596101320396	1
3	11221	1752.382438464177	0
3	11272	1764.507998516032	1
3	11274	1764.941213089032	2
3	11278	1765.871717006137	1
3	11294	1767.127905629983	2
3	11303	1769.383133404823	1
3	11314	1770.381487851619	2
3	11326	1772.011926219423	3
3	11340	1774.716575165494	2
3	11343	1775.361410857766	1
3	11354	1776.917001233966	2
3	11363	1778.739521805133	1
3	11374	1779.938343521747	2
3	11376	1780.07501178795	3
3	11400	1784.045026346698	2
3	11414	1785.960619448321	3
3	11415	1786.020993066282	2
3	11418	1786.437403243064	1
3	11427	1787.000243229972	2
3	11429	1787.232659818096	3
3	11430	1787.546595966426	2
3	11438	1788.826857536594	1
3	11441	1789.554731006995	0
3	11445	1789.682399983368	1
3	11447	1789.831014208574	2
3	11448	1790.333883583853	1
3	11452	1791.039332926159	2
3	11453	1791.251947499467	1
3	11456	1791.719196382705	0
3	11460	1791.989716452896	1
3	11462	1792.206017115685	2
3	11463	1792.515789336227	1
3	11466	1792.9596645281	0
3	11485	1796.625162969081	1
3	11486	1796.929995507979	0
3	11497	1798.467399521156	1
3	11501	1799.049005854704	0
3	11510	1801.373760071161	1
3	11511	1801.91696338888	0
3	11570	1818.495204678968	1
3	11571	1818.616911794201	0
3	11655	1851.974091095126	1
3	11656	1852.057180062962	0
3	11665	1852.986921650575	1
3	11667	1853.262181884887	2
3	11668	1853.769033074684	1
3	11674	1854.712430592634	2
3	11678	1855.208917208554	1
3	11686	1856.768807070729	0
3	11690	1856.810199215216	1
3	11691	1857.40655540957	0
3	11697	1857.921354170228	1
3	11701	1859.090481270271	0
3	11720	1864.693606061281	1
3	11721	1864.750482265302	0
3	11727	1865.225793431079	1
3	11731	1866.236018799688	0
3	11750	1868.392445180228	1
3	11751	1869.244029217114	0
3	11762	1870.201654585646	1
3	11786	1872.827959224253	2
3	11848	1880.803176097974	3
3	11900	1887.98666654098	2
3	11908	1889.373043017594	1
3	11914	1889.795814394299	2
3	11918	1891.134736397622	1
3	11924	1891.537954430096	2
3	11926	1892.016032961127	3
3	11930	1892.850005845299	2
3	11939	1893.538780346353	3
3	11940	1894.270993987929	2
3	11944	1894.382587637645	3
3	11945	1895.14728932813	2
3	11948	1895.684858211355	1
3	11951	1896.434448324928	0
3	11960	1898.154644966617	1
3	11961	1898.300810305798	0
3	11970	1900.966902810261	1
3	11972	1901.249092431321	2
3	11973	1901.488844899203	1
3	11977	1901.604456003481	2
3	11978	1902.340245730638	1
3	11981	1902.933511272048	0
3	12240	1951.655421688792	1
3	12241	1951.838241338181	0
3	12355	1981.736972058686	1
3	12362	1982.473739726745	2
3	12363	1983.179472353803	1
3	12371	1984.083958362956	0
3	12377	1984.484861179074	1
3	12382	1984.803718383727	2
3	12384	1984.978256876098	3
3	12390	1986.389548757328	2
3	12394	1986.41971794314	3
3	12395	1986.971778464578	2
3	12399	1987.020832500265	3
3	12400	1987.600847651558	2
3	12403	1988.070554349786	1
3	12406	1988.717893804266	0
3	12410	1988.748971338288	1
3	12411	1989.382660789304	0
3	12415	1989.473863628627	1
3	12416	1990.295645071967	0
3	12420	1990.644723522614	1
3	12421	1991.216533099004	0
3	12460	1997.592913906182	1
3	12461	1998.070699179876	0
3	12465	1998.456625460452	1
3	12466	1998.574858638463	0
3	12475	1999.473050158535	1
3	12477	1999.773498518773	2
3	12478	1999.846674371935	1
3	12487	2000.680809437982	2
3	12488	2001.150203262787	1
3	12491	2002.027283612784	0
3	12495	2002.585481841432	1
3	12496	2002.825976227462	0
3	12502	2003.432600136389	1
3	12507	2003.496339072411	2
3	12508	2004.405612966004	1
3	12511	2004.908841821836	0
3	12575	2025.284496879114	1
3	12576	2025.474531411124	0
3	12587	2026.721628502428	1
3	12592	2027.015252775648	2
3	12601	2027.45071685809	3
3	12613	2029.597729260159	4
3	12653	2035.311502563197	5
3	12660	2036.175326061373	6
3	12666	2037.177980975085	5
3	12674	2038.484370655031	4
3	12692	2041.060748865665	3
3	12720	2044.045229328561	4
3	12753	2048.16376093402	5
3	12755	2048.298589874178	6
3	12756	2048.601292306486	5
3	12769	2050.495813275057	4
3	12773	2050.619099009165	5
3	12782	2051.795611472842	6
3	12806	2055.632821760907	5
3	12815	2057.229804731586	6
3	12816	2057.440513981993	5
3	12825	2058.240635410703	6
3	12827	2058.583238536577	7
3	12828	2058.583487481971	6
3	12831	2059.480449112992	5
3	12835	2059.634389681155	6
3	12842	2060.981435078703	7
3	12843	2061.219190830759	6
3	12851	2062.520799975491	5
3	12859	2063.958751271267	4
3	12862	2064.876598732334	3
3	12866	2065.07214418742	4
3	12867	2065.539201573117	3
3	12870	2066.158809485168	2
3	12878	2067.431708809149	1
3	12887	2069.003331832949	2
3	12888	2069.025771847714	1
3	12896	2070.504082931645	0
3	12900	2070.598451935035	1
3	12901	2070.972546377938	0
3	12905	2070.979217295709	1
3	12907	2071.00159973032	2
3	12914	2072.290351575843	3
3	12916	2072.377087469046	4
3	12917	2072.810100374205	3
3	12923	2073.335205363164	4
3	12927	2074.277035366205	3
3	12933	2074.435511573747	4
3	12935	2075.029243945432	5
3	12939	2075.637738956997	4
3	12943	2076.083723151736	5
3	12944	2076.33894242353	4
3	12948	2076.549510316979	5
3	12955	2077.834977352274	6
3	12956	2078.128704116747	5
3	12964	2079.641567635697	4
3	12968	2079.658741583002	5
3	12975	2080.699196250812	6
3	12976	2081.159263164804	5
3	12980	2082.054702748175	6
3	12981	2082.114782257492	5
3	12985	2082.268986726498	6
3	12992	2083.120674236703	7
3	12994	2083.35817740982	8
3	12995	2083.723706895413	7
3	12998	2084.285887392584	6
3	13009	2084.753592391482	7
3	13011	2084.959102416792	8
3	13016	2085.471573886466	9
3	13017	2086.261857063297	8
3	13025	2087.753141927134	7
3	13031	2087.912988477914	8
3	13035	2089.318128120826	7
3	13041	2089.725519520513	8
3	13046	2090.646277034245	9
3	13047	2091.140380175572	8
3	13063	2092.804259534019	9
3	13067	2093.143382949019	10
3	13079	2095.618805648128	9
3	13085	2095.831892511397	10
3	13089	2096.885086513657	9
3	13095	2097.576948939236	10
3	13102	2098.195837384354	11
3	13106	2098.874159148682	10
3	13115	2099.642355077773	11
3	13116	2100.162270346863	10
3	13125	2101.173159566868	11
3	13126	2101.741119464647	10
3	13129	2102.282452293459	9
3	13132	2103.23980944154	8
3	13136	2103.72426210069	9
3	13137	2104.161602642594	8
3	13140	2105.054432341663	7
3	13144	2105.606214619435	8
3	13146	2105.67238434022	9
3	13147	2105.752348769151	8
3	13150	2106.161062620694	7
3	13153	2106.728828956301	6
3	13157	2106.941268668327	7
3	13159	2107.573687119962	8
3	13160	2107.615482554233	7
3	13164	2108.219864334643	8
3	13166	2108.327996122459	9
3	13167	2108.477564072583	8
3	13171	2109.081419761618	9
3	13172	2109.330045371989	8
3	13175	2110.32189670142	7
3	13179	2110.34312393394	8
3	13180	2111.220700283602	7
3	13184	2111.251826339178	8
3	13191	2112.443648744536	9
3	13192	2112.651885265831	8
3	13200	2114.075543118661	7
3	13203	2114.822908028329	6
3	13211	2115.984782713672	5
3	13214	2116.396842766108	4
3	13223	2117.251512216297	5
3	13224	2117.904033426402	4
3	13233	2118.699937249155	5
3	13234	2119.314295858305	4
3	13237	2119.731538607992	3
3	13241	2120.00901789328	4
3	13248	2120.724863005214	5
3	13249	2121.192426252293	4
3	13257	2122.250805509623	3
3	13261	2122.682390577039	4
3	13263	2122.821726349265	5
3	13265	2122.902641235734	6
3	13266	2123.133697887484	5
3	13270	2123.377846340022	6
3	13277	2124.101027662805	7
3	13279	2124.566558576035	8
3	13280	2124.62221742009	7
3	13283	2125.390421359587	6
3	13287	2125.904638153341	7
3	13294	2126.161688035563	8
3	13295	2126.546751601223	7
3	13304	2127.629245728558	8
3	13305	2128.247936239487	7
3	13316	2129.258905058572	8
3	13320	2131.15989171562	7
3	13323	2131.89762028537	6
3	13331	2133.064352513266	5
3	13340	2133.892151492419	6
3	13341	2134.1899728887	5
3	13347	2135.154370338651	6
3	13369	2137.772709079157	7
3	13373	2139.527630298419	6
3	13382	2140.192430126887	7
3	13383	2140.656180543241	6
3	13392	2141.73438470472	7
3	13393	2142.009726110122	6
3	13399	2142.171237900902	7
3	13403	2143.297858739712	6
3	13406	2144.222771523914	5
3	13410	2144.737758167548	6
3	13411	2145.043805414459	5
3	13415	2145.28617214396	6
3	13416	2145.582519584729	5
3	13419	2146.146486818812	4
3	13423	2146.726174940742	5
3	13424	2147.036678515862	4
3	13427	2147.58178329456	3
3	13431	2148.190901731827	4
3	13432	2148.375300918309	3
3	13436	2148.538030616651	4
3	13437	2149.070317032397	3
3	13441	2149.20641917298	4
3	13442	2149.496524226688	3
3	13446	2149.781277004382	4
3	13447	2149.935948698105	3
3	13450	2150.524904613033	2
3	13454	2150.8950951909	3
3	13456	2151.305616649828	4
3	13458	2151.380411545847	5
3	13459	2151.462917331209	4
3	13463	2151.771317734457	5
3	13465	2152.400427964247	6
3	13466	2152.451599036272	5
3	13474	2154.008390167517	4
3	13480	2154.478253796374	5
3	13485	2154.847315500812	6
3	13487	2155.075677455681	7
3	13488	2155.648292415471	6
3	13497	2156.848164923066	7
3	13498	2156.958448418251	6
3	13507	2157.648445295315	7
3	13508	2158.293626395635	6
3	13512	2158.50682460888	7
3	13513	2159.117182576865	6
3	13517	2159.604235731449	7
3	13518	2159.695482241618	6
3	13521	2160.561388803063	5
3	13525	2160.987466762098	6
3	13526	2161.246845953934	5
3	13529	2161.870614944887	4
3	13532	2162.368719472107	3
3	13541	2163.630213338381	4
3	13542	2163.767255663661	3
3	13545	2164.581592094222	2
3	13553	2165.553067211875	1
3	13557	2165.774063945963	2
3	13561	2166.379992131329	3
3	13565	2166.977401785481	2
3	13573	2168.150365637218	1
3	13581	2169.188987105781	0
3	13590	2170.185683389377	1
3	13591	2170.700626015266	0
3	13595	2170.761487691489	1
3	13599	2170.823363163947	2
3	13604	2171.48321272587	3
3	13605	2171.776615895214	2
3	13609	2171.817991588578	3
3	13610	2172.186967437365	2
3	13614	2172.229157451903	3
3	13615	2172.69587200142	2
3	13619	2172.86004868994	3
3	13621	2173.07258147421	4
3	13622	2173.229884488113	3
3	13626	2173.496932554176	4
3	13628	2173.752706673128	5
3	13630	2173.984107756974	6
3	13632	2174.18065491468	7
3	13633	2174.20777103447	6
3	13637	2174.343401148218	7
3	13638	2174.874602800632	6
3	13642	2174.901216631818	7
3	13644	2175.34039777005	8
3	13645	2175.590268770443	7
3	13654	2176.269603249563	8
3	13656	2176.729965667053	9
3	13657	2176.776688741358	8
3	13663	2176.989997088688	9
3	13667	2178.2942275177	8
3	13671	2178.672981567631	9
3	13672	2179.077228285117	8
3	13676	2179.255424048566	9
3	13677	2179.490289180936	8
3	13681	2179.774072396102	9
3	13682	2179.90846107856	8
3	13686	2180.461481603222	9
3	13687	2180.681069541374	8
3	13690	2181.435224822886	7
3	13694	2181.528730653282	8
3	13695	2182.018063917268	7
3	13698	2182.865877221921	6
3	13702	2182.959150230305	7
3	13703	2183.514325140208	6
3	13706	2184.177319913754	5
3	13710	2184.681159553276	6
3	13711	2184.73140323374	5
3	13714	2185.423562926264	4
3	13718	2186.138879228693	5
3	13719	2186.364372440777	4
3	13723	2186.700205584251	5
3	13724	2186.840577653959	4
3	13728	2187.060036445496	5
3	13730	2187.119135700419	6
3	13731	2187.706852930296	5
3	13735	2187.790165272021	6
3	13737	2187.85779384734	7
3	13738	2188.219965235447	6
3	13741	2189.02392960887	5
3	13745	2189.584055770988	6
3	13746	2189.666677125428	5
3	13750	2190.033133033719	6
3	13752	2190.07931619923	7
3	13753	2190.09209556433	6
3	13757	2190.368018293522	7
3	13758	2190.952592022462	6
3	13761	2191.415783433827	5
3	13764	2192.006485452574	4
3	13768	2192.771042110534	5
3	13769	2192.801282307856	4
3	13773	2192.989820865525	5
3	13775	2193.045226468033	6
3	13776	2193.345228434006	5
3	13780	2193.544191921368	6
3	13781	2193.77220283521	5
3	13784	2194.435988115963	4
3	13787	2195.088684919175	3
3	13790	2196.005727885874	2
3	13794	2196.26647082399	3
3	13795	2196.564415684087	2
3	13798	2197.498769522575	1
3	13802	2198.325961692224	2
3	13803	2198.33572072729	1
3	13807	2198.720672085296	2
3	13808	2199.162679631519	1
3	13811	2199.637934125238	0
3	13815	2199.733071788695	1
3	13817	2200.023238047328	2
3	13819	2200.042753324436	3
3	13820	2200.187233719998	2
3	13824	2201.087760682415	3
3	13825	2201.186642945721	2
3	13828	2202.034678362427	1
3	13832	2202.833113263038	2
3	13833	2202.840859169351	1
3	13836	2203.816471414246	0
3	13840	2204.187968014154	1
3	13842	2204.260531333388	2
3	13843	2204.631393110777	1
3	13847	2205.059529195006	2
3	13848	2205.487651596104	1
3	13857	2206.625050193368	2
3	13859	2206.683560991719	3
3	13860	2206.767915050245	2
3	13866	2207.163528913218	3
3	13868	2207.254129840288	4
3	13873	2207.83425872357	5
3	13875	2208.149582838564	6
3	13876	2208.453929192412	5
3	13884	2210.047464969593	4
3	13890	2210.39391106519	5
3	13894	2211.655037000381	4
3	13902	2213.314649925778	3
3	13906	2213.393452375862	4
3	13907	2213.76677379103	3
3	13910	2214.262703272073	2
3	13914	2214.304992230635	3
3	13915	2215.23695947996	2
3	13919	2215.63938135109	3
3	13920	2216.161090673903	2
3	13926	2216.262743159564	3
3	13928	2216.309428237754	4
3	13933	2216.932487117953	5
3	13935	2217.435677069504	6
3	13936	2217.618900409319	5
3	13944	2219.374310875103	4
3	13948	2219.521800200454	5
3	13954	2220.484241180659	4
3	13957	2221.365679144651	3
3	13961	2221.912036294433	4
3	13968	2222.529915163566	5
3	13969	2222.997345679464	4
3	13975	2223.277490074899	5
3	13977	2223.347159456871	6
3	13981	2224.24597174863	5
3	13987	2225.159450486145	6
3	13991	2226.084066570575	5
3	14000	2227.381676293231	6
3	14001	2227.391272896693	5
3	14005	2227.869306906875	6
3	14006	2228.363523867379	5
3	14009	2229.323055665593	4
3	14012	2229.784580718845	3
3	14015	2230.287505222604	2
3	14018	2230.898699971175	1
3	14022	2231.040168747928	2
3	14023	2231.670491995409	1
3	14026	2232.132246655112	0
3	14040	2234.307384885569	1
3	14042	2234.523974597729	2
3	14043	2234.858175128407	1
3	14047	2235.246428617182	2
3	14048	2235.499511306814	1
3	14051	2236.071208751935	0
3	14055	2236.241017563748	1
3	14056	2236.673579951224	0
3	14060	2237.194230132042	1
3	14061	2237.564444846834	0
3	14065	2237.883689079625	1
3	14067	2238.18134105159	2
3	14068	2238.508403387886	1
3	14072	2238.813435510877	2
3	14073	2239.158240272325	1
3	14076	2239.862932986008	0
3	14080	2240.218009524123	1
3	14081	2240.446692974247	0
3	14085	2241.104766718786	1
3	14086	2241.144220810836	0
3	14090	2241.322690061499	1
3	14092	2241.903252094348	2
3	14093	2242.135908110333	1
3	14096	2243.107654862884	0
3	14115	2245.291403978655	1
3	14117	2245.594272796562	2
3	14119	2246.062777850145	3
3	14120	2246.113677967878	2
3	14123	2246.789829220276	1
3	14127	2246.995082386768	2
3	14128	2247.374155396575	1
3	14131	2248.128591227371	0
3	14140	2249.654926943755	1
3	14141	2249.891108259661	0
3	14150	2250.846927583436	1
3	14151	2251.731654564754	0
3	14170	2256.979820841765	1
3	14171	2257.82117889538	0
3	14195	2262.834711668087	1
3	14197	2262.951438147432	2
3	14198	2263.216118433047	1
3	14207	2264.306532056472	2
3	14208	2264.926420226227	1
3	14217	2266.020955376095	2
3	14218	2266.41587790139	1
3	14226	2267.759690213715	0
3	14230	2267.835180540821	1
3	14237	2268.690834885801	2
3	14238	2268.886615048534	1
3	14247	2269.582895331512	2
3	14248	2270.473593977185	1
3	14257	2271.316375175461	2
3	14258	2271.536748656908	1
3	14266	2272.974534821787	0
3	14270	2273.318019468216	1
3	14276	2273.923982979494	0
3	14282	2274.382590408552	1
3	14289	2275.043718430766	2
3	14294	2275.93169973225	3
3	14295	2276.047254011404	2
3	14303	2277.424968410373	1
3	14309	2277.961962175436	2
3	14313	2279.010603657501	1
3	14317	2279.573456881359	2
3	14318	2279.604956213428	1
3	14322	2280.042925183334	2
3	14323	2280.074583847678	1
3	14326	2280.597178525568	0
3	14330	2281.300046220596	1
3	14336	2282.018064078313	0
3	14342	2282.53921874014	1
3	14347	2282.986256771471	2
3	14348	2283.431426614939	1
3	14356	2284.755433363185	0
3	14380	2293.534353512252	1
3	14381	2293.548104871054	0
3	14387	2293.929230160242	1
3	14392	2294.108967986091	2
3	14393	2295.018111538178	1
3	14397	2295.406362758178	2
3	14398	2295.53288958649	1
3	14402	2296.053374995585	2
3	14408	2297.072694050836	1
3	14414	2297.627439820681	2
3	14416	2297.941137873358	3
3	14420	2298.740165917937	2
3	14434	2300.366510262358	3
3	14435	2300.372619278579	2
3	14438	2301.110120159936	1
3	14442	2301.15126185259	2
3	14451	2302.403430772799	3
3	14463	2303.404848857544	4
3	14490	2306.938465164959	5
3	14524	2312.867204736488	4
3	14530	2313.449702426079	5
3	14537	2314.022331686966	6
3	14541	2315.130285372667	5
3	14549	2316.578362832393	4
3	14555	2316.759578257597	5
3	14559	2317.859396567231	4
3	14563	2318.058614120595	5
3	14572	2319.071655439992	6
3	14596	2323.200159147371	5
3	14605	2323.719758088979	6
3	14607	2323.816008408467	7
3	14608	2324.557308987238	6
3	14612	2325.098067201984	7
3	14619	2325.632295808671	8
3	14621	2325.76703302699	9
3	14622	2326.196913465847	8
3	14631	2326.794498522901	9
3	14632	2327.595427467151	8
3	14635	2328.164448521695	7
3	14638	2328.569370876894	6
3	14642	2328.648394764042	7
3	14643	2329.527546496446	6
3	14647	2329.635420379257	7
3	14648	2330.12290920372	6
3	14652	2330.153892992413	7
3	14654	2330.363698034506	8
3	14656	2330.729151946937	9
3	14657	2330.968490181387	8
3	14660	2331.425390445523	7
3	14664	2332.110036030666	8
3	14666	2332.114339562728	9
3	14667	2332.238847861148	8
3	14671	2332.329055325044	9
3	14673	2332.660600458688	10
3	14674	2332.695340514171	9
3	14678	2333.10747856245	10
3	14679	2333.466928897413	9
3	14683	2334.019708016514	10
3	14684	2334.030575809382	9
3	14687	2334.86046894061	8
3	14693	2335.333759318732	9
3	14695	2335.671723394887	10
3	14699	2336.708793115137	9
3	14708	2337.716573174454	10
3	14709	2338.186988726059	9
3	14713	2338.412253770366	10
3	14719	2339.675337071424	9
3	14725	2339.835152312552	10
3	14730	2340.308433799956	11
3	14731	2340.963541057972	10
3	14740	2342.095164380847	11
3	14741	2342.47154494993	10
3	14744	2343.122840604452	9
[...]
6	159541	25155.719311115064	7.585207772382
6	159652	25171.924526699972	13.629047552454
6	159655	25172.801645694733	10.382275031714
6	159733	25181.474867207989	6.514595616013
6	159875	25201.208111645527	66.906740273587
6	159964	25214.852682102438	63.222877657836
6	160135	25238.842033705595	4.464500939177
6	160247	25254.240647028855	7.221758580505
6	160272	25257.500158908221	13.152619414139
6	160654	25308.61373117627	4.182271809603
6	160706	25315.883639185461	8.924076356518
6	160751	25321.568330591503	0.897292366901
6	160843	25334.076499925931	0.971864606985
6	161023	25354.813931880432	12.952136460007
6	161088	25364.98070739839	11.874171098538
6	161093	25365.926913525404	21.277517057736
6	161103	25367.294101351321	17.134098490682
6	161108	25368.106655679325	23.993757822105
6	161217	25381.965681433872	7.274753687334
6	161227	25383.598240934041	12.9892898909
6	161250	25387.485623339525	19.553040479241
6	161278	25391.194780354489	0.932501698475
6	161326	25398.224859246945	2.738011552667
6	161512	25425.035836749016	14.81323412576
6	161534	25427.859421332417	0.966876272275
6	161555	25430.748421280462	3.338782410284
6	161726	25451.883096664028	12.478394180375
6	161788	25460.936787286635	8.463516829236
6	161850	25470.335531617656	5.565811400791
6	161855	25470.753991929723	38.655688038268
6	161858	25471.242222715823	27.657158638278
6	161861	25472.151438357078	19.911325166337
6	162142	25513.058273476736	13.869695071029
6	162221	25524.390018906957	2.218119553842
6	162436	25558.737685492542	6.333183829259
6	162449	25561.056398623856	2.603010346025
6	162536	25572.620970985292	8.560679636014
6	162729	25603.97604949037	2.65059001382
6	162741	25605.431670770239	13.120532337574
6	162787	25610.578882676553	2.80632955349
6	163135	25670.153657873847	5.856955580622
6	163190	25684.05515834096	6.263947977824
6	163201	25686.039739856153	2.964701108641
6	163378	25712.067647568059	12.772131803076
6	163390	25713.408398057629	1.963002954952
6	163441	25720.537690899538	9.370734376504
6	163507	25729.312963522056	1.324676755825
6	163510	25730.215875346556	2.343028885964
6	163654	25750.535699083206	11.891156103103
6	163684	25755.114554115494	3.372503792487
6	163716	25759.102451432605	4.675673959987
6	163719	25759.591892850368	15.75175545303
6	163727	25760.933084270234	19.309648152656
6	163751	25765.557142712704	9.988586915101
6	163852	25784.237738462825	3.72945584389
6	164065	25814.473312046758	3.489817780514
6	164142	25823.825162622246	34.883984593537
6	164157	25825.537776614918	10.917122346188
6	164224	25834.021858161785	2.320755513916
6	164242	25836.683896248605	21.36606095957
6	164250	25837.894973948741	20.548863881851
6	164298	25845.457822909442	30.314679965784
6	164382	25856.599899160027	8.374677424702
6	164587	25884.719495055595	14.987633698963
6	164643	25892.395466626763	26.298649012489
6	164656	25894.757129676129	39.090053610849
6	164732	25906.091399489484	2.875073874753
6	165043	25945.375806862122	2.930036910312
6	165112	25954.581649912295	30.644587104204
6	165124	25956.076152602171	7.747968685219
6	165167	25962.518050627184	26.321684169933
6	165302	25981.201565237118	5.243787336209
6	165305	25981.692883892318	4.997717421025
6	165337	25986.265244583561	3.447492850465
6	165461	26003.332519374936	1.050429107048
6	165471	26004.889120405874	27.367581824281
6	165492	26008.683239659256	6.176068381861
6	165629	26031.149733472623	0.913211916161
6	165725	26046.845911316533	2.228024178066
6	165966	26076.373464987478	2.287267988999
6	166052	26086.760591670737	7.09212047958
6	166092	26092.646326994761	10.531864201792
6	166136	26098.899805760994	4.611687789089
6	166152	26101.420299167797	6.680977239593
6	166162	26102.85403879765	17.30211805524
6	166165	26103.843501418368	11.737107753844
6	166204	26110.871492963706	1.333791902662
6	166429	26144.801554850585	13.381622715967
6	166456	26148.219953954316	9.075562151213
6	166533	26158.866375099731	1.538515081315
6	166563	26161.785664847963	1.808834771274
6	166619	26169.495261667393	3.898846318272
6	166642	26172.942492869732	27.579078599695
6	166645	26173.392532841305	4.310565475157
6	166662	26175.299786903851	8.915317294042
6	166694	26179.158760077135	15.698509616567
6	166786	26191.6204763704	34.909006801658
6	166814	26195.867677646877	38.12186898059
6	166837	26199.697666740792	39.639305378563
6	167055	26229.77170407339	54.927273014801
6	167060	26230.203986050189	0.521786679078
6	167160	26244.578541880707	5.813704622791
6	167304	26266.065956321313	9.397768338271
6	167420	26283.080977917462	4.282708487508
6	167501	26295.571347374047	7.314610143243
6	167543	26300.880787796478	1.113168324
6	167686	26322.047340762074	2.777351835091
6	167788	26334.634127204417	9.768453465904
6	167927	26354.101098326192	3.926969198445
6	168021	26366.853278974835	6.494491195185
6	168051	26371.018374857232	1.111102760472
6	168054	26371.90505679368	4.087461014923
6	168128	26381.985525806827	1.796014493403
6	168199	26391.025366310191	1.447048500239
6	168255	26399.698224122006	4.256954014464
6	168354	26416.612559796842	7.174098506474
6	168394	26422.41513921909	4.515013701202
6	168397	26423.405737612974	8.458096088097
6	168490	26441.120487019033	4.479668001485
6	168493	26441.58066727485	5.268600287283
6	168533	26446.994120402433	4.599218440156
6	168579	26453.943055793908	2.456653362448
6	168707	26473.37246789682	2.860637348599
6	168768	26480.866041060976	6.430648252363
6	168817	26488.974856317202	0.488572145952
6	168852	26494.190995731363	3.624783199187
6	168877	26499.388123606494	9.152536830526
6	168922	26506.544658794951	7.716883979797
6	169076	26531.574788173302	13.46962958169
6	169257	26556.064125729736	9.733044956326
6	169270	26557.886394083465	2.165909243796
6	169361	26570.427294318061	1.876215015907
6	169441	26581.41208427186	9.569331352467
6	169482	26586.768796172187	3.203763430416
6	169573	26600.544731897029	17.360558185566
6	169599	26604.178823627306	8.250262940272
6	169665	26621.055882987256	2.269598446287
6	169740	26640.326070281251	9.76048692488
6	169787	26648.911250567035	7.030452124902
6	169815	26653.012849075513	5.16148347808
6	169825	26654.237193889854	0.614264755309
6	169830	26656.531138400497	0.477577802911
6	169922	26670.074761251769	11.604434840848
6	170030	26693.399422556949	6.229583896006
6	170040	26695.777530875189	1.563070997619
6	170115	26729.58564495881	9.04484925095
6	170132	26737.344178088967	2.218679543026
6	170152	26740.354424194341	3.527048709758
6	170184	26747.765678083654	6.013554552461
6	170249	26762.51443871996	2.805735052575
6	170287	26768.089131715946	13.304112794167
6	170335	26775.940804039537	13.012864183038
6	170470	26794.488959393777	32.526962031391
6	170473	26795.43347743413	9.902307811986
6	170486	26797.38574685048	5.724589172204
6	170579	26814.08293394954	2.282765371498
6	170604	26817.719440089166	2.508060765759
6	170663	26827.092144962825	4.982464314019
6	170686	26830.442820599262	1.410279125715
6	170753	26838.283216971399	11.524240190345
6	170784	26843.704431693309	8.977912084608
6	170864	26852.3330387367	3.954438303845
6	170879	26854.193487215933	8.660107193969
6	170889	26855.42506215396	3.284526186425
6	170900	26857.355966382712	5.548846531546
6	171039	26875.653449093928	11.64422351977
6	171067	26880.555208790727	18.14623831106
6	171070	26880.958474290377	10.599948981963
6	171135	26889.476802939369	14.359761571095
6	171156	26893.033351293911	18.724193626106
6	171314	26915.763559270469	4.99790055305
6	171319	26916.633740008255	3.268801681377
6	171338	26920.825391787109	4.384534863064
6	171525	26977.787531272172	2.367022502371
6	171565	26985.840203370266	3.803148085408
6	171679	27005.056625799667	16.252663568192
6	171925	27037.956345076422	2.90781288924
6	171930	27038.556614410114	7.916705175531
6	171958	27042.57226339642	36.848582930893
6	171963	27043.480140190833	2.582690887174
6	171971	27045.310757916915	13.239010302374
6	172021	27052.141328507366	14.736162722425
6	172035	27054.692694657792	44.516677791759
6	172149	27070.441259195918	14.251973826648
6	172196	27076.548012227407	2.274486255856
6	172236	27081.672739632502	11.516982602087
6	172251	27083.330166465443	11.471178463868
6	172266	27085.372105220546	19.552888684395
6	172293	27089.112163137765	5.351438036186
6	172310	27092.420855093589	1.486933230061
6	172344	27097.063146227905	0.953323532656
6	172500	27120.174043049365	17.481236240103
6	172600	27134.283857547519	5.429085647676
6	172610	27135.345335480179	0.837476044885
6	172687	27144.843563712881	9.111400210021
6	172766	27156.966988499396	6.253740847128
6	172893	27177.417181334808	1.726499752097
6	172983	27190.41055447564	9.653889978924
6	172998	27192.861321837432	4.061069428809
6	173184	27224.290857399423	5.720716849786
6	173330	27245.408274343777	18.060321240146
6	173466	27264.438635031905	13.209128595308
6	173608	27288.926865435299	3.129522221192
6	173616	27290.582216379186	14.870917252591
6	173678	27299.062993376563	22.313696855592
6	173703	27303.295290697179	8.372926135203
6	173734	27307.386678223545	31.241187609415
6	173761	27310.657091347733	0.736478609535
6	173844	27321.129980517504	19.06266661746
6	173874	27324.638359353411	6.416008760893
6	174194	27371.264759018132	2.042751665413
6	174235	27380.376870962015	7.35323785214
6	174240	27381.671610775983	0.758230035193
6	174255	27404.522373140688	2.991464002326
6	174364	27419.88167844713	10.893297176811
6	174374	27421.425738928843	5.580913386565
6	174432	27431.927919832417	5.978750463242
6	174587	27458.82030895009	0.903767242696
6	174749	27480.631456598932	2.538428410452
6	174854	27496.727281417465	9.364357591183
6	174932	27518.600346111919	3.192080909913
6	174967	27523.642298813309	2.793581202278
6	175119	27548.787223893541	33.621405826411
6	175215	27563.237346533077	10.442890395582
6	175298	27578.2542260133	1.618682086461
6	175381	27588.630365643278	17.974797646748
6	175384	27589.444596873829	2.325165893487
6	175430	27604.951318622737	0.981215613801
6	175505	27618.271751165032	9.484178657213
6	175586	27630.731240428917	6.999145968781
6	175614	27634.230521201087	1.078456751397
6	175629	27636.333143280844	9.231806334193
6	175644	27638.353756033048	2.537639930716
6	175669	27642.732863590864	5.104071488947
6	175707	27648.220858535756	2.293643901724
6	175740	27654.758608153612	32.479949911574
6	175842	27687.464559439554	2.455754965114
6	175912	27708.785413225056	2.181251447778
6	175925	27718.812452911312	0.633550812909
6	176303	27793.641947831646	9.100652118663
6	176397	27809.956727866122	2.122597362008
6	176437	27827.411014421562	1.735236148143
6	176459	27838.776066878882	0.957403640542
6	176462	27839.646338793893	4.00682128703
6	176553	27852.590045504745	3.104872777219
6	176594	27858.264316168484	10.269249358976
6	176617	27862.706912644928	2.383994516452
6	176657	27868.211940064589	7.776233754734
6	176850	27905.074618490101	15.068109489682
6	176875	27908.863814008482	7.631951439394
6	176878	27909.443322613849	3.210053957547
6	176973	27923.096794320796	38.824859722469
6	177060	27936.183926713062	3.35298521345
6	177105	27942.593316261719	2.008773788138
6	177108	27943.055471620399	20.076489003206
6	177491	27996.59517746173	13.738800669749
6	177516	27999.821160032611	4.447603472017
6	177676	28024.812442460649	0.501118908222
6	177789	28040.714216126121	4.194926481405
6	177799	28042.075690643155	1.309275903503
6	177963	28064.602676430523	20.427751344092
6	177978	28066.86852448852	1.443690479054
6	178156	28092.543456277896	12.584761990725
6	178159	28093.338616991734	32.762126597082
6	178210	28100.654288531552	5.177510185204
6	178393	28125.129766086946	0.703110137694
6	178411	28127.762325841738	11.910127889672
6	178444	28132.77970628267	6.794025192361
6	178676	28166.609490464471	2.318777004243
6	178749	28179.066834528568	2.285858776426
6	178816	28189.673438878042	4.93835139972
6	178857	28194.357174833222	1.317991689446
6	178894	28199.163516353407	6.217360298567
6	178926	28204.103696818195	4.206543769652
6	178968	28209.579378449416	5.415144536344
6	178981	28211.816918551141	23.131727836295
6	179048	28220.659730580461	26.451901406006
6	179136	28232.188994290506	9.335597274663
6	179169	28237.190779416602	12.650284950259
6	179204	28241.83762735465	3.585919614659
6	179415	28271.026539003818	13.630473344484
6	179446	28275.717127725732	1.366067216143
6	179537	28287.379537887609	5.672014233423
6	179639	28301.94146419132	1.158678663776
6	179716	28312.566462749445	13.168054238296
6	179958	28348.521022698914	13.580040942773
6	180098	28369.358356130986	13.088818700451
6	180157	28377.616384603573	3.558411216343
6	180165	28378.894159072243	4.949143506905
6	180210	28385.086718497822	9.36263824389
6	180247	28390.318373511477	5.614024047471
6	180278	28395.732422851842	20.117796333799
6	180357	28409.120783493466	6.371783865955
6	180447	28420.074491462603	11.130722205708
6	180457	28421.951915758548	9.229930753274
6	180460	28422.423518229255	10.854862931288
6	180463	28423.363310446709	4.285726420621
6	180519	28432.134762231332	1.568223327436
6	180634	28447.536126920508	1.108650564942
6	180674	28453.731294528078	10.456803615379
6	180720	28475.528858751491	1.027338953961
6	180785	28487.913348279451	0.445058279345
6	180865	28500.096104397044	6.789783572655
6	180887	28503.06376131417	9.348535285161
6	180917	28508.130705976885	7.539959351209
6	180946	28510.88098747933	5.285327766604
6	181228	28551.478765682485	6.759362785569
6	181251	28554.971369736297	7.543450711841
6	181273	28557.938375407346	5.606524633778
6	181335	28566.229961652896	1.246784842051
6	181403	28574.53197976633	12.283744952818
6	181414	28576.70162998031	2.834276296481
6	181448	28581.023716725485	3.801986033653
6	181486	28586.799876745587	7.555888445016
6	181489	28587.33047918643	20.781209549919
6	181781	28629.082374226761	13.191857194888
6	181796	28631.121006472914	1.602834707012
6	181813	28633.121679691683	1.892981383345
6	181831	28635.420236578762	8.522649111786
6	181857	28639.358948452204	16.297574397169
6	181875	28642.062384932713	10.150445431113
6	181943	28650.628136463035	17.615126154862
6	181946	28651.388346463991	7.737874645982
6	181995	28658.564937969149	12.292089570955
6	182107	28674.54853248777	3.581388645142
6	182110	28675.33173087895	17.095046664483
6	182113	28675.983435517541	23.040818606179
6	182268	28700.086399929915	1.764681594473
6	182313	28705.633466368858	4.902427940339
6	182587	28749.667188690525	9.404880806956
6	182633	28756.197827223145	18.747828521607
6	182789	28778.649519799037	5.16103706242
6	182805	28781.543202176776	0.778197160337
6	182832	28786.003398941787	10.161844456233
6	182940	28801.027904471248	8.927674031406
6	182970	28804.779042411554	14.55990441405
6	183038	28814.429146056442	8.499652361571
6	183082	28820.774825107126	6.8327111828
6	183138	28829.463907074888	14.34808408602
6	183217	28842.978655392642	9.900287791099
6	183225	28844.857383786744	2.376016298942
6	183257	28859.097966073147	4.269930728323
6	183360	28873.960230245432	14.627044868441
6	183443	28884.076856687284	12.789573476411
6	183446	28884.689500684376	6.203167758294
6	183454	28886.027937244243	3.600237005537
6	183477	28889.942514158172	19.595870807838
6	183482	28890.601836213648	18.266828118962
6	183505	28894.820807997456	17.640023670342
6	183579	28904.693188231385	2.589398565314
6	183645	28913.313355974102	8.200766127331
6	183655	28914.796199178783	2.141311961178
6	183663	28916.193761448789	16.808379370552
6	183684	28919.527718393499	14.673749932166
6	183811	28936.115569679527	9.375611104544
6	183863	28942.972826815251	6.024346906083
6	183972	28959.108384087627	1.358865559227
6	184098	28977.267904664523	9.253587747749
6	184360	29017.560741588066	1.887209002403
6	184384	29020.884961333067	1.070827355491
6	184416	29024.537079460486	5.505094087734
6	184571	29047.604727229054	0.97572874518
6	184708	29065.707130141597	5.403087738455
6	184711	29066.193537736352	28.525853343484
6	184820	29082.587546670991	3.84788270133
6	184830	29084.50140339103	1.272197946098
6	184833	29085.076875514904	1.203935377623
6	185024	29138.452902215244	0.902322171201
6	185035	29141.88930099917	7.877084688972
6	185052	29146.235699223535	1.478477539875
6	185087	29151.641647045534	7.374993217047
6	185184	29169.331357142829	8.306194248424
6	185249	29177.818920367433	8.139453601666
6	185259	29179.376370821556	5.003042238449
6	185274	29181.139514164057	2.777461834124
6	185351	29199.225066373129	6.70855077057
6	185392	29205.294456187101	3.999184314776
6	185460	29220.84175553344	3.443020254627
6	185522	29244.857596621224	4.491285639355
6	185579	29255.625483343947	3.630474256663
6	185628	29264.651046985398	23.106362994987
6	185686	29273.096120418107	14.078235465865
6	185691	29273.831431339087	0.994410981804
6	185738	29280.836876263247	6.908285898189
6	185844	29298.449762538584	9.549967642613
6	185892	29305.978219891894	6.690829309331
6	185963	29320.903687775321	6.841413284104
6	186058	29334.329576530872	18.647994593849
6	186178	29350.3766700347	6.87625650463
6	186407	29381.236156762124	2.413076727129
6	186440	29386.09563386828	23.191278802292
6	186689	29438.086110600785	9.434107633375
6	186717	29444.849678110373	0.803928301483
6	186801	29455.403260171002	0.631442313224
6	186847	29463.651482994527	18.992798091791
6	186990	29484.849686356571	4.381146873758
6	186993	29485.609332841479	6.76322071149
6	187159	29513.050275208042	11.030450292987
6	187209	29521.286669877269	10.683998812315
6	187231	29524.608914119569	1.415567323556
6	187247	29527.392563434603	6.351201251071
6	187345	29540.405448817111	5.918058879105
6	187422	29550.97479549206	0.753427063419
6	187454	29555.046422805238	27.071146166473
6	187522	29563.628505688506	29.834715683762
6	187529	29564.544337294596	2.179877087199
6	187537	29565.871432892904	6.421620738843
6	187637	29579.28013289028	23.608247000587
6	187654	29581.931577169077	7.934058194581
6	187692	29587.246828958598	1.837381135068
6	187711	29589.504033190684	6.546223150094
6	187825	29604.888528400865	23.808069354629
6	187842	29607.234407915986	1.342976557154
6	187925	29619.1962372326	3.145341159086
6	188137	29647.048777609521	19.918767736681
6	188172	29651.86391493405	10.787225929602
6	188210	29657.870256903876	7.483837617891
6	188339	29676.069930231402	0.853319180375
6	188364	29678.91410958168	8.93043576969
6	188459	29691.265244586223	2.864043282453
6	188469	29692.909365195983	3.778983593754
6	188484	29695.056412041622	9.517040120222
6	188511	29698.711120680084	1.621540545327
6	188557	29705.593380102437	19.210725133453
6	188644	29717.994653498861	23.910375937168
6	188698	29727.025199170285	45.255830236496
6	188940	29758.667383649774	10.549492320715
6	188972	29762.783468700868	7.900950212399
6	188980	29764.266539495174	13.557537092041
6	188993	29766.419214357823	13.044472522237
6	189001	29767.829873822318	13.495496839546
6	189058	29775.78154431583	13.674617229066
6	189099	29780.827620067043	5.232395394992
6	189126	29784.307806488049	4.12522238296
6	189134	29785.427780037203	3.091644215271
6	189166	29789.76552109813	1.671898463494
6	189169	29790.351687374028	13.984703886321
6	189197	29794.67345431537	7.119500143168
6	189246	29802.648371580351	3.999738934795
6	189288	29808.277741742801	0.817529654014
6	189412	29823.721220054541	7.407504283622
6	189455	29829.578639687149	0.765989803894
6	189526	29839.481982209503	8.79131618305
6	189571	29845.970066958449	0.599792507478
6	189585	29847.523658199951	3.853301750679
6	189588	29848.144196969846	1.697601221567
6	189708	29865.523568734867	10.509646912726
6	189932	29894.64769977561	12.974413928707
6	189956	29896.993216168758	2.2423411772
6	189968	29898.904756204382	20.8667121854
6	189971	29899.756217035715	13.44066483288
6	189979	29900.808278071292	3.449888602106
6	190035	29908.089578444062	21.664704692504
6	190066	29912.715732663048	7.144220418121
6	190076	29914.094022219551	19.505101839559
6	190175	29927.145856125298	6.566424027244
6	190325	29948.204253406887	8.847535686595
6	190419	29960.950631838823	1.048656214436
6	190480	29968.859150503084	4.474617184888
6	190543	29977.882220608715	7.439426673778
6	190591	29985.408363440606	1.60924476777
6	190653	29992.552011690401	5.061645278413
6	190683	29996.920086146026	8.932758594041
6	190694	29998.459688317842	10.269676715168

