version 2
run First_exit_2-18-20191023-00:19:42-5125
attr configname First_exit_2
attr datetime 20191023-00:19:42
attr experiment First_exit_2
attr inifile omnetpp.ini
attr iterationvars ""
attr iterationvarsf ""
attr measurement ""
attr network ResponseTimeNetwork
attr processid 5125
attr repetition 18
attr replication #18
attr resultdir results
attr runnumber 18
attr seedset 18
param **.Source.interArrivalTime exponential(4s)
param **.jobPriority bernoulli(0.4)
param **.PS.serviceTimeU1 "uniform(0.4s, 1.0s)"
param **.PS.serviceTimeU2 "uniform(1s, 1.2s)"
param **.SS1.serviceTime exponential(0.4s)
param **.SS2.serviceTime exponential(0.8s)
param **.PS.exitProbability bernoulli(0.2)

vector 0 ResponseTimeNetwork.SS1 queueLength:vector ETV
attr interpolationmode sample-hold
attr title "queue length, vector"
vector 1 ResponseTimeNetwork.SS2 queueLength:vector ETV
attr interpolationmode sample-hold
attr title "queue length, vector"
vector 2 ResponseTimeNetwork.QueueU1 queueLength:vector ETV
attr interpolationmode sample-hold
attr title "queue length, vector"
vector 3 ResponseTimeNetwork.QueueU2 queueLength:vector ETV
attr interpolationmode sample-hold
attr title "queue length, vector"
vector 4 ResponseTimeNetwork.sink lifeTimeU1:vector ETV
attr interpolationmode none
attr title "lifetime of arrived jobs U1, vector"
attr unit s
vector 5 ResponseTimeNetwork.sink lifeTime:vector ETV
attr interpolationmode none
attr title "lifetime of arrived jobs, vector"
attr unit s
vector 6 ResponseTimeNetwork.sink lifeTimeU2:vector ETV
attr interpolationmode none
attr title "lifetime of arrived jobs U2, vector"
attr unit s
0	0	0	0
0	579	403.554753457886	1
0	581	404.138933539918	0
0	630	420.339956841216	1
0	631	420.627737546274	0
0	7645	4844.792923467343	1
0	7646	4845.002763850872	0
0	21274	13746.256008721731	1
0	21276	13746.488152338353	0
0	30072	19302.268698998525	1
0	30074	19302.680318131127	0
0	44245	28300.024610898495	1
0	44246	28300.892294126111	0
1	0	0	0
1	3915	2483.770132492499	1
1	3916	2484.024684753923	0
1	5162	3265.532516138195	1
1	5166	3266.224592974674	0
1	6415	4094.351192976579	1
1	6416	4095.368266997331	0
1	9535	6101.892014247987	1
1	9536	6102.279808483151	0
1	11164	7167.97858127312	1
1	11166	7168.193773285408	0
1	14325	9153.321510717428	1
1	14326	9156.906091035402	0
1	14617	9326.043165822274	1
1	14624	9327.409657780567	0
1	17160	10990.601259623271	1
1	17161	10991.840109187021	0
1	21640	13917.997414538348	1
1	21646	13921.03684919639	0
1	22045	14131.656959398167	1
1	22046	14131.847726490063	0
1	22050	14132.261289715295	1
1	22056	14134.040598712074	0
1	23310	15004.325640372171	1
1	23311	15004.482058718722	0
1	23575	15134.468766865658	1
1	23576	15134.535754732419	0
1	24625	15857.129287274011	1
1	24626	15857.560493740111	0
1	26490	17030.335668513899	1
1	26499	17031.148434320798	0
1	26585	17109.117981266458	1
1	26586	17110.42292133196	0
1	34242	22140.228887612718	1
1	34246	22141.963547183558	0
1	34255	22142.932654354753	1
1	34256	22144.471016664982	0
1	34570	22286.127337799678	1
1	34571	22286.719686688872	0
1	35555	22923.744795589416	1
1	35556	22925.888751885908	0
1	35560	22926.774115251059	1
1	35561	22927.372025928587	0
1	35885	23143.570878826112	1
1	35886	23146.387316384378	0
1	41935	26907.280444269589	1
1	41936	26907.893028573958	0
2	0	0	0
2	5	4.519787299531	1
2	6	4.863143148047	0
2	40	23.923944094783	1
2	41	24.306799448105	0
2	150	121.473471031456	1
2	151	122.097344650473	0
2	225	168.13155497612	1
2	226	168.725972204987	0
2	235	171.112069621916	1
2	236	171.274501266199	0
2	460	328.187993383346	1
2	461	328.782079797094	0
2	487	341.882675524385	1
2	488	342.109893708851	0
2	572	402.563485617194	1
2	575	403.058392314837	0
2	582	404.138933539918	1
2	584	404.151885885048	2
2	586	404.208628308474	3
2	587	404.244714865546	2
2	591	404.781458375686	3
2	592	405.08339935871	2
2	596	405.236036076887	3
2	597	405.987390572291	2
2	601	406.275308212937	3
2	602	406.563758818286	2
2	605	407.276736157427	1
2	608	407.943630704323	0
2	635	420.918653605287	1
2	636	421.200566299799	0
2	680	452.678952932614	1
2	681	453.302394607383	0
2	775	502.696539112945	1
2	776	502.921936654469	0
2	785	505.751202521815	1
2	786	506.442526991176	0
2	1060	718.675943066843	1
2	1061	718.72018346911	0
2	1080	721.253307601198	1
2	1081	721.633234169044	0
2	1105	729.178826696266	1
2	1106	729.664035021184	0
2	1125	749.088543131081	1
2	1126	749.539798599205	0
2	1175	777.267040394082	1
2	1176	777.442143333354	0
2	1185	778.968576081032	1
2	1186	779.039891665372	0
2	1255	823.362881556215	1
2	1256	824.121307069809	0
2	1315	852.850742314688	1
2	1316	853.19494455577	0
2	1330	854.934553292602	1
2	1331	855.371691508569	0
2	1450	924.028107394691	1
2	1453	924.429986306834	0
2	1460	925.567911041892	1
2	1461	925.826363182809	0
2	1520	967.53601133209	1
2	1521	967.547395405864	0
2	1540	970.781354545248	1
2	1541	971.026497587688	0
2	1545	971.264532411331	1
2	1546	971.989836718036	0
2	1550	972.041972670986	1
2	1551	972.397888586424	0
2	1625	1020.98660508543	1
2	1627	1020.994406017893	2
2	1628	1021.704216897927	1
2	1631	1022.543935976105	0
2	1635	1022.642529913872	1
2	1636	1023.476484821618	0
2	1660	1052.109382908217	1
2	1661	1052.384293069593	0
2	1670	1061.22640784974	1
2	1671	1062.060190757824	0
2	1705	1092.207372388285	1
2	1708	1092.84287356715	0
2	1760	1142.197674882953	1
2	1761	1142.801451096379	0
2	1765	1142.982933962185	1
2	1766	1143.365221698557	0
2	1770	1143.456699854627	1
2	1771	1143.914368113338	0
2	1825	1176.368238622986	1
2	1826	1176.548664165001	0
2	1840	1194.145420019015	1
2	1841	1194.837703635922	0
2	1980	1307.567924001163	1
2	1981	1307.642332254534	0
2	1985	1307.69817217501	1
2	1986	1308.626968537967	0
2	2135	1430.987381066975	1
2	2136	1431.3856999818	0
2	2207	1451.043127617369	1
2	2208	1451.613832821437	0
2	2215	1452.369555336717	1
2	2217	1452.951145786978	2
2	2218	1452.960633928209	1
2	2221	1453.747031095039	0
2	2395	1539.828839538823	1
2	2396	1540.223625341192	0
2	2419	1547.013045737086	1
2	2420	1547.031596121468	0
2	2470	1573.305814517986	1
2	2473	1574.015980637813	0
2	2487	1576.788716618184	1
2	2488	1576.929207772456	0
2	2575	1617.574350387169	1
2	2576	1618.342148616566	0
2	2620	1652.015731614843	1
2	2621	1652.64017355435	0
2	2695	1721.229082920865	1
2	2696	1721.518371713736	0
2	2715	1769.239447343657	1
2	2716	1769.756711938145	0
2	2745	1792.67115798716	1
2	2746	1793.383075601341	0
2	2760	1813.46047188518	1
2	2761	1814.017788900809	0
2	2845	1843.663290515766	1
2	2848	1844.478273302616	0
2	3145	2018.668002115738	1
2	3146	2019.183146186836	0
2	3157	2020.554812644601	1
2	3158	2020.662230607087	0
2	3175	2025.255282795128	1
2	3176	2025.533526048634	0
2	3480	2251.262827336667	1
2	3481	2251.47252178884	0
2	3490	2256.102945602709	1
2	3491	2256.303109152129	0
2	3500	2258.182708869796	1
2	3501	2258.203587722737	0
2	3505	2258.253533351084	1
2	3506	2258.865392901381	0
2	3510	2258.873570780969	1
2	3511	2259.685881657531	0
2	3525	2269.365140727455	1
2	3528	2270.042812578305	0
2	3537	2271.145112502865	1
2	3538	2271.257235107356	0
2	3550	2273.041997680233	1
2	3551	2273.581044408697	0
2	3590	2293.046650533229	1
2	3591	2293.577420532998	0
2	3615	2311.9601541158	1
2	3616	2312.428122222866	0
2	3685	2333.721367620446	1
2	3686	2334.291511373697	0
2	3847	2437.178819421425	1
2	3848	2437.183662913149	0
2	3920	2484.710086781687	1
2	3921	2484.975602573065	0
2	3935	2487.725239748928	1
2	3936	2488.08977940995	0
2	3975	2521.764437364492	1
2	3976	2522.172280926368	0
2	4007	2536.228015885303	1
2	4008	2536.429609359633	0
2	4220	2748.220631270929	1
2	4221	2748.852634554998	0
2	4260	2771.533941811384	1
2	4261	2772.014950116234	0
2	4380	2845.909422852254	1
2	4381	2845.916594378333	0
2	4430	2868.760980923083	1
2	4431	2868.786983348403	0
2	4445	2869.814400898702	1
2	4446	2870.65577028295	0
2	4525	2914.481315445935	1
2	4526	2914.557945554838	0
2	4550	2924.897534670368	1
2	4551	2924.936314247895	0
2	4832	3071.022379314968	1
2	4833	3071.464450544457	0
2	4980	3167.158780800572	1
2	4981	3167.402196344583	0
2	5220	3297.263016023617	1
2	5221	3297.533218589598	0
2	5245	3309.843730484678	1
2	5246	3310.150551428912	0
2	5257	3311.424572103479	1
2	5258	3311.788139682762	0
2	5265	3313.107187380088	1
2	5266	3313.365863416191	0
2	5270	3313.970673522613	1
2	5271	3314.043290839052	0
2	5365	3403.64463983274	1
2	5366	3403.724298923292	0
2	5435	3435.70627556926	1
2	5436	3436.046846767577	0
2	5640	3599.188772373907	1
2	5641	3599.257968052119	0
2	5715	3627.77837163966	1
2	5716	3627.892146041329	0
2	5985	3810.575447676765	1
2	5986	3811.180069088245	0
2	5995	3811.71144834975	1
2	5996	3812.321357186566	0
2	6020	3833.453401101337	1
2	6021	3834.022913657257	0
2	6080	3895.660614795095	1
2	6081	3896.162633435159	0
2	6215	3985.623393386332	1
2	6218	3986.428441477505	0
2	6225	3987.327638964305	1
2	6226	3987.941263778167	0
2	6280	4027.905845948409	1
2	6281	4028.495679586775	0
2	6350	4059.623226120462	1
2	6351	4059.650162121536	0
2	6375	4066.491911543543	1
2	6376	4066.697410561258	0
2	6427	4097.834665674631	1
2	6428	4097.853949487718	0
2	6490	4145.806297300983	1
2	6491	4145.978265755335	0
2	6675	4257.630620115418	1
2	6676	4257.769731837695	0
2	6692	4265.346745300475	1
2	6695	4265.773276923379	0
2	6795	4334.669554806777	1
2	6796	4334.791413685391	0
2	7060	4501.789872842767	1
2	7061	4501.949267818712	0
2	7160	4560.612869365145	1
2	7161	4561.120432261299	0
2	7360	4661.574767442034	1
2	7361	4661.615646916673	0
2	7400	4682.400099360128	1
2	7401	4682.965874087451	0
2	7405	4683.219427314809	1
2	7406	4683.916844909279	0
2	7635	4842.713888230208	1
2	7636	4843.235562035038	0
2	7640	4843.80229435335	1
2	7641	4844.213405520904	0
2	7650	4845.489185001595	1
2	7651	4845.772985756469	0
2	7655	4845.927224226519	1
2	7656	4846.599737712347	0
2	7670	4850.220020577462	1
2	7671	4850.615170074807	0
2	7705	4866.768768836514	1
2	7706	4867.228619322153	0
2	7775	4917.158758930071	1
2	7776	4917.20423079909	0
2	7920	5009.269839658182	1
2	7921	5009.786782960515	0
2	8000	5068.095418168826	1
2	8003	5068.561861207772	0
2	8095	5150.541644062413	1
2	8099	5150.969272857372	2
2	8100	5151.156865825773	1
2	8105	5151.929613166245	0
2	8135	5160.05465854294	1
2	8136	5160.34915719703	0
2	8170	5173.085298865161	1
2	8171	5173.141313980076	0
2	8270	5241.530145528756	1
2	8271	5242.169540560344	0
2	8385	5326.614890656063	1
2	8386	5327.179344799569	0
2	8395	5336.131130801072	1
2	8396	5336.647564394146	0
2	8405	5339.628493900598	1
2	8408	5340.091305067115	0
2	8417	5340.932593390969	1
2	8418	5341.175235890741	0
2	8425	5342.502667599398	1
2	8426	5342.748734553069	0
2	8477	5377.382035034928	1
2	8478	5377.671350104459	0
2	8487	5378.846058476973	1
2	8490	5379.126961039384	0
2	8520	5388.130571681079	1
2	8521	5388.482417351291	0
2	8530	5390.079535370447	1
2	8531	5390.121985010802	0
2	8585	5448.445090122789	1
2	8586	5448.565376200642	0
2	8600	5453.294072512186	1
2	8603	5453.865259332526	0
2	8725	5539.498619697928	1
2	8726	5539.550116505455	0
2	8760	5575.711418895101	1
2	8761	5575.976349876147	0
2	8790	5596.988943335643	1
2	8791	5597.208896808402	0
2	8880	5634.896351734464	1
2	8881	5635.466673778581	0
2	8915	5653.952577133871	1
2	8916	5654.303941278863	0
2	8932	5661.763031227342	1
2	8933	5662.174586947837	0
2	8942	5663.19323161826	1
2	8943	5663.219242983094	0
2	9010	5699.565911720463	1
2	9011	5700.254761434791	0
2	9065	5734.119584185619	1
2	9066	5734.164805728631	0
2	9180	5830.662242594204	1
2	9181	5831.352145825629	0
2	9200	5836.308437627949	1
2	9201	5836.732360042555	0
2	9227	5843.364959948116	1
2	9228	5843.813251738208	0
2	9412	6007.454278836543	1
2	9413	6007.531747133041	0
2	9460	6043.877469746054	1
2	9461	6044.12012394281	0
2	9620	6161.177496767888	1
2	9621	6161.645206180991	0
2	9665	6192.86284819427	1
2	9666	6193.028460008259	0
2	9720	6230.194647726286	1
2	9721	6230.606268814403	0
2	9725	6230.70030060911	1
2	9726	6231.432045246392	0
2	9730	6231.525960643017	1
2	9731	6231.991430957486	0
2	9765	6242.811010583819	1
2	9766	6243.036341494641	0
2	9797	6259.785015774693	1
2	9798	6259.84062071661	0
2	9815	6266.625489121574	1
2	9816	6266.999385337488	0
2	9835	6272.111586199577	1
2	9837	6272.281765434118	2
2	9838	6272.85632551311	1
2	9841	6273.839307556706	0
2	9955	6362.413834412619	1
2	9956	6362.778969784085	0
2	9965	6363.849165741346	1
2	9966	6364.465010616886	0
2	9975	6365.655593668209	1
2	9978	6366.279444037859	0
2	10065	6430.608881067432	1
2	10066	6430.650713559284	0
2	10250	6569.713767504922	1
2	10251	6570.194410436941	0
2	10265	6573.117358428764	1
2	10266	6573.552741574717	0
2	10325	6608.242889992461	1
2	10326	6608.626058955471	0
2	10440	6704.764234347154	1
2	10441	6705.233779458595	0
2	10530	6755.020983602938	1
2	10531	6755.878312349995	0
2	10535	6755.909713243822	1
2	10536	6756.352435489628	0
2	10595	6786.945713751918	1
2	10596	6787.517988477832	0
2	10620	6793.939185664201	1
2	10621	6793.943086878135	0
2	10650	6828.986818996504	1
2	10652	6829.305281682647	2
2	10653	6829.366752318406	1
2	10656	6829.942702675817	0
2	10695	6872.730789061708	1
2	10696	6873.200535545639	0
2	10705	6876.7683973282	1
2	10707	6877.123229173112	2
2	10708	6877.485708416096	1
2	10711	6878.10318771422	0
2	10715	6878.312063509929	1
2	10716	6878.909834460803	0
2	10720	6879.267183281344	1
2	10721	6879.795614947454	0
2	10725	6880.086933768674	1
2	10726	6880.696516413829	0
2	10730	6880.755328603048	1
2	10731	6881.3499311772	0
2	10735	6881.982962034908	1
2	10736	6882.221480443544	0
2	10755	6890.470506431099	1
2	10756	6890.619065308867	0
2	10815	6948.098306800989	1
2	10816	6948.364709057398	0
2	10855	6985.817205111701	1
2	10856	6985.968005654674	0
2	10900	7004.276446528177	1
2	10901	7004.654253180335	0
2	10985	7049.22056332302	1
2	10987	7049.263642616247	2
2	10988	7049.659728158221	1
2	10991	7050.438958013572	0
2	11025	7072.91532045733	1
2	11026	7073.306191786138	0
2	11055	7090.898510199251	1
2	11056	7091.354098316245	0
2	11095	7133.442914891849	1
2	11096	7134.135558856937	0
2	11325	7235.529582859308	1
2	11326	7236.28321492867	0
2	11360	7246.592103822991	1
2	11361	7246.655997675683	0
2	11390	7253.521991496933	1
2	11391	7253.961598027485	0
2	11545	7381.532360930399	1
2	11546	7381.997072943463	0
2	11555	7382.65026254717	1
2	11556	7383.180496318336	0
2	11760	7522.884350062469	1
2	11761	7523.272426354863	0
2	11765	7523.401731201835	1
2	11766	7523.953630753119	0
2	11830	7578.904687083861	1
2	11831	7578.936408720259	0
2	11850	7591.901241880734	1
2	11851	7592.737481824272	0
2	11970	7657.478156017334	1
2	11971	7657.735016137655	0
2	12075	7732.30196189797	1
2	12076	7732.862239928431	0
2	12090	7747.149394326783	1
2	12091	7747.992988939905	0
2	12125	7757.849311327831	1
2	12126	7758.075229951994	0
2	12235	7838.1682308281	1
2	12236	7838.309206127879	0
2	12370	7918.969750935732	1
2	12371	7919.402831053624	0
2	12385	7922.17650117074	1
2	12386	7922.982531814777	0
2	12510	8001.729351812708	1
2	12512	8001.862707478194	2
2	12513	8002.377540825978	1
2	12516	8003.065806687223	0
2	12595	8043.076418197192	1
2	12596	8043.121132550552	0
2	12600	8043.129166615283	1
2	12601	8043.955547582196	0
2	12745	8133.815404602439	1
2	12746	8134.504837967364	0
2	12785	8155.576364885155	1
2	12788	8155.946867041043	0
2	12800	8158.590049693599	1
2	12801	8158.592998597407	0
2	12830	8174.843872112793	1
2	12831	8175.055457874227	0
2	12840	8179.688080224284	1
2	12841	8179.888657893301	0
2	12845	8180.010076614527	1
2	12846	8180.378911363813	0
2	12850	8180.547213307104	1
2	12851	8181.321289419071	0
2	12960	8274.232330235851	1
2	12962	8274.540839208994	2
2	12963	8274.695737512801	1
2	12966	8275.143001042931	0
2	13065	8365.037767797528	1
2	13067	8365.126460538197	2
2	13068	8365.41006328306	1
2	13073	8365.916828837533	0
2	13095	8378.136887142327	1
2	13098	8378.22827136145	0
2	13110	8379.911744148599	1
2	13111	8380.230739520528	0
2	13145	8394.550427661724	1
2	13146	8394.571101833022	0
2	13180	8413.117751762926	1
2	13181	8413.154405780395	0
2	13190	8413.71019174177	1
2	13191	8414.135010609475	0
2	13245	8437.085525488761	1
2	13246	8437.676056010228	0
2	13270	8446.345952403975	1
2	13273	8447.016923392595	0
2	13280	8447.70258886435	1
2	13281	8448.125581985324	0
2	13330	8474.188784707567	1
2	13331	8474.306072116913	0
2	13485	8597.167482071193	1
2	13486	8597.300509755659	0
2	13505	8623.69887285818	1
2	13506	8623.960916541846	0
2	13545	8639.721817926868	1
2	13546	8640.411448574148	0
2	13565	8659.068106541818	1
2	13566	8659.513486573104	0
2	13645	8732.443828588504	1
2	13646	8732.455004138565	0
2	13680	8761.283509437534	1
2	13681	8761.773902175762	0
2	13685	8762.001600303662	1
2	13686	8762.54481579219	0
2	13860	8894.00362545614	1
2	13861	8894.501254597099	0
2	13905	8909.682396290996	1
2	13907	8910.310957474743	2
2	13908	8910.451830059542	1
2	13911	8910.99205748953	0
2	13975	8954.59148668963	1
2	13976	8954.627108164978	0
2	14015	8986.413900998273	1
2	14016	8986.626666152937	0
2	14022	8986.897045294997	1
2	14023	8987.189491545776	0
2	14027	8987.243506912528	1
2	14028	8988.084179634595	0
2	14145	9082.08306678275	1
2	14146	9082.207331282177	0
2	14150	9082.247939914509	1
2	14151	9082.913148438648	0
2	14155	9083.02285061191	1
2	14156	9083.498866134925	0
2	14240	9120.379369654785	1
2	14242	9120.871680105584	2
2	14243	9121.074953090946	1
2	14246	9121.987374505621	0
2	14395	9202.959344864155	1
2	14396	9203.006972434861	0
2	14435	9224.172408389934	1
2	14436	9224.669545429034	0
2	14505	9276.357861429656	1
2	14506	9276.542789785575	0
2	14560	9318.016404496318	1
2	14561	9318.311401181002	0
2	14575	9319.782443175484	1
2	14576	9320.129120804541	0
2	14615	9325.979000411762	1
2	14616	9326.043165822274	0
2	14790	9458.606600140064	1
2	14791	9459.218332419585	0
2	14805	9463.094581092399	1
2	14806	9463.14422588536	0
2	14840	9498.637317766663	1
2	14842	9498.89985375937	2
2	14843	9499.51721677321	1
2	14846	9500.175427131141	0
2	14920	9551.665831879667	1
2	14923	9552.290104138862	0
2	14940	9562.801349646129	1
2	14941	9563.402662622944	0
2	14962	9567.447387376738	1
2	14963	9567.881165760172	0
2	14970	9569.236661114808	1
2	14971	9569.768783254477	0
2	15120	9708.932311055295	1
2	15121	9709.245760473803	0
2	15155	9741.173270207793	1
2	15156	9741.70728211076	0
2	15160	9742.235666040072	1
2	15161	9742.397499150261	0
2	15165	9742.618844097138	1
2	15168	9742.812448696037	0
2	15175	9744.478465675704	1
2	15176	9744.636487273815	0
2	15250	9791.491471841151	1
2	15251	9791.531257350494	0
2	15255	9791.807622521933	1
2	15257	9792.14067762289	2
2	15258	9792.427925144399	1
2	15261	9792.936452007603	0
2	15370	9880.2015355285	1
2	15371	9880.494076464025	0
2	15535	9975.644417152785	1
2	15536	9976.224738134394	0
2	15545	9981.276778819389	1
2	15546	9982.118828434766	0
2	15560	9984.012996697707	1
2	15561	9984.391368909735	0
2	15590	10008.125783885534	1
2	15591	10008.792410089845	0
2	15610	10027.727957652049	1
2	15611	10028.361315414206	0
2	15640	10043.002931790669	1
2	15641	10043.090424806515	0
2	15675	10067.707815557899	1
2	15676	10067.886219310215	0
2	15700	10088.837978474198	1
2	15701	10088.871193919292	0
2	15705	10089.263036622753	1
2	15706	10089.626826541553	0
2	15710	10090.161816001284	1
2	15711	10090.500651963156	0
2	15720	10091.142992520805	1
2	15721	10091.658996784183	0
2	15740	10103.45282443175	1
2	15741	10103.72668642642	0
2	16042	10318.317102548994	1
2	16044	10318.390859383213	2
2	16045	10318.867613886335	1
2	16050	10319.552984128605	0
2	16054	10319.783960740445	1
2	16055	10319.96701630707	0
2	16062	10320.757827029103	1
2	16063	10320.881532122792	0
2	16067	10321.362785726196	1
2	16068	10321.503144399627	0
2	16072	10321.644710788091	1
2	16073	10322.330768623008	0
2	16145	10377.326703694487	1
2	16146	10377.470506461763	0
2	16215	10418.705466430269	1
2	16218	10419.551151197564	0
2	16225	10420.398416248729	1
2	16226	10420.704989488769	0
2	16255	10447.802469309889	1
2	16256	10447.851477551852	0
2	16275	10475.28872333151	1
2	16276	10475.632142768812	0
2	16280	10475.873899789409	1
2	16283	10476.285058338579	0
2	16295	10480.613228114848	1
2	16296	10480.67606485143	0
2	16305	10481.290689056324	1
2	16306	10481.701163349968	0
2	16465	10587.058877868769	1
2	16466	10587.521091554388	0
2	16625	10695.252009136044	1
2	16626	10695.316569495259	0
2	16690	10718.168111781426	1
2	16691	10718.859183317267	0
2	16805	10764.390148192065	1
2	16806	10764.495047947792	0
2	16935	10844.911055719728	1
2	16936	10845.372075701045	0
2	16945	10846.68778126317	1
2	16946	10846.769926727889	0
2	16950	10847.168558449389	1
2	16951	10847.24767888179	0
2	16955	10847.536375108149	1
2	16956	10848.112745250482	0
2	16990	10886.383707557686	1
2	16991	10887.137390396831	0
2	17000	10887.960555273111	1
2	17001	10888.540598383633	0
2	17125	10972.249343038775	1
2	17128	10972.49018737132	0
2	17265	11058.357271876332	1
2	17266	11059.0513945059	0
2	17365	11152.482002250808	1
2	17367	11152.901335299101	2
2	17368	11153.059369274891	1
2	17371	11153.537101852718	0
2	17375	11153.67704068649	1
2	17376	11153.955924299463	0
2	17475	11274.445345657081	1
2	17476	11274.830031189502	0
2	17650	11359.656368156238	1
2	17651	11360.224408855421	0
2	17785	11446.67181091116	1
2	17788	11446.861031471288	0
2	17825	11462.697596869282	1
2	17826	11463.370283489851	0
2	17830	11463.702482100779	1
2	17831	11464.063680969868	0
2	17855	11473.037801232026	1
2	17858	11473.403800327346	0
2	17862	11473.429689053968	1
2	17863	11474.246743933033	0
2	18055	11604.850986738134	1
2	18056	11605.10159418939	0
2	18165	11681.90463097357	1
2	18167	11682.024324118336	2
2	18168	11682.489178517841	1
2	18172	11682.941109613535	2
2	18173	11683.409293529725	1
2	18176	11683.850505160502	0
2	18180	11683.904215487887	1
2	18181	11684.369244953486	0
2	18185	11684.504140801897	1
2	18186	11685.253792222178	0
2	18190	11685.378343742445	1
2	18191	11685.850152345336	0
2	18225	11715.655312762444	1
2	18226	11715.814394163356	0
2	18235	11717.860116219124	1
2	18236	11718.194882015028	0
2	18245	11719.507935496837	1
2	18246	11719.543231282347	0
2	18320	11767.611577808704	1
2	18321	11767.86178478946	0
2	18365	11796.514486915764	1
2	18366	11797.11340090051	0
2	18375	11798.047111309038	1
2	18376	11798.971384407214	0
2	18385	11800.079251292381	1
2	18386	11800.626647127099	0
2	18390	11801.202313800036	1
2	18391	11801.22684835713	0
2	18400	11802.495529030743	1
2	18403	11802.82210277273	0
2	18540	11911.759263013468	1
2	18541	11912.215563924291	0
2	18620	11987.440697253905	1
2	18621	11987.80765294299	0
2	18655	12005.519232335446	1
2	18656	12005.853198301059	0
2	18675	12013.576878248311	1
2	18676	12013.836405336064	0
2	18705	12018.522259526385	1
2	18706	12018.629153260615	0
2	18710	12018.786280588069	1
2	18711	12019.074558980882	0
2	18715	12019.698944984219	1
2	18716	12020.044044798592	0
2	18780	12055.558085259206	1
2	18782	12055.812502087838	2
2	18784	12055.865742269836	3
2	18785	12055.952279549305	2
2	18788	12056.49857828345	1
2	18791	12057.142378596802	0
2	18795	12057.268792065654	1
2	18796	12058.001240391311	0
2	18805	12059.302765197235	1
2	18806	12059.358431651884	0
2	18907	12144.658502994716	1
2	18908	12144.971078469241	0
2	19000	12192.116595650848	1
2	19001	12192.225999522678	0
2	19035	12210.162614006226	1
2	19036	12210.701392298022	0
2	19105	12285.576684807977	1
2	19108	12285.951021175343	0
2	19295	12467.586481956955	1
2	19296	12467.917001801175	0
2	19315	12494.391556815404	1
2	19316	12494.700900933273	0
2	19390	12548.738515717224	1
2	19391	12549.421467300917	0
2	19445	12574.423828956354	1
2	19446	12575.115960490489	0
2	19497	12614.251727727514	1
2	19498	12614.778061443639	0
2	19505	12616.032515386704	1
2	19506	12616.21901298396	0
2	19555	12668.820438084801	1
2	19556	12669.079126164647	0
2	19605	12684.476159123486	1
2	19606	12684.816482337722	0
2	19625	12703.117318075089	1
2	19626	12703.500087464367	0
2	19645	12714.377850538013	1
2	19646	12714.448824978988	0
2	19737	12787.611306307133	1
2	19738	12787.861772282104	0
2	19800	12822.472735084456	1
2	19801	12822.562881568734	0
2	19830	12833.721671417414	1
2	19831	12833.782751415159	0
2	19870	12857.470995544427	1
2	19871	12858.011257937478	0
2	19965	12924.558013945992	1
2	19966	12924.567573437687	0
2	20050	12963.662405310272	1
2	20053	12963.980257439238	0
2	20085	12973.255544062238	1
2	20086	12974.063558241649	0
2	20155	13037.232503335079	1
2	20156	13037.501496488954	0
2	20160	13037.904739616668	1
2	20163	13038.420991179374	0
2	20167	13038.457274607032	1
2	20168	13039.240983970909	0
2	20175	13040.324432816322	1
2	20176	13040.341553911547	0
2	20220	13070.668145725657	1
2	20221	13071.288850780618	0
2	20235	13073.414407561898	1
2	20236	13073.887903890688	0
2	20330	13138.618399521803	1
2	20331	13139.4897236812	0
2	20467	13242.668177766408	1
2	20468	13243.252968296197	0
2	20472	13243.27711272642	1
2	20475	13243.962882593714	0
2	20532	13273.264698715865	1
2	20533	13273.517881273762	0
2	20537	13273.796314201823	1
2	20539	13274.074443312385	2
2	20541	13274.490673040579	3
2	20542	13274.491897581103	2
2	20545	13275.303250376	1
2	20548	13275.846059694518	0
2	20555	13277.027984214619	1
2	20556	13277.637902825237	0
2	20600	13300.756533897824	1
2	20601	13300.773907627874	0
2	20830	13457.718912196197	1
2	20831	13458.329287643351	0
2	20855	13473.475128574512	1
2	20856	13473.617479657068	0
2	20947	13514.922695088171	1
2	20948	13515.035529239749	0
2	21010	13568.78673221052	1
2	21011	13568.883373288645	0
2	21035	13580.323110758809	1
2	21036	13580.79408830647	0
2	21070	13596.63047811401	1
2	21071	13596.658616140612	0
2	21085	13613.706474774138	1
2	21086	13614.158071058987	0
2	21135	13640.155606567848	1
2	21136	13640.617348426526	0
2	21262	13744.122320983135	1
2	21263	13744.439455465955	0
2	21267	13745.249232714027	1
2	21268	13745.307472089661	0
2	21272	13746.041966155321	1
2	21273	13746.256008721731	0
2	21277	13746.488152338353	1
2	21279	13746.56348800728	2
2	21280	13746.800140197884	1
2	21284	13747.064421461115	2
2	21285	13747.775134678773	1
2	21288	13748.190227044636	0
2	21292	13748.232887505758	1
2	21293	13749.044073414506	0
2	21392	13793.642344030168	1
2	21393	13793.870761210818	0
2	21510	13868.97892319113	1
2	21511	13869.459310781744	0
2	21520	13870.190711537202	1
2	21522	13870.444260738269	2
2	21523	13870.974019719029	1
2	21526	13871.903246057613	0
2	21535	13872.86174393393	1
2	21536	13873.239303258889	0
2	21565	13897.372728018441	1
2	21566	13897.992253378432	0
2	21572	13898.274939098595	1
2	21575	13898.725956431057	0
2	21579	13898.925462149363	1
2	21582	13899.430842318691	0
2	21589	13900.528251972369	1
2	21590	13901.050774928208	0
2	21597	13902.005961505874	1
2	21598	13902.01704679758	0
2	21710	13968.501670238068	1
2	21711	13968.67433662162	0
2	21770	13991.267052266972	1
2	21771	13991.613795722395	0
2	21785	14003.596226084391	1
2	21786	14004.199262897895	0
2	21805	14013.599377741225	1
2	21806	14013.77455746369	0
2	21830	14027.676794154375	1
2	21831	14028.354964770716	0
2	21875	14062.586680438949	1
2	21876	14063.1492499683	0
2	21930	14083.563265027011	1
2	21933	14084.225949910312	0
2	21995	14111.502901991679	1
2	21996	14111.572409978055	0
2	22120	14194.243194304475	1
2	22121	14195.161647388109	0
2	22140	14202.856296188368	1
2	22141	14203.306977757042	0
2	22160	14216.295556732815	1
2	22161	14216.476033867988	0
2	22175	14217.896659638895	1
2	22176	14218.419117294051	0
2	22190	14233.419171784532	1
2	22191	14234.007699653077	0
2	22195	14234.888103574781	1
2	22196	14234.977705369228	0
2	22280	14330.492769413275	1
2	22281	14330.808497786297	0
2	22310	14356.501688371339	1
2	22311	14356.991754684469	0
2	22412	14407.471951954269	1
2	22413	14407.964431148861	0
2	22535	14493.253803159962	1
2	22537	14493.35984159103	2
2	22538	14493.868833145869	1
2	22541	14494.680315373556	0
2	22632	14558.781232067048	1
2	22633	14558.948701373371	0
2	22680	14592.630659953675	1
2	22681	14592.721099674687	0
2	22795	14680.810770686308	1
2	22796	14681.403516398098	0
2	22940	14808.5563233494	1
2	22941	14808.847727452453	0
2	23135	14908.945108177154	1
2	23136	14909.571052609297	0
2	23150	14915.690080597004	1
2	23151	14915.724971554154	0
2	23185	14942.279455690137	1
2	23186	14942.800907024603	0
2	23325	15012.051443014871	1
2	23326	15012.78310559922	0
2	23440	15062.697945914336	1
2	23441	15063.126938822863	0
2	23465	15071.217839148807	1
2	23466	15071.294035909894	0
2	23510	15093.367380476655	1
2	23511	15093.455324325901	0
2	23520	15094.638303696865	1
2	23523	15095.099607455874	0
2	23527	15095.246156960148	1
2	23528	15095.506210607434	0
2	23710	15230.241759741282	1
2	23711	15230.672893572273	0
2	23830	15332.620710547147	1
2	23831	15332.865775980807	0
2	24180	15551.531694362774	1
2	24181	15552.241139191313	0
2	24220	15560.826473727144	1
2	24221	15561.679461591215	0
2	24330	15674.704447213362	1
2	24331	15674.790920392517	0
2	24370	15701.125283574639	1
2	24371	15701.956916711627	0
2	24375	15702.305509942091	1
2	24376	15702.83395568827	0
2	24385	15703.463323936399	1
2	24386	15704.210107088191	0
2	24425	15726.934931777725	1
2	24426	15727.607806719034	0
2	24435	15730.098493237633	1
2	24436	15730.38742325041	0
2	24460	15735.675614401766	1
2	24461	15736.37206947531	0
2	24517	15772.548398942573	1
2	24518	15772.596808136224	0
2	24535	15778.097332358225	1
2	24536	15778.163170684825	0
2	24555	15787.769815243651	1
2	24556	15788.107993658656	0
2	24575	15795.158013945086	1
2	24576	15795.496852794021	0
2	24740	15983.877726236629	1
2	24741	15984.304554424462	0
2	24757	15987.469936274814	1
2	24758	15987.662482699743	0
2	24825	16048.729126845686	1
2	24826	16049.380278869721	0
2	24835	16058.121694943127	1
2	24836	16058.157229107831	0
2	24930	16131.440582070365	1
2	24933	16132.162174698039	0
2	24945	16139.17600894836	1
2	24946	16139.705947713653	0
2	24960	16150.084232345318	1
2	24961	16150.312186786273	0
2	24975	16156.393098771679	1
2	24976	16157.335608204544	0
2	25140	16255.176361062616	1
2	25141	16255.206881155615	0
2	25195	16284.050450788843	1
2	25196	16284.394645852301	0
2	25360	16349.831367577947	1
2	25361	16350.519195823509	0
2	25405	16379.738076489169	1
2	25406	16380.274473016884	0
2	25435	16393.130379229112	1
2	25436	16393.61338230324	0
2	25480	16413.20492408877	1
2	25481	16413.812562089056	0
2	25502	16420.770641012118	1
2	25503	16421.337965131307	0
2	25655	16493.950873591281	1
2	25656	16494.721121629817	0
2	25690	16516.417901815657	1
2	25691	16516.806303008471	0
2	25695	16517.08696285012	1
2	25696	16517.222738695016	0
2	25785	16583.36316506618	1
2	25786	16583.584194869911	0
2	25865	16639.77426896754	1
2	25866	16639.964135382037	0
2	25910	16674.101303944192	1
2	25911	16674.417409371656	0
2	26065	16775.141026532848	1
2	26066	16775.760053340867	0
2	26115	16801.347780339863	1
2	26116	16802.199386897451	0
2	26170	16824.724597341259	1
2	26171	16825.130990082975	0
2	26200	16845.84967144283	1
2	26201	16846.610745013815	0
2	26425	16982.901699443142	1
2	26426	16982.911885314641	0
2	26605	17120.392589539349	1
2	26606	17120.429206528734	0
2	26710	17171.643426886796	1
2	26711	17172.133264968834	0
2	26740	17189.38227662514	1
2	26741	17189.929414337832	0
2	26745	17190.034806975348	1
2	26746	17190.649476954346	0
2	26860	17253.144192128594	1
2	26861	17253.226386588258	0
2	26910	17282.119185563808	1
2	26911	17282.209409867868	0
2	27050	17347.957271929016	1
2	27051	17348.652911705073	0
2	27112	17405.844003020316	1
2	27113	17406.081806573076	0
2	27145	17411.800670274597	1
2	27146	17412.244993066752	0
2	27205	17456.885962544469	1
2	27206	17457.748538790504	0
2	27210	17458.065738756829	1
2	27211	17458.384795745416	0
2	27215	17458.570950477634	1
2	27216	17459.222688647733	0
2	27220	17459.286922250811	1
2	27223	17459.706028876222	0
2	27230	17460.943595635713	1
2	27231	17461.026276520129	0
2	27570	17666.22875603178	1
2	27577	17666.865811758029	0
2	27625	17682.093738140235	1
2	27627	17682.551589387868	2
2	27628	17682.976136445873	1
2	27631	17683.794111827449	0
2	27660	17690.45241692587	1
2	27661	17690.558502634131	0
2	27890	17844.29116925634	1
2	27891	17844.691783322244	0
2	27920	17851.55950895288	1
2	27923	17851.953904644242	0
2	28032	17927.117887410333	1
2	28033	17927.127442841582	0
2	28065	17949.246422921994	1
2	28066	17949.357243502591	0
2	28240	18126.878953490371	1
2	28241	18127.691526343956	0
2	28340	18196.426815607705	1
2	28343	18197.007357935189	0
2	28390	18226.779473433247	1
2	28391	18226.904988320263	0
2	28432	18250.468058284741	1
2	28435	18250.850108688865	0
2	28470	18265.882981106211	1
2	28471	18266.647072598554	0
2	28475	18266.827562296565	1
2	28476	18267.629656979937	0
2	28495	18274.944855888961	1
2	28496	18275.030754520833	0
2	28540	18292.582500545783	1
2	28541	18292.636178484614	0
2	28550	18294.219834246971	1
2	28551	18294.31877079882	0
2	28655	18351.68370653745	1
2	28656	18351.697060074706	0
2	28685	18366.996096896456	1
2	28686	18367.563973083505	0
2	28730	18388.302502897453	1
2	28731	18388.758570352035	0
2	28825	18476.286327565094	1
2	28826	18476.73609456895	0
2	28870	18496.911287902149	1
2	28871	18497.564887866847	0
2	29035	18607.677373573605	1
2	29036	18608.491386490309	0
2	29090	18652.37286908906	1
2	29091	18652.570635125448	0
2	29190	18730.829904654611	1
2	29191	18731.459074870958	0
2	29210	18750.06716889278	1
2	29211	18750.905792481849	0
2	29280	18800.636020393976	1
2	29281	18800.659618562506	0
2	29285	18801.364076844528	1
2	29286	18801.364636761695	0
2	29300	18807.934485941294	1
2	29301	18808.098386470285	0
2	29320	18829.97647575217	1
2	29321	18830.603929735866	0
2	29475	18930.354456416265	1
2	29476	18930.471804690408	0
2	29510	18945.708158433137	1
2	29513	18946.057603511671	0
2	29525	18953.708841775669	1
2	29526	18954.142135732661	0
2	29547	18965.365558711474	1
2	29548	18966.01195534315	0
2	29555	18966.617757716715	1
2	29556	18966.892258103481	0
2	29560	18967.694705053176	1
2	29561	18967.784345734222	0
2	29565	18967.978003974313	1
2	29566	18968.644636971653	0
2	29580	18975.530727856897	1
2	29581	18976.366977032049	0
2	29615	18985.818747804362	1
2	29616	18986.344573751936	0
2	29787	19145.640372080367	1
2	29788	19145.803821903524	0
2	29830	19159.811920838892	1
2	29831	19160.234209833872	0
2	29850	19167.808247289166	1
2	29851	19167.998373761995	0
2	29860	19169.480939480777	1
2	29861	19169.614343653315	0
2	29875	19178.987768826526	1
2	29876	19179.552574121833	0
2	29905	19192.534149210282	1
2	29906	19193.100704755663	0
2	29930	19233.546963110601	1
2	29931	19233.70855073863	0
2	29995	19264.753444863385	1
2	29996	19265.07103617006	0
2	30075	19302.680318131127	1
2	30076	19302.707400423226	0
2	30080	19302.933601565433	1
2	30083	19303.626661540738	0
2	30090	19304.416353438621	1
2	30091	19305.267055149966	0
2	30155	19355.973382687877	1
2	30156	19356.756459292467	0
2	30260	19456.098301007521	1
2	30261	19456.296737675988	0
2	30285	19475.574277895309	1
2	30286	19476.064058046097	0
2	30515	19641.621168968487	1
2	30518	19642.562650506836	0
2	30545	19659.109955793547	1
2	30546	19659.824996282663	0
2	30690	19778.830882314078	1
2	30691	19778.883242396847	0
2	30775	19851.900306991468	1
2	30776	19852.150199387082	0
2	30780	19853.038388436553	1
2	30781	19853.047203612979	0
2	30815	19878.739522262945	1
2	30816	19879.391194325727	0
2	30855	19896.957475798018	1
2	30856	19897.028060372019	0
2	30860	19897.217193206587	1
2	30861	19897.581224110754	0
2	30880	19915.35413463639	1
2	30881	19915.926202646754	0
2	31022	20007.029140130517	1
2	31023	20007.205313823151	0
2	31095	20052.818307710348	1
2	31096	20053.209014820655	0
2	31175	20104.849133650508	1
2	31176	20105.135361348115	0
2	31195	20111.946058521055	1
2	31196	20112.116443065277	0
2	31255	20154.961178505675	1
2	31256	20155.294287296771	0
2	31280	20178.678905595217	1
2	31281	20178.950114163189	0
2	31285	20179.016213965835	1
2	31286	20179.372151463331	0
2	31335	20220.332739393386	1
2	31336	20220.540852786004	0
2	31385	20256.152086971051	1
2	31386	20256.595880562814	0
2	31407	20267.497020070698	1
2	31408	20268.193384231459	0
2	31425	20274.059169858143	1
2	31426	20274.568934746063	0
2	31435	20278.391012864773	1
2	31436	20278.70007991613	0
2	31485	20299.917426215551	1
2	31486	20300.027698765874	0
2	31500	20308.218960449246	1
2	31501	20308.409858552605	0
2	31527	20329.386909519946	1
2	31528	20329.448318040977	0
2	31645	20478.890196917843	1
2	31646	20479.047999247632	0
2	31655	20481.132027542403	1
2	31656	20481.271368205491	0
2	31792	20565.678684836957	1
2	31793	20566.054634293928	0
2	31825	20578.442432691121	1
2	31826	20578.92396852908	0
2	31840	20589.536391100729	1
2	31841	20589.777150487097	0
2	31860	20602.50179013375	1
2	31861	20602.719125411936	0
2	31870	20603.406002251744	1
2	31871	20603.875031858419	0
2	31890	20613.126502665096	1
2	31891	20613.464809635786	0
2	31895	20613.980996126922	1
2	31896	20614.263031948723	0
2	31905	20616.76825772718	1
2	31906	20617.279556097989	0
2	32020	20722.652724381482	1
2	32021	20723.192070708168	0
2	32210	20871.275248831131	1
2	32211	20871.733118138645	0
2	32215	20871.957892561081	1
2	32216	20872.355402832987	0
2	32220	20872.786203226097	1
2	32221	20873.124340803545	0
2	32310	20930.776131840701	1
2	32311	20930.780198233522	0
2	32330	20937.501273639093	1
2	32331	20937.647971254437	0
2	32475	21076.243367006058	1
2	32476	21076.367896496723	0
2	32490	21079.689397970565	1
2	32491	21080.074376462916	0
2	32565	21119.725284154706	1
2	32566	21120.281872464507	0
2	32760	21226.104303636943	1
2	32761	21226.544389845118	0
2	32769	21226.983088146304	1
2	32770	21227.458525514197	0
2	32780	21229.008393333435	1
2	32781	21229.27429331128	0
2	32880	21293.481593362269	1
2	32881	21293.967440656038	0
2	32910	21310.423427183768	1
2	32911	21310.439614671912	0
2	32922	21313.319428503431	1
2	32923	21313.511122334774	0
2	32930	21314.220910690062	1
2	32933	21315.013208520391	0
2	32975	21330.766347972076	1
2	32976	21331.272806842487	0
2	33035	21348.001342190739	1
2	33036	21348.497196373862	0
2	33110	21394.336369596654	1
2	33112	21394.397765975808	2
2	33113	21394.453831088042	1
2	33116	21394.966311312758	0
2	33120	21395.826789948274	1
2	33121	21395.870843047334	0
2	33175	21453.200922793572	1
2	33176	21453.606752571347	0
2	33245	21489.157234812938	1
2	33246	21489.764520478122	0
2	33315	21531.35303385657	1
2	33316	21531.441285762364	0
2	33347	21540.472865237341	1
2	33348	21540.904784615111	0
2	33352	21541.612287580738	1
2	33353	21541.756512135413	0
2	33367	21544.660730363347	1
2	33368	21544.991100344053	0
2	33390	21548.526961583747	1
2	33391	21549.163244127144	0
2	33400	21550.017658305945	1
2	33401	21550.513830534077	0
2	33530	21654.101843377193	1
2	33531	21654.373019614446	0
2	33535	21655.06199914076	1
2	33536	21655.151831233504	0
2	33570	21681.250444335227	1
2	33571	21681.613473078757	0
2	33580	21682.597083017874	1
2	33581	21683.417364115277	0
2	33645	21718.33434083904	1
2	33646	21718.43780892146	0
2	33665	21730.260061859669	1
2	33666	21730.459809121154	0
2	33765	21779.116625611473	1
2	33766	21779.430358971482	0
2	33880	21854.496513733263	1
2	33881	21855.158986924657	0
2	33975	21947.220823627385	1
2	33976	21947.28254757871	0
2	34000	21985.408018416005	1
2	34001	21985.467817322122	0
2	34050	22011.708189046238	1
2	34053	22012.404310177591	0
2	34160	22100.940400162097	1
2	34161	22101.51205237597	0
2	34180	22113.665048364313	1
2	34181	22113.90013148283	0
2	34240	22140.190195604145	1
2	34241	22140.228887612718	0
2	34290	22150.843655124134	1
2	34291	22151.688771824034	0
2	34365	22196.767895593489	1
2	34366	22197.515357532958	0
2	34460	22247.574688692502	1
2	34461	22247.732889028903	0
2	34482	22251.859496605767	1
2	34483	22252.382468395099	0
2	34520	22273.58501049028	1
2	34522	22273.673458696351	2
2	34523	22273.765494406253	1
2	34526	22274.26554182524	0
2	34530	22275.111026948179	1
2	34531	22275.226776094717	0
2	34535	22275.341976935184	1
2	34536	22275.945148189208	0
2	34630	22336.519503408984	1
2	34631	22336.61628901394	0
2	34730	22427.553907914959	1
2	34731	22427.609408799444	0
2	34810	22484.349460277384	1
2	34811	22485.032062965978	0
2	34845	22505.934158592236	1
2	34848	22506.618946995019	0
2	34965	22592.701114568863	1
2	34966	22592.80424860878	0
2	34975	22593.629246831473	1
2	34976	22594.31104322516	0
2	34985	22595.418152833048	1
2	34986	22595.553483593674	0
2	35090	22655.996547636486	1
2	35093	22656.189620950092	0
2	35100	22656.837806589228	1
2	35103	22657.420821293323	0
2	35135	22678.71604656859	1
2	35136	22679.140376001984	0
2	35155	22687.736063758477	1
2	35156	22688.219975317768	0
2	35160	22688.283479667052	1
2	35161	22688.716777722058	0
2	35180	22693.835817093629	1
2	35181	22694.671061692466	0
2	35205	22708.941359899588	1
2	35206	22709.361060879982	0
2	35215	22712.47983368419	1
2	35216	22712.629053879482	0
2	35465	22887.875644586135	1
2	35466	22887.985210785492	0
2	35475	22888.630099811077	1
2	35476	22889.440140239558	0
2	35650	22996.927204631274	1
2	35651	22996.990237840479	0
2	35725	23046.335504845757	1
2	35726	23046.437273580146	0
2	35755	23070.6364089542	1
2	35756	23070.857338145608	0
2	35785	23094.920080122713	1
2	35786	23094.978228122642	0
2	35915	23154.279231974875	1
2	35916	23154.669395208021	0
2	35995	23234.56837402871	1
2	35996	23235.200028647434	0
2	36140	23337.45974679065	1
2	36141	23337.564383230764	0
2	36215	23395.834916238447	1
2	36216	23396.299926724999	0
2	36235	23406.613436175659	1
2	36236	23406.820442521405	0
2	36305	23441.982041710969	1
2	36306	23442.382065489739	0
2	36355	23480.062878877261	1
2	36356	23481.019338102043	0
2	36422	23505.897237856635	1
2	36423	23506.022773292629	0
2	36520	23553.811281220109	1
2	36523	23554.54301445185	0
2	36540	23556.931467845973	1
2	36541	23557.479360624664	0
2	36850	23758.872190773857	1
2	36851	23759.148104361699	0
2	36960	23827.627529852582	1
2	36961	23828.002889469375	0
2	36970	23829.541789085644	1
2	36971	23829.868941207229	0
2	36975	23830.269430340885	1
2	36976	23830.695371016393	0
2	36980	23830.811610656396	1
2	36981	23831.198654942167	0
2	37025	23862.921808916337	1
2	37026	23863.119375750828	0
2	37035	23864.399665777697	1
2	37036	23864.759571782278	0
2	37090	23900.054728783588	1
2	37091	23900.48466038024	0
2	37100	23901.964706762595	1
2	37101	23902.114951613954	0
2	37130	23911.173788015545	1
2	37131	23911.299520397685	0
2	37255	24004.115080510963	1
2	37256	24004.511822873836	0
2	37260	24004.925614810838	1
2	37261	24005.073250149021	0
2	37320	24033.788280589905	1
2	37321	24034.309294160705	0
2	37390	24089.069669095914	1
2	37391	24089.183252864708	0
2	37410	24103.407014995323	1
2	37411	24104.061127232888	0
2	37487	24132.215882358615	1
2	37488	24132.898348462052	0
2	37510	24137.722400911734	1
2	37511	24137.777548951284	0
2	37525	24145.968704122744	1
2	37526	24146.642403905024	0
2	37680	24249.172913758618	1
2	37681	24249.706047586274	0
2	37685	24249.745845342469	1
2	37686	24250.109196738821	0
2	37755	24291.205801960858	1
2	37758	24291.527737192102	0
2	38000	24465.628365590196	1
2	38001	24466.181293741601	0
2	38025	24478.146496121678	1
2	38026	24478.444273674738	0
2	38305	24636.571542969515	1
2	38306	24637.000664927614	0
2	38315	24638.298224744706	1
2	38316	24638.899868586333	0
2	38352	24650.576354872577	1
2	38353	24650.812820185426	0
2	38360	24651.725884480388	1
2	38361	24652.016653718877	0
2	38465	24726.07034361728	1
2	38466	24726.490316816927	0
2	38510	24742.931721338497	1
2	38511	24743.006972348023	0
2	38575	24769.633250490029	1
2	38576	24769.640830320671	0
2	38625	24797.996325323354	1
2	38626	24798.404668127684	0
2	38775	24902.238012971075	1
2	38776	24902.484972241825	0
2	38910	24995.248844733141	1
2	38911	24995.369193625637	0
2	38955	25029.738193208213	1
2	38956	25030.005356405876	0
2	38965	25030.930742311188	1
2	38967	25031.066172706486	2
2	38970	25031.550840874589	1
2	38973	25032.305247220923	0
2	38977	25032.459583741283	1
2	38978	25032.989877167358	0
2	39060	25082.455114400598	1
2	39061	25082.485352977517	0
2	39080	25089.120196271501	1
2	39083	25089.760198592622	0
2	39110	25104.584706703874	1
2	39111	25104.854391121556	0
2	39140	25128.37582199242	1
2	39141	25128.840162335959	0
2	39165	25139.092920448891	1
2	39166	25139.462983406905	0
2	39325	25211.971448292001	1
2	39326	25212.175017952394	0
2	39355	25218.839891972365	1
2	39356	25218.885049972303	0
2	39390	25235.1331788404	1
2	39391	25235.57924120953	0
2	39420	25253.253262264472	1
2	39421	25253.367502134306	0
2	39455	25307.081206045141	1
2	39456	25307.567976567398	0
2	39505	25331.950529617255	1
2	39507	25332.39326066741	2
2	39508	25332.556920955546	1
2	39511	25333.040788399737	0
2	39715	25486.19494669804	1
2	39716	25486.399448902631	0
2	39790	25547.117115297992	1
2	39791	25547.338974455219	0
2	39880	25594.521766901409	1
2	39881	25594.684853765749	0
2	39975	25659.242327167208	1
2	39976	25659.932353080267	0
2	39980	25660.158824484028	1
2	39983	25660.786531009169	0
2	40110	25747.524128261291	1
2	40111	25748.048959879975	0
2	40222	25798.724835183929	1
2	40223	25798.763159328	0
2	40320	25869.379065482025	1
2	40321	25869.433625208115	0
2	40325	25869.500035695784	1
2	40326	25869.876322059048	0
2	40455	25964.073524099554	1
2	40456	25964.1312124273	0
2	40500	25984.413274391857	1
2	40501	25984.84243803268	0
2	40560	26034.056975751541	1
2	40561	26034.650524887991	0
2	40575	26044.990765021015	1
2	40578	26045.849984961493	0
2	40650	26087.681596337563	1
2	40651	26088.177316783947	0
2	40812	26213.599052898139	1
2	40813	26213.95072897602	0
2	40820	26214.836411894736	1
2	40821	26215.360721978351	0
2	40905	26283.910897472113	1
2	40906	26284.171863167184	0
2	40960	26324.219884053352	1
2	40961	26324.375214110829	0
2	40970	26325.997223365065	1
2	40971	26326.016286174772	0
2	41002	26332.169102490784	1
2	41003	26332.502108444753	0
2	41095	26370.723227257881	1
2	41096	26370.751748226338	0
2	41270	26487.75718448971	1
2	41271	26488.2728867487	0
2	41295	26493.807440219916	1
2	41296	26494.13013248318	0
2	41345	26524.089457989018	1
2	41346	26524.128489532001	0
2	41417	26549.354627814097	1
2	41418	26549.733092514978	0
2	41525	26678.948295335673	1
2	41526	26679.102339904151	0
2	41530	26679.771068154115	1
2	41531	26680.008106845572	0
2	41565	26696.893237333822	1
2	41566	26697.477207009564	0
2	41645	26747.508504517126	1
2	41646	26748.123716309682	0
2	41665	26769.104167285375	1
2	41666	26769.621048275155	0
2	41835	26863.185623277488	1
2	41836	26863.355005427609	0
2	41995	26918.094017364502	1
2	41996	26918.588078149625	0
2	42225	27024.198579454283	1
2	42226	27025.059317833013	0
2	42235	27029.126012113837	1
2	42236	27029.684671244571	0
2	42275	27045.510866772502	1
2	42276	27045.682456341964	0
2	42300	27071.876946358692	1
2	42301	27071.933979225488	0
2	42315	27075.454010753141	1
2	42316	27075.674049161056	0
2	42450	27185.522274424166	1
2	42451	27185.707684167487	0
2	42475	27195.33377908877	1
2	42476	27195.507337876745	0
2	42505	27206.655884392815	1
2	42506	27207.097244942507	0
2	42535	27230.697806223624	1
2	42536	27231.058374154745	0
2	42570	27242.106539193143	1
2	42571	27242.598470454767	0
2	42595	27246.664986204809	1
2	42598	27247.08987071437	0
2	42685	27315.215954134856	1
2	42686	27316.058615248805	0
2	42715	27333.679715320012	1
2	42716	27334.098862952576	0
2	42780	27404.687051983833	1
2	42781	27405.249044808693	0
2	42855	27469.09857584013	1
2	42856	27469.20927042858	0
2	42870	27473.705417839475	1
2	42871	27474.475925932264	0
2	42905	27489.135021875135	1
2	42906	27489.378284311989	0
2	42930	27496.965229981129	1
2	42931	27497.171758470825	0
2	42937	27497.489901258278	1
2	42938	27498.133185198019	0
2	43005	27543.241516604998	1
2	43006	27543.456079106663	0
2	43085	27609.209428665383	1
2	43086	27609.530205157056	0
2	43115	27626.41956862013	1
2	43116	27626.851380760885	0
2	43120	27626.855216983998	1
2	43121	27627.564938025746	0
2	43135	27636.337171180433	1
2	43136	27636.457263276951	0
2	43150	27641.627051040563	1
2	43151	27641.781334425377	0
2	43160	27643.179056442281	1
2	43161	27643.497929329805	0
2	43230	27696.2433676642	1
2	43231	27696.594327308485	0
2	43265	27726.752207108269	1
2	43266	27727.243021585951	0
2	43280	27731.431380655941	1
2	43281	27732.029091297303	0
2	43295	27736.270916891178	1
2	43296	27736.82827908268	0
2	43435	27805.373743592384	1
2	43436	27805.875023494372	0
2	43670	27969.77556573446	1
2	43671	27970.497643690171	0
2	43737	28004.410434485904	1
2	43738	28005.251624973491	0
2	43762	28037.051975955957	1
2	43765	28037.453141714895	0
2	43771	28037.797467408289	1
2	43772	28038.186235363904	0
2	43776	28038.491382568759	1
2	43778	28038.520698798843	2
2	43779	28038.586501085881	1
2	43782	28039.345509407466	0
2	44080	28211.059940273245	1
2	44081	28211.552729475808	0
2	44145	28245.473333299691	1
2	44146	28245.751418633125	0
2	44180	28258.308806580755	1
2	44181	28258.480032082032	0
2	44195	28264.609010279732	1
2	44196	28264.860742799254	0
2	44235	28298.700205004184	1
2	44236	28298.983399632377	0
2	44240	28299.324350303903	1
2	44241	28299.587875048667	0
2	44250	28301.025196813734	1
2	44251	28301.83784321655	0
2	44265	28312.935953880779	1
2	44266	28313.731056779592	0
2	44290	28332.726461906468	1
2	44291	28333.427089158266	0
2	44345	28357.043256626301	1
2	44346	28357.739044039189	0
2	44380	28378.064624124707	1
2	44381	28378.544135095492	0
2	44390	28379.83427444768	1
2	44391	28380.259738192439	0
2	44395	28380.349494517263	1
2	44396	28380.693028680246	0
2	44440	28399.340902771286	1
2	44441	28400.086444061485	0
2	44445	28400.439806585985	1
2	44446	28400.671953127582	0
2	44505	28434.36953394385	1
2	44508	28435.034740625803	0
2	44512	28435.075051997841	1
2	44515	28435.662455133923	0
2	44535	28449.325077351359	1
2	44536	28449.741553826835	0
2	44550	28461.361825188695	1
2	44551	28461.573079548807	0
2	44620	28513.575651846805	1
2	44621	28513.736473102745	0
2	44630	28515.343806019964	1
2	44631	28515.661908887263	0
2	44685	28548.285312747358	1
2	44688	28549.09699417767	0
2	44697	28550.338828906041	1
2	44698	28550.606294287088	0
2	44715	28556.564293604314	1
2	44716	28557.016606626661	0
2	44725	28558.337568741898	1
2	44726	28558.527292050308	0
2	44825	28606.548070388307	1
2	44826	28607.398968521668	0
2	44837	28608.556553467717	1
2	44838	28608.928217573207	0
2	44865	28612.875366307909	1
2	44866	28613.242793017902	0
2	45010	28695.078109073863	1
2	45011	28695.210057165399	0
2	45020	28695.867791527679	1
2	45021	28696.295679012983	0
2	45035	28704.466391317403	1
2	45036	28704.713989854287	0
2	45100	28743.746044284993	1
2	45101	28744.38115863372	0
2	45200	28812.48716310509	1
2	45201	28812.942919753078	0
2	45235	28825.646244265468	1
2	45236	28825.722838937858	0
2	45240	28826.270091909351	1
2	45241	28826.4299307696	0
2	45255	28843.365146890798	1
2	45256	28843.523414902711	0
2	45340	28893.213681686391	1
2	45341	28893.693165186644	0
2	45545	29078.363554475798	1
2	45546	29079.019794894071	0
2	45580	29103.490150595227	1
2	45581	29103.802275652121	0
2	45705	29208.409148153526	1
2	45706	29208.577571218254	0
2	45780	29270.540125287212	1
2	45781	29270.920445761687	0
2	45805	29278.73346226088	1
2	45806	29279.252610063908	0
2	45860	29318.076015253124	1
2	45861	29318.26419608259	0
2	45885	29327.558403394821	1
2	45886	29327.633843143563	0
2	46140	29549.252334297966	1
2	46141	29549.308975721457	0
2	46160	29576.002516056278	1
2	46161	29576.734027450728	0
2	46180	29587.357081223776	1
2	46181	29587.427719449904	0
2	46215	29609.852513380537	1
2	46216	29610.354029237481	0
2	46290	29664.630828373879	1
2	46291	29664.786512716234	0
2	46295	29665.387381338845	1
2	46296	29665.624208692581	0
2	46305	29666.862182118518	1
2	46307	29667.396479871382	2
2	46308	29667.400225403879	1
2	46312	29667.404685809843	2
2	46313	29668.178796226086	1
2	46316	29668.60893151534	0
2	46355	29684.681520182521	1
2	46356	29684.891139589892	0
2	46360	29684.984764458441	1
2	46362	29685.158531948829	2
2	46363	29685.661567043643	1
2	46366	29686.253397080618	0
2	46370	29686.33094998649	1
2	46371	29686.755107347936	0
2	46490	29787.323210417035	1
2	46491	29787.386162353615	0
2	46495	29787.770982275338	1
2	46496	29788.064208551059	0
2	46505	29791.771060218665	1
2	46506	29792.209481652094	0
2	46620	29880.155555002634	1
2	46621	29880.270172197356	0
2	46630	29882.028998208305	1
2	46631	29882.640743549526	0
2	46635	29883.503495139411	1
2	46636	29883.57979363928	0
3	0	0	0
3	240	171.620671765611	1
3	241	171.921286763911	0
3	285	197.6764087044	1
3	286	197.881443753085	0
3	325	222.910945385568	1
3	326	223.17529208343	0
3	485	341.516782748512	1
3	492	342.200319573195	2
3	494	342.876017262307	3
3	495	342.940113213647	2
3	498	343.755256527558	1
3	501	344.157439300593	0
3	570	402.522682259299	1
3	574	403.049425729676	2
3	578	403.554753457886	1
3	611	408.351787343567	0
3	650	428.916419001331	1
3	651	429.558814246706	0
3	670	451.213187814418	1
3	671	451.64328965019	0
3	715	469.814842236615	1
3	716	469.954986390301	0
3	720	470.139953976257	1
3	721	470.768571170622	0
3	735	474.580124355454	1
3	736	475.255444284488	0
3	790	506.929116190259	1
3	791	507.178268401534	0
3	815	527.923759656845	1
3	816	527.987283396932	0
3	945	647.410608555134	1
3	946	647.800006589699	0
3	1035	705.762754876203	1
3	1036	706.213672136941	0
3	1070	719.586593305867	1
3	1071	719.843899082424	0
3	1110	729.794480457634	1
3	1111	730.099023560338	0
3	1150	769.264773403627	1
3	1151	769.502619629676	0
3	1160	772.828896226865	1
3	1161	772.908663868285	0
3	1325	854.656937729425	1
3	1326	854.729969086196	0
3	1335	855.609964482368	1
3	1336	856.032598711295	0
3	1340	856.501713529725	1
3	1341	856.842212649226	0
3	1425	906.813434035919	1
3	1426	907.608287780259	0
3	1452	924.343252968585	1
3	1456	925.290893390491	0
3	1510	964.294886990062	1
3	1511	964.71145422069	0
3	1620	1020.119502814094	1
3	1621	1020.9806829137	0
3	1695	1077.312895382588	1
3	1696	1078.052133818636	0
3	1707	1092.563021309511	1
3	1711	1093.283067491132	0
3	1880	1216.868562653446	1
3	1881	1217.013537833007	0
3	2140	1431.698186888786	1
3	2141	1432.158786291047	0
3	2160	1437.160888097385	1
3	2161	1437.681501603624	0
3	2170	1441.351039694891	1
3	2171	1441.523373490007	0
3	2205	1450.974840043034	1
3	2211	1452.178199620006	0
3	2250	1465.599158564713	1
3	2251	1465.642210640991	0
3	2325	1510.241305015452	1
3	2326	1510.345499125476	0
3	2340	1512.971932164253	1
3	2341	1513.353436789989	0
3	2355	1524.94557391257	1
3	2356	1525.222328926356	0
3	2370	1530.033858973794	1
3	2371	1530.910746391047	0
3	2375	1530.969001871562	1
3	2376	1531.880409812764	0
3	2380	1532.233256030519	1
3	2381	1532.490944435051	0
3	2410	1545.465737545941	1
3	2411	1546.10120338923	0
3	2415	1546.313441190774	1
3	2417	1546.553191815895	2
3	2424	1547.405338606125	3
3	2425	1547.542590612496	2
3	2428	1548.04935699105	1
3	2431	1548.601803354963	0
3	2455	1570.69992136306	1
3	2456	1571.201664035472	0
3	2465	1573.081763754817	1
3	2466	1573.135966569738	0
3	2472	1573.417328762657	1
3	2476	1574.690146807855	0
3	2485	1576.641038687038	1
3	2491	1577.424398990834	0
3	2545	1608.10618595761	1
3	2546	1608.158343480219	0
3	2570	1617.075440306959	1
3	2571	1617.554507376655	0
3	2630	1654.823260664128	1
3	2631	1655.118664724119	0
3	2675	1697.474017606414	1
3	2676	1698.017964752011	0
3	2785	1823.525890486662	1
3	2786	1823.918487380229	0
3	2795	1826.157713887653	1
3	2796	1826.198174018407	0
3	2820	1836.342599747299	1
3	2821	1836.865809236043	0
3	2825	1837.431249080091	1
3	2826	1837.718376974105	0
3	2847	1843.79388419956	1
3	2852	1844.592021326462	2
3	2853	1845.296463987624	1
3	2857	1845.383600393106	2
3	2858	1845.992542412525	1
3	2861	1846.981578092204	0
3	2880	1849.119810444823	1
3	2881	1849.797906450181	0
3	2905	1853.344994488978	1
3	2906	1854.0790154688	0
3	3010	1931.207624573856	1
3	3011	1931.242266048304	0
3	3030	1947.821597446261	1
3	3031	1948.543183584785	0
3	3035	1948.878633683202	1
3	3036	1949.319570930017	0
3	3045	1952.007537928941	1
3	3046	1952.008833144706	0
3	3055	1953.827859797558	1
3	3056	1954.063662358008	0
3	3150	2019.290863232631	1
3	3151	2019.959675104927	0
3	3155	2020.12577999429	1
3	3161	2021.412370600889	0
3	3170	2024.53551491337	1
3	3171	2024.627215310849	0
3	3195	2036.943728709784	1
3	3196	2037.085485455221	0
3	3280	2113.089537628424	1
3	3281	2113.655951404817	0
3	3350	2157.976171196052	1
3	3351	2158.144178516559	0
3	3440	2204.932044975833	1
3	3441	2205.450071791686	0
3	3527	2269.784013041646	1
3	3531	2270.528081798013	0
3	3535	2270.614110766752	1
3	3541	2271.860036527383	0
3	3555	2273.636817214024	1
3	3556	2274.22984563901	0
3	3650	2317.717893616127	1
3	3651	2318.190526750622	0
3	3715	2360.0940317857	1
3	3716	2360.613234730117	0
3	3725	2362.536786955862	1
3	3726	2363.205358500072	0
3	3730	2363.207619379771	1
3	3731	2363.696828324293	0
3	3780	2402.625884869992	1
3	3781	2402.882427092774	0
3	3800	2408.59357200435	1
3	3801	2408.648005277528	0
3	3845	2436.610134876937	1
3	3851	2437.874460075065	0
3	3860	2440.146251188064	1
3	3861	2440.895329022217	0
3	3885	2455.769858643503	1
3	3886	2456.474560470724	0
3	3910	2482.628798665757	1
3	3911	2483.1687430693	0
3	4000	2535.294322380077	1
3	4001	2535.500444098301	0
3	4005	2535.960992752386	1
3	4011	2537.317946127262	0
3	4030	2555.3671966071	1
3	4031	2555.524801509695	0
3	4075	2585.015113769982	1
3	4076	2585.334099250116	0
3	4180	2723.457550876138	1
3	4182	2723.679084482324	2
3	4183	2723.961274405761	1
3	4186	2724.742120628856	0
3	4335	2831.843901896695	1
3	4336	2832.622363980309	0
3	4345	2835.418783846071	1
3	4346	2835.535573605789	0
3	4350	2835.895610106722	1
3	4351	2836.229201546652	0
3	4440	2869.678809097187	1
3	4441	2869.78999322596	0
3	4500	2905.291398278667	1
3	4501	2905.37967712613	0
3	4510	2906.506470193295	1
3	4511	2906.965596049508	0
3	4515	2907.754586463538	1
3	4516	2907.836614994375	0
3	4545	2923.979532583933	1
3	4546	2924.020862468865	0
3	4555	2925.267195310796	1
3	4556	2925.469050862102	0
3	4575	2933.82468904505	1
3	4576	2933.87861988577	0
3	4585	2934.991690803517	1
3	4587	2935.463817605829	2
3	4588	2935.683737406314	1
3	4591	2936.540593568275	0
3	4680	3011.920663168083	1
3	4681	3012.08282728549	0
3	4685	3012.090924723273	1
3	4687	3012.736964659403	2
3	4688	3013.040294700022	1
3	4691	3013.771924629434	0
3	4705	3017.40217237858	1
3	4707	3017.737148005088	2
3	4708	3017.833135132545	1
3	4711	3018.817478046014	0
3	4715	3019.126614649459	1
3	4716	3019.697563065642	0
3	4805	3066.09295669323	1
3	4807	3066.334732097102	2
3	4808	3066.550157863672	1
3	4811	3067.003657391879	0
3	4820	3069.310016166597	1
3	4821	3070.03706269596	0
3	4825	3070.161105084143	1
3	4826	3070.508224714699	0
3	4830	3070.989834520411	1
3	4836	3071.872581091675	0
3	4875	3086.903403296128	1
3	4876	3087.244063083507	0
3	4880	3087.900690523495	1
3	4881	3088.03802544559	0
3	4940	3143.217083639398	1
3	4941	3143.481602616095	0
3	5005	3185.883794611038	1
3	5006	3186.056692785892	0
3	5050	3215.232024550483	1
3	5051	3215.769859016243	0
3	5080	3234.468818309653	1
3	5081	3234.480709823854	0
3	5100	3245.407409574503	1
3	5101	3245.498334034401	0
3	5105	3246.15808116728	1
3	5106	3246.355297642722	0
3	5155	3264.316249210374	1
3	5156	3265.026106276349	0
3	5160	3265.505081002104	1
3	5161	3265.532516138195	0
3	5170	3266.833507427105	1
3	5171	3267.011578304958	0
3	5185	3272.794696267071	1
3	5186	3272.88460058527	0
3	5250	3310.620325556462	1
3	5252	3310.917833728512	2
3	5253	3311.066655567834	1
3	5261	3312.74018265897	0
3	5380	3410.866061981884	1
3	5381	3411.346873424936	0
3	5410	3429.732850249693	1
3	5411	3430.28484941048	0
3	5415	3430.841321405026	1
3	5416	3430.931845102994	0
3	5430	3434.887774865128	1
3	5431	3435.446515917561	0
3	5440	3436.097697537451	1
3	5441	3436.484507666031	0
3	5590	3551.183728769551	1
3	5591	3551.791132868595	0
3	5605	3554.259297826063	1
3	5606	3554.283667153935	0
3	5610	3554.900743068937	1
3	5611	3555.097965526325	0
3	5645	3599.460868664919	1
3	5647	3599.731840051089	2
3	5649	3599.772062029504	3
3	5650	3599.780413457813	2
3	5653	3600.22390523126	1
3	5657	3600.560332617329	2
3	5658	3601.105280959063	1
3	5661	3601.957214529176	0
3	5675	3605.575146575493	1
3	5676	3606.304889947239	0
3	5765	3709.376686309466	1
3	5767	3709.479569686252	2
3	5768	3709.841906909295	1
3	5771	3710.280963637842	0
3	5775	3711.015560061738	1
3	5776	3711.214487135386	0
3	5885	3750.937224948051	1
3	5886	3751.234413566386	0
3	5905	3754.419716795293	1
3	5906	3755.086536058857	0
3	5965	3799.836839782603	1
3	5966	3800.408668389881	0
3	5980	3810.401355774632	1
3	5981	3810.509840755312	0
3	5990	3811.223483228434	1
3	5991	3811.663631511208	0
3	6030	3835.608752429549	1
3	6031	3835.908265074156	0
3	6135	3952.819815726936	1
3	6136	3953.074377418673	0
3	6185	3977.591201697447	1
3	6186	3977.886502778362	0
3	6205	3984.666300166392	1
3	6206	3984.749527846427	0
3	6217	3985.846612652271	1
3	6221	3987.157517467424	0
3	6235	3989.211750889735	1
3	6236	3989.696916301144	0
3	6245	3991.824726552822	1
3	6246	3992.327633151531	0
3	6290	4035.441353661394	1
3	6291	4035.553738134129	0
3	6325	4054.282826980637	1
3	6326	4054.36670867328	0
3	6330	4054.747782380032	1
3	6331	4054.902266645454	0
3	6355	4060.222646171683	1
3	6356	4060.316806435933	0
3	6410	4093.713434165018	1
3	6411	4093.872050433977	0
3	6425	4097.55802479217	1
3	6431	4098.334987419887	0
3	6470	4133.298422625913	1
3	6471	4133.781014119397	0
3	6530	4174.591203063606	1
3	6531	4174.709143016007	0
3	6535	4174.966422794538	1
3	6536	4175.323641195273	0
3	6570	4183.297290032461	1
3	6571	4184.015047590233	0
3	6585	4192.032252674316	1
3	6586	4192.461264335396	0
3	6590	4192.715036025435	1
3	6592	4193.06159321039	2
3	6593	4193.115653293845	1
3	6597	4193.349035759756	2
3	6598	4193.899286829992	1
3	6601	4194.300164552158	0
3	6660	4237.172596738645	1
3	6661	4238.066746201342	0
3	6690	4265.316972591472	1
3	6694	4265.446502919689	2
3	6698	4266.457526703566	1
3	6701	4267.433355401192	0
3	6710	4268.507695415472	1
3	6711	4269.09321853852	0
3	6820	4346.868574072331	1
3	6821	4347.007545047343	0
3	6830	4349.712652342543	1
3	6831	4349.803592688381	0
3	6900	4386.438694775408	1
3	6901	4387.071797799927	0
3	7065	4502.254267239002	1
3	7066	4502.65476702445	0
3	7100	4534.374160464866	1
3	7101	4534.728038547782	0
3	7155	4560.019568681936	1
3	7156	4560.498707667101	0
3	7175	4563.828532262167	1
3	7176	4564.104809891887	0
3	7180	4564.124041058051	1
3	7181	4564.872205011955	0
3	7190	4576.622579672493	1
3	7191	4576.706139990573	0
3	7320	4647.494868695273	1
3	7321	4647.811302425457	0
3	7325	4648.364687683861	1
3	7326	4648.584590715101	0
3	7345	4654.688069188818	1
3	7347	4654.849085707118	2
3	7348	4655.252142756894	1
3	7351	4656.158817498103	0
3	7415	4685.50139718028	1
3	7416	4686.342784263286	0
3	7485	4749.084030430588	1
3	7486	4749.831707363167	0
3	7580	4816.89460337572	1
3	7581	4817.627868376887	0
3	7585	4817.795260527582	1
3	7586	4818.083004171756	0
3	7620	4839.593177937524	1
3	7621	4840.014592523919	0
3	7675	4850.730289143166	1
3	7677	4850.813473578206	2
3	7678	4851.073474526492	1
3	7682	4851.53410631947	2
3	7683	4851.941554581228	1
3	7686	4852.539536655595	0
3	7855	4959.949886658915	1
3	7856	4960.527473738778	0
3	7930	5020.118289715577	1
3	7931	5020.401437329388	0
3	7965	5039.049881267852	1
3	7966	5039.334377974291	0
3	8002	5068.143150237734	1
3	8006	5068.994164824689	0
3	8035	5102.330168332831	1
3	8036	5102.593266259504	0
3	8040	5103.373016129657	1
3	8041	5103.547857627782	0
3	8055	5124.052492191789	1
3	8056	5124.583343111437	0
3	8090	5149.620493547932	1
3	8091	5150.282171464282	0
3	8097	5150.915567985704	1
3	8104	5151.221620763043	2
3	8108	5152.566065835802	1
3	8111	5153.565029854223	0
3	8130	5158.981843454043	1
3	8131	5159.858127959307	0
3	8195	5182.6410632395	1
3	8196	5183.25420183107	0
3	8205	5185.705196321348	1
3	8206	5186.180170435589	0
3	8235	5220.75210205008	1
3	8236	5220.843581254773	0
3	8275	5242.235124222816	1
3	8276	5242.663319856632	0
3	8407	5339.888366678757	1
3	8412	5340.450235063092	2
3	8413	5340.718522669752	1
3	8421	5341.854947304683	0
3	8440	5352.735007454436	1
3	8441	5353.091534554106	0
3	8465	5373.944132229956	1
3	8466	5374.669928626311	0
3	8475	5377.13405077637	1
3	8482	5377.716145615895	2
3	8483	5378.525593866226	1
3	8489	5378.953419163007	2
3	8493	5379.601782084913	1
3	8496	5380.297693749056	0
3	8510	5386.453778799757	1
3	8511	5386.85238910837	0
3	8580	5447.523730042636	1
3	8581	5447.863286700587	0
3	8602	5453.697268958603	1
3	8607	5454.542155145072	2
3	8608	5454.683073799302	1
3	8611	5455.458084152489	0
3	8695	5517.62402082158	1
3	8696	5517.742712014943	0
3	8700	5518.264143960375	1
3	8701	5518.303196284251	0
3	8830	5612.814736817788	1
3	8831	5613.250143302883	0
3	8835	5613.651124466251	1
3	8836	5613.998711612307	0
3	8840	5614.510602373755	1
3	8842	5614.908678627651	2
3	8843	5614.997927885501	1
3	8846	5615.783052458287	0
3	8875	5634.405373010669	1
3	8876	5634.762947497914	0
3	8885	5635.556285942382	1
3	8886	5636.062929560874	0
3	8925	5661.53362503592	1
3	8927	5661.590654722351	2
3	8928	5661.693077217058	1
3	8937	5662.350648118978	2
3	8938	5662.595557834503	1
3	8946	5663.696720228732	0
3	8965	5678.675316154946	1
3	8966	5679.4000095215	0
3	8990	5687.804721837879	1
3	8991	5688.322002906145	0
3	9060	5732.966412266905	1
3	9061	5733.627728483841	0
3	9095	5752.825553991287	1
3	9096	5753.181136894007	0
3	9100	5753.34795218212	1
3	9101	5753.592176531316	0
3	9115	5765.615752167592	1
3	9116	5765.632266625035	0
3	9135	5783.433480412247	1
3	9136	5784.162891119014	0
3	9215	5840.963550610377	1
3	9216	5841.344067822496	0
3	9225	5842.93280513861	1
3	9231	5844.575285000638	0
3	9255	5862.204981948463	1
3	9256	5862.56526336921	0
3	9280	5877.13363322846	1
3	9281	5877.549528973965	0
3	9370	5958.030475997559	1
3	9371	5958.482391765246	0
3	9385	5967.041645152646	1
3	9386	5967.865572007974	0
3	9410	6007.349192325733	1
3	9416	6007.940950863658	0
3	9420	6007.987485984688	1
3	9421	6008.779442837777	0
3	9425	6008.939618288688	1
3	9426	6009.338059588883	0
3	9430	6009.726213011403	1
3	9431	6010.223908690911	0
3	9525	6099.973394679362	1
3	9526	6100.404290825471	0
3	9530	6100.753398152283	1
3	9531	6101.25232538834	0
3	9595	6142.856856644815	1
3	9596	6143.156589345102	0
3	9655	6184.464131425613	1
3	9656	6184.718098242768	0
3	9715	6229.819765969988	1
3	9716	6229.979166536137	0
3	9740	6233.158931760125	1
3	9741	6233.893507094478	0
3	9760	6241.832134165052	1
3	9761	6242.290140677516	0
3	9775	6243.876233631341	1
3	9776	6244.407209279618	0
3	9795	6259.651149022224	1
3	9801	6260.458620496555	0
3	9890	6320.629736698256	1
3	9891	6321.046684961649	0
3	9960	6362.791974351944	1
3	9961	6363.709883248065	0
3	9977	6366.027328046519	1
3	9981	6366.840090643118	0
3	10060	6429.871611773069	1
3	10061	6430.223344669814	0
3	10120	6480.413001245503	1
3	10121	6481.215675685845	0
3	10200	6555.50494580933	1
3	10201	6555.895124097974	0
3	10210	6558.62543427604	1
3	10211	6559.405543704821	0
3	10240	6568.637280990167	1
3	10241	6568.840633463595	0
3	10245	6569.173203933553	1
3	10246	6569.332935349844	0
3	10260	6572.335724714289	1
3	10261	6572.894163642253	0
3	10270	6573.709976428216	1
3	10272	6573.859611251011	2
3	10273	6574.395558669965	1
3	10276	6574.978267932997	0
3	10475	6731.207386868634	1
3	10477	6731.729377039599	2
3	10478	6731.910947329553	1
3	10481	6732.352469118128	0
3	10525	6754.881213348677	1
3	10526	6754.924944121414	0
3	10540	6756.949284604281	1
3	10541	6757.027137427009	0
3	10555	6767.584821530601	1
3	10557	6767.950222692552	2
3	10558	6768.117079276445	1
3	10561	6768.572888561983	0
3	10565	6768.843900293868	1
3	10566	6769.409243132353	0
3	10630	6815.686547490047	1
3	10631	6816.095618528459	0
3	10870	6989.432943579988	1
3	10871	6989.489001218546	0
3	10880	6991.589044093063	1
3	10881	6992.261228969772	0
3	10905	7005.406641417	1
3	10907	7005.445099690323	2
3	10909	7005.51008991609	3
3	10910	7005.605311592911	2
3	10913	7006.218307223134	1
3	10916	7007.152490512664	0
3	11015	7069.280429742355	1
3	11016	7069.839188348264	0
3	11050	7089.9927030446	1
3	11051	7090.516247769501	0
3	11135	7164.085813333759	1
3	11136	7164.47452143993	0
3	11145	7165.623134853552	1
3	11147	7165.753630102295	2
3	11149	7165.833932477038	3
3	11151	7166.064254254565	4
3	11152	7166.084463941801	3
3	11155	7166.516757997481	2
3	11159	7166.705613600791	3
3	11160	7167.447182873061	2
3	11163	7167.97858127312	1
3	11167	7168.193773285408	2
3	11169	7168.204853612599	3
3	11170	7168.616164072586	2
3	11174	7168.877301622085	3
3	11175	7169.231021865673	2
3	11178	7169.680348559778	1
3	11181	7170.532184614969	0
3	11225	7183.40938966729	1
3	11226	7183.542966873377	0
3	11250	7196.114528721724	1
3	11252	7196.415153135763	2
3	11253	7196.668157924828	1
3	11256	7197.207883709925	0
3	11260	7197.903403633171	1
3	11261	7197.960170651669	0
3	11355	7245.96843455374	1
3	11356	7245.976083797289	0
3	11385	7252.526989710669	1
3	11386	7253.202476049109	0
3	11395	7254.093161994715	1
3	11396	7254.380951768986	0
3	11425	7283.697271066921	1
3	11426	7283.812921035907	0
3	11470	7320.558965115198	1
3	11471	7321.247894435452	0
3	11510	7359.580991422442	1
3	11512	7359.918240486103	2
3	11513	7360.309814226347	1
3	11516	7360.894794272118	0
3	11550	7382.069599896028	1
3	11551	7382.436651955382	0
3	11570	7387.225726942324	1
3	11572	7387.283103505914	2
3	11573	7387.511901082516	1
3	11576	7388.097706142951	0
3	11605	7400.866741256988	1
3	11606	7401.398790093032	0
3	11620	7406.872533967273	1
3	11621	7407.230895724435	0
3	11640	7414.614093918288	1
3	11641	7414.972765289728	0
3	11665	7449.115704888859	1
3	11666	7449.46853391973	0
3	11820	7572.941811537001	1
3	11821	7573.60155684941	0
3	11860	7597.810186637692	1
3	11861	7598.347015348003	0
3	11870	7599.691038912665	1
3	11871	7600.080791893383	0
3	11885	7608.486466613045	1
3	11887	7608.53620642942	2
3	11888	7608.928377683296	1
3	11892	7609.543904296047	2
3	11894	7609.699733019112	3
3	11895	7609.712682577617	2
3	11898	7610.259519085869	1
3	11901	7610.83388969621	0
3	11905	7610.869438068493	1
3	11907	7611.322884319995	2
3	11908	7611.826146745797	1
3	11911	7612.804259266447	0
3	11915	7613.091783213059	1
3	11916	7613.358605326129	0
3	11920	7613.590739419133	1
3	11921	7614.163245516339	0
3	11925	7614.246516274178	1
3	11926	7614.762974547803	0
3	11965	7656.471745907687	1
3	11966	7656.99444768216	0
3	11985	7663.868241308217	1
3	11986	7664.097321945467	0
3	12095	7748.292332672653	1
3	12096	7748.476063812706	0
3	12150	7778.921605275619	1
3	12151	7779.361249982026	0
3	12195	7801.637076576701	1
3	12196	7802.278057563689	0
3	12215	7827.480330268971	1
3	12216	7827.536614399372	0
3	12230	7837.466040858923	1
3	12231	7837.660423743437	0
3	12250	7845.208697181323	1
3	12251	7845.301826926606	0
3	12295	7878.350721713406	1
3	12296	7878.469703100158	0
3	12330	7892.288772028278	1
3	12331	7892.524845527135	0
3	12355	7909.949650631649	1
3	12356	7910.021703299151	0
3	12415	7931.365174677458	1
3	12416	7931.935023832708	0
3	12450	7976.138372064406	1
3	12451	7976.308202459191	0
3	12460	7977.211023090864	1
3	12461	7977.658445967813	0
3	12525	8005.361163133622	1
3	12526	8005.397208736863	0
3	12535	8006.806426813081	1
3	12536	8007.152332000711	0
3	12665	8109.532728245988	1
3	12666	8109.824328582805	0
3	12680	8112.485656584156	1
3	12681	8112.821454580167	0
3	12700	8119.091747787058	1
3	12701	8119.370066187915	0
3	12787	8155.668875426954	1
3	12791	8156.647955698413	0
3	12885	8209.927060013711	1
3	12886	8210.196459235593	0
3	12930	8247.152974572661	1
3	12931	8247.286834253043	0
3	12935	8247.337376367168	1
3	12936	8248.048997411223	0
3	13015	8321.054338679861	1
3	13016	8321.624689569635	0
3	13072	8365.439349113492	1
3	13076	8366.555971345313	0
3	13097	8378.15471220949	1
3	13101	8378.778707228378	0
3	13185	8413.206568566223	1
3	13186	8413.662522255422	0
3	13195	8414.187298229024	1
3	13197	8414.234441441644	2
3	13198	8414.911509973534	1
3	13201	8415.689735786269	0
3	13210	8419.745507253558	1
3	13211	8420.428663635735	0
3	13240	8436.956552855371	1
3	13241	8437.084488790062	0
3	13250	8437.740683862836	1
3	13252	8438.296997423253	2
3	13253	8438.636516791394	1
3	13256	8439.288459226115	0
3	13272	8446.682686982661	1
3	13276	8447.582777466004	0
3	13420	8535.906595467835	1
3	13421	8536.394432504663	0
3	13490	8597.566544972239	1
3	13491	8598.285384221767	0
3	13510	8624.168592806003	1
3	13511	8624.813112011648	0
3	13715	8776.491968200313	1
3	13716	8777.142840453616	0
3	13750	8813.878251982297	1
3	13751	8814.062901115488	0
3	13830	8859.011609728115	1
3	13831	8859.575272855243	0
3	13855	8893.655636397191	1
3	13856	8893.845778850864	0
3	13900	8909.537552787977	1
3	13901	8909.647743753456	0
3	13915	8911.310037978893	1
3	13916	8911.578848987791	0
3	14020	8986.762940633962	1
3	14032	8988.36849246394	2
3	14033	8988.525327689754	1
3	14037	8988.666121947722	2
3	14039	8988.926971835358	3
3	14040	8989.168053476507	2
3	14043	8990.060944126541	1
3	14046	8990.895891729364	0
3	14050	8991.593278248561	1
3	14051	8991.700771512784	0
3	14110	9053.791613604763	1
3	14111	9053.836762543604	0
3	14165	9084.609117878603	1
3	14166	9085.125943866217	0
3	14260	9132.519071238895	1
3	14261	9133.013669357781	0
3	14285	9144.097365700304	1
3	14286	9144.586724865112	0
3	14295	9145.566579434665	1
3	14296	9145.700323029934	0
3	14320	9152.58319651837	1
3	14321	9152.902641003455	0
3	14350	9162.561480900274	1
3	14351	9163.249259506546	0
3	14360	9170.008418147023	1
3	14361	9170.157569596706	0
3	14440	9225.031992560241	1
3	14441	9225.214501686834	0
3	14490	9270.374968738686	1
3	14491	9270.736899172239	0
3	14550	9316.314876582621	1
3	14551	9316.456616372414	0
3	14555	9316.578628515995	1
3	14556	9317.406826824727	0
3	14565	9318.377091526251	1
3	14567	9318.708803287167	2
3	14568	9318.749696103795	1
3	14571	9319.339403635156	0
3	14580	9320.405325985641	1
3	14582	9320.680983988997	2
3	14583	9320.721461466918	1
3	14587	9320.80472382542	2
3	14589	9320.941521233084	3
3	14590	9321.184060007971	2
3	14593	9321.739561164038	1
3	14596	9322.312322160493	0
3	14600	9322.646372229532	1
3	14602	9323.083331863485	2
3	14603	9323.22461398871	1
3	14606	9323.983599552031	0
3	14625	9327.409657780567	1
3	14626	9327.71089800892	0
3	14630	9327.756996373254	1
3	14631	9328.444000399137	0
3	14635	9328.966933404348	1
3	14636	9329.30233761028	0
3	14645	9333.243882082041	1
3	14646	9333.458978143141	0
3	14685	9350.578122192341	1
3	14686	9350.872602483785	0
3	14795	9459.533897063197	1
3	14796	9460.035395955428	0
3	14870	9509.21026286927	1
3	14871	9509.56304121929	0
3	14922	9551.886794178309	1
3	14926	9552.934503883181	0
3	14960	9567.191863607663	1
3	14966	9568.869913578055	0
3	14995	9589.651999017724	1
3	14996	9590.245326596286	0
3	15005	9591.457922226753	1
3	15006	9591.823961621603	0
3	15050	9631.062695596188	1
3	15051	9631.660480222472	0
3	15055	9631.988260208173	1
3	15056	9632.278326813917	0
3	15100	9694.05782258609	1
3	15101	9694.213146581159	0
3	15167	9742.633092309402	1
3	15171	9743.711115479273	0
3	15205	9759.199770786355	1
3	15206	9759.586873725455	0
3	15345	9869.509981843483	1
3	15346	9869.681856934308	0
3	15365	9879.476672814151	1
3	15366	9879.955938418422	0
3	15375	9880.71028160847	1
3	15376	9881.32757754999	0
3	15390	9884.825922517292	1
3	15391	9885.701932552539	0
3	15400	9890.45235321334	1
3	15401	9890.980825699763	0
3	15430	9902.829708718795	1
3	15431	9903.533788305936	0
3	15445	9906.248038674393	1
3	15446	9906.373466230007	0
3	15455	9907.383641256803	1
3	15456	9907.587796954934	0
3	15465	9909.438816687394	1
3	15466	9909.92833160907	0
3	15495	9934.392709226354	1
3	15496	9934.647606456857	0
3	15530	9974.648122448529	1
3	15531	9975.22557627875	0
3	15550	9982.806103324279	1
3	15551	9982.953519764392	0
3	15615	10028.841664550312	1
3	15616	10029.144999409829	0
3	15665	10055.635358911362	1
3	15666	10055.679261455436	0
3	15715	10090.544793043051	1
3	15716	10091.045517019144	0
3	15760	10108.638984650665	1
3	15761	10109.098247268154	0
3	15775	10111.665085417825	1
3	15776	10112.062573555872	0
3	15790	10131.148584022848	1
3	15791	10131.531411765571	0
3	15800	10134.896919450245	1
3	15801	10134.947853664787	0
3	15805	10135.475413655121	1
3	15806	10135.707007606294	0
3	15820	10138.5065288112	1
3	15821	10138.606108887421	0
3	15825	10138.774268819899	1
3	15826	10139.070240196653	0
3	15835	10145.527444859835	1
3	15836	10145.878809938498	0
3	15865	10177.108034646569	1
3	15866	10177.650730742536	0
3	15890	10183.704709283454	1
3	15891	10184.425726991953	0
3	15895	10184.828042889594	1
3	15896	10184.93837674988	0
3	15940	10216.370452336491	1
3	15941	10216.912983825238	0
3	15965	10248.946256724519	1
3	15966	10249.316902654145	0
3	15975	10258.873742621972	1
3	15976	10258.980867192317	0
3	16020	10315.041832885489	1
3	16021	10315.587715015029	0
3	16030	10316.833675594291	1
3	16032	10317.030999007919	2
3	16033	10317.355716184192	1
3	16037	10317.417754490186	2
3	16038	10318.299856969333	1
3	16049	10319.519804566906	2
3	16058	10320.470629334162	1
3	16076	10323.277021024274	0
3	16175	10389.884501083716	1
3	16176	10390.357599011223	0
3	16217	10418.746600939843	1
3	16221	10419.97700822849	0
3	16282	10476.201556998096	1
3	16286	10476.959125508705	0
3	16300	10481.148847688646	1
3	16301	10481.234260043797	0
3	16310	10481.73810967558	1
3	16311	10482.228518512162	0
3	16355	10508.876583001786	1
3	16356	10509.24975969032	0
3	16410	10557.736367980035	1
3	16411	10558.167790257761	0
3	16455	10584.48213755436	1
3	16456	10585.39125378957	0
3	16470	10587.783919638218	1
3	16471	10588.194166844738	0
3	16545	10653.461589684485	1
3	16546	10653.486359830359	0
3	16610	10687.277189689449	1
3	16611	10688.067003549695	0
3	16630	10695.547194932407	1
3	16632	10695.649460169869	2
3	16633	10695.979287086392	1
3	16636	10696.896864666801	0
3	16695	10719.06880392285	1
3	16696	10719.689945536743	0
3	16755	10736.609415944766	1
3	16756	10736.893477030724	0
3	16760	10737.134187685066	1
3	16761	10737.48512576406	0
3	16770	10740.634656377577	1
3	16771	10741.492014969198	0
3	16800	10763.363483780982	1
3	16801	10763.822844648761	0
3	16875	10815.781177020328	1
3	16876	10815.908768791633	0
3	16905	10831.252642425595	1
3	16906	10831.513811034711	0
3	16925	10835.264269992111	1
3	16926	10835.802427514514	0
3	16995	10887.648451380324	1
3	16996	10887.954111497145	0
3	17095	10959.936599259865	1
3	17096	10959.974880783332	0
3	17127	10972.428797091151	1
3	17131	10973.197924368207	0
3	17165	10992.139359858527	1
3	17166	10992.521662495826	0
3	17180	11000.00650828192	1
3	17181	11000.494840886407	0
3	17230	11047.162803024722	1
3	17231	11047.273223623585	0
3	17240	11049.759508090873	1
3	17241	11050.027533238272	0
3	17470	11274.209748491108	1
3	17471	11274.429126086871	0
3	17490	11280.667837907533	1
3	17491	11280.780646660464	0
3	17560	11311.590935140949	1
3	17561	11312.186771424548	0
3	17565	11312.70427682727	1
3	17566	11313.063998731799	0
3	17590	11322.559060824776	1
3	17591	11323.089386407787	0
3	17705	11394.401468642863	1
3	17706	11394.951354946544	0
3	17710	11395.203818920459	1
3	17711	11395.805569586506	0
3	17765	11420.759497060805	1
3	17766	11420.972981290035	0
3	17787	11446.84290002404	1
3	17791	11447.546985743756	0
3	17857	11473.080550767753	1
3	17867	11474.936467769594	2
3	17868	11475.207808109946	1
3	17871	11476.169689753899	0
3	17880	11488.146677102589	1
3	17881	11488.289860696716	0
3	17900	11494.383221785461	1
3	17901	11494.607792219368	0
3	17915	11499.383911649541	1
3	17916	11499.801091181288	0
3	17955	11526.438710816587	1
3	17956	11526.567887213289	0
3	17985	11559.375036453861	1
3	17986	11559.508030887203	0
3	17990	11559.678278186956	1
3	17991	11560.153418875368	0
3	17995	11560.528422392047	1
3	17996	11560.632953116599	0
3	18000	11560.669076828798	1
3	18001	11561.227269502518	0
3	18005	11561.484093084411	1
3	18006	11561.86245513188	0
3	18110	11646.163682518739	1
3	18111	11646.580630308553	0
3	18115	11647.406210111725	1
3	18116	11647.548704104289	0
3	18200	11690.395777542528	1
3	18201	11690.488454568737	0
3	18250	11719.581158699575	1
3	18251	11720.173341372061	0
3	18255	11720.807683457	1
3	18256	11721.090474974235	0
3	18270	11725.07146312535	1
3	18271	11725.728441806133	0
3	18370	11797.882014823142	1
3	18371	11798.040608844121	0
3	18395	11801.695225829573	1
3	18396	11801.946052077931	0
3	18402	11802.563342408255	1
3	18406	11803.308755981975	0
3	18500	11899.401735252483	1
3	18502	11899.661500162942	2
3	18503	11899.730800302705	1
3	18506	11900.696164872177	0
3	18510	11901.178226033839	1
3	18511	11901.267044815194	0
3	18535	11911.532449504583	1
3	18536	11911.725181514823	0
3	18650	12004.770665032278	1
3	18651	12004.860348683049	0
3	18680	12013.998714207763	1
3	18681	12014.5648324728	0
3	18685	12014.633946164495	1
3	18686	12015.302224746206	0
3	18690	12015.895846538325	1
3	18691	12016.000447511719	0
3	18695	12016.721483199235	1
3	18696	12016.849203680735	0
3	18745	12040.076135134827	1
3	18746	12040.247794752677	0
3	18860	12121.984307056156	1
3	18862	12122.210591377022	2
3	18863	12122.232274257664	1
3	18866	12122.652216845045	0
3	18870	12122.880439729512	1
3	18871	12123.515391021587	0
3	18905	12144.426439908997	1
3	18911	12145.716456145477	0
3	18945	12166.918703014326	1
3	18946	12167.051640558581	0
[...]
6	41870	26887.996077176689	0.94070140738
6	41882	26893.90667287264	1.387972806623
6	41885	26894.844388214862	1.493094723491
6	41910	26902.171600765739	3.25289019003
6	41927	26905.972771401572	1.026003695973
6	41947	26909.36846691704	1.410018317484
6	41959	26911.239589728914	8.961911264732
6	41962	26911.95467838774	2.039534617121
6	41965	26912.908840508838	6.527535420159
6	41974	26914.381697618024	0.460236187279
6	41977	26915.090351056721	1.133433430246
6	41987	26916.959298251309	0.874917157646
6	41990	26917.677478447715	3.387893449115
6	41997	26918.588078149625	0.824065092113
6	42012	26921.401112911602	0.759634426422
6	42015	26921.909395813507	0.814203186386
6	42025	26924.36060302619	0.620221005939
6	42032	26925.556360640958	3.467734029459
6	42040	26926.787749534927	0.546051118476
6	42059	26931.556899754186	6.791907034102
6	42064	26932.258494698624	1.342906851293
6	42067	26932.799274010439	2.489652852371
6	42070	26933.258434287686	1.61544735317
6	42075	26935.818476972115	0.459365921514
6	42090	26950.782201758754	0.836100201542
6	42105	26960.282375787241	0.440338041447
6	42115	26962.770877405504	2.17840550115
6	42130	26979.439212143579	0.668820033362
6	42135	26981.128412525133	3.836697610977
6	42140	26983.164601016804	0.448112150608
6	42160	26988.945365713765	0.888786811847
6	42175	26998.023800942973	0.915573881008
6	42195	27008.473246037102	0.591038523521
6	42202	27013.837331953438	0.46228305907
6	42205	27014.600403905779	0.975806765032
6	42215	27023.117496358983	2.633077572977
6	42227	27025.059317833013	0.988218891295
6	42265	27037.087029475912	3.27821705908
6	42270	27039.187444003094	0.518307424244
6	42277	27045.682456341964	0.576008608425
6	42295	27063.978769263625	0.677196407551
6	42310	27073.610208664139	1.617602855788
6	42317	27075.674049161056	0.677749072807
6	42325	27088.471679079948	0.979505598405
6	42335	27096.324846825287	1.59008984683
6	42345	27103.801626743517	0.501503765304
6	42357	27105.47094286871	0.911155460505
6	42362	27105.978450022962	1.119864742734
6	42365	27106.880093325347	0.923059587072
6	42370	27115.185203686284	0.951830527093
6	42385	27127.018686468997	3.435069768521
6	42390	27130.893664350596	0.530808940902
6	42395	27133.197579047021	0.620631727716
6	42400	27137.739769081999	0.816845131945
6	42435	27174.636954445198	0.685480558174
6	42440	27176.905341103273	0.439473708114
6	42445	27184.805752156814	0.690041808411
6	42460	27188.552544888564	0.533130084909
6	42470	27194.855144009487	1.4006999891
6	42477	27195.507337876745	0.403631330328
6	42485	27196.704972426464	0.804565777604
6	42490	27201.397445394522	0.746569437999
6	42495	27202.730262151252	0.482263215398
6	42525	27221.588785300779	0.445575180976
6	42537	27231.058374154745	0.594523501769
6	42550	27237.472244371476	0.625453037675
6	42562	27240.452896530817	1.230055431627
6	42565	27240.959996696452	0.853485707211
6	42572	27242.598470454767	0.667378753796
6	42582	27244.754544201171	0.695535480976
6	42585	27245.368877255548	1.081467089662
6	42599	27247.08987071437	0.429622029979
6	42605	27248.409809050543	1.633311425412
6	42620	27254.492065611047	0.712405234855
6	42625	27261.516645098102	0.801731985388
6	42630	27262.518290480447	0.659962507756
6	42635	27266.388829774125	0.867832377739
6	42640	27271.145496741515	0.606728007924
6	42650	27276.746113093365	0.733886658955
6	42660	27284.96061581307	0.821543429652
6	42665	27301.638588773743	0.770853474736
6	42675	27311.30943783581	0.445149688749
6	42680	27314.733804212437	0.998140349332
6	42687	27316.058615248805	0.850870230421
6	42700	27323.436896209741	0.465033311257
6	42705	27326.286909299151	0.429354098393
6	42717	27334.098862952576	1.410426617674
6	42725	27337.176410602769	0.75893166475
6	42735	27346.876247559405	0.623219375731
6	42740	27355.561496157638	0.773416611273
6	42750	27362.393786307924	4.80699481533
6	42755	27366.404071291296	0.427135728532
6	42770	27376.402123623026	1.044746293226
6	42775	27379.657021205743	4.988989818981
6	42790	27406.447375648696	1.905232233927
6	42795	27407.544045988146	0.730522978818
6	42800	27412.87917169373	0.708085869998
6	42805	27418.086784219881	0.790303649753
6	42810	27419.774220713845	0.605919783749
6	42825	27429.446377801974	1.280719162671
6	42835	27436.718130124113	0.778356861416
6	42865	27470.866708752463	2.368877365304
6	42882	27475.673040279558	1.986133468989
6	42890	27477.368043801142	1.937131224631
6	42895	27483.637831074816	0.685659108637
6	42900	27484.59841152949	0.414081542566
6	42932	27497.171758470825	0.974345029188
6	42945	27499.187093603659	1.729823670596
6	42950	27512.516752907933	0.587270278158
6	42955	27513.637594803236	0.607760352315
6	42960	27515.01066428803	0.709053144278
6	42965	27516.649777143948	0.939538622275
6	42975	27528.850183685853	0.42936567422
6	42985	27539.27858701064	1.253429974067
6	42992	27540.223210205236	0.877966184868
6	42995	27541.123250748595	3.50816328829
6	43000	27541.829470923687	0.647696471168
6	43015	27557.878227585138	0.664553294564
6	43025	27564.111076333264	4.03614658152
6	43042	27568.723270393118	0.620620932104
6	43045	27569.333756153101	3.662290319432
6	43055	27585.672590909891	1.087543896537
6	43062	27586.453997069687	0.449538202491
6	43065	27587.298374205871	1.031786420682
6	43070	27600.170044665267	0.852141211089
6	43087	27609.530205157056	3.203226251105
6	43105	27623.594352163882	0.631650096644
6	43110	27624.265738609205	0.657049819035
6	43137	27636.457263276951	1.990138358579
6	43152	27641.781334425377	0.469168474432
6	43162	27643.497929329805	0.924443027389
6	43170	27652.381603713599	0.735861128103
6	43175	27653.656234359387	0.574927085591
6	43187	27663.118097824586	0.854373948788
6	43190	27664.087699368579	1.133230599434
6	43195	27669.418250390855	0.468062290084
6	43205	27672.51066057477	1.060737565377
6	43210	27674.553675178599	0.695837026089
6	43220	27688.663228213125	0.931573758461
6	43232	27696.594327308485	0.754656472383
6	43240	27711.59665254474	0.819725744799
6	43255	27722.062070568486	0.622995489929
6	43260	27725.482812075261	0.811437374866
6	43267	27727.243021585951	0.757193989772
6	43282	27732.029091297303	0.855767230498
6	43297	27736.82827908268	0.590234829765
6	43315	27743.447039738023	2.818516382384
6	43330	27747.064866287291	2.895544505924
6	43339	27751.915405867506	0.841409227904
6	43344	27752.794370312594	1.386870676815
6	43347	27753.687671832485	2.00622998361
6	43350	27754.090846025688	2.175258348687
6	43357	27763.300097754145	0.838170671742
6	43360	27764.237048310148	1.183163936005
6	43375	27769.78003176653	2.534558785802
6	43380	27773.023676971505	0.471727400739
6	43395	27792.785503207311	3.97238855967
6	43400	27794.762093633082	0.676446156111
6	43417	27802.401656015686	2.821696265257
6	43422	27803.371536924321	1.200651013036
6	43437	27805.875023494372	3.392245884035
6	43445	27826.459906852709	0.636119369464
6	43450	27829.027004156641	0.778967746533
6	43464	27837.66247564889	1.551928181405
6	43467	27838.582050501317	2.034888363136
6	43470	27839.574458974874	3.55039865477
6	43480	27847.249722351546	0.951830793498
6	43495	27861.099792367447	0.581412748294
6	43500	27863.376738766689	0.830436915858
6	43514	27869.387010798367	0.6046092158
6	43517	27870.333789209459	1.803301324322
6	43520	27870.848262867281	1.673974186715
6	43530	27883.384542094291	0.93561560465
6	43535	27884.283386192793	0.596501872456
6	43542	27885.71527294585	0.545251483098
6	43545	27886.1993043803	0.944656037846
6	43550	27893.166958321844	0.91062141466
6	43565	27906.713075369756	0.502349647274
6	43575	27918.567641635222	0.880776158674
6	43580	27919.310426890113	0.673850242421
6	43600	27932.033720312147	1.516301828258
6	43605	27932.979927041968	0.765325929224
6	43610	27934.339658929956	0.818015128002
6	43627	27944.097023589683	0.774219680997
6	43630	27944.82042721017	1.014543290721
6	43655	27959.478535196535	0.530706009734
6	43660	27961.616852638372	0.968200629437
6	43672	27970.497643690171	1.346837538076
6	43690	27973.611284565765	2.937201540867
6	43695	27977.848467871042	0.685897328332
6	43700	27985.630001637813	0.915197511623
6	43705	27988.666960807867	0.479786910769
6	43712	27993.57947306594	0.975306183612
6	43720	27995.794925492113	3.146801993813
6	43739	28005.251624973491	0.863508531358
6	43745	28006.249173834361	3.533619443017
6	43766	28037.453141714895	0.956111317175
6	43789	28040.734877574473	4.008666423018
6	43792	28041.450359114196	4.363779065503
6	43795	28042.238082405116	4.646562064772
6	43805	28048.676338090309	0.749196381494
6	43810	28058.041462689703	0.723424805468
6	43815	28062.045514621189	0.472517242702
6	43820	28063.953364164569	0.812363625318
6	43845	28081.43638642683	0.562181638228
6	43855	28083.617430122568	0.98935624389
6	43870	28090.365079906878	2.249009792019
6	43890	28098.44790865137	0.85001882358
6	43895	28099.794172043936	0.703757789778
6	43910	28111.214387737207	2.89732729706
6	43915	28117.57592098948	0.60235179686
6	43925	28119.739332993024	0.619376141112
6	43945	28128.045560319481	1.31404310499
6	43950	28129.094715914358	0.410868997546
6	43962	28141.789186625166	0.669755960302
6	43970	28143.324383686367	1.835484303305
6	43995	28160.745160174147	0.98693349557
6	44000	28164.674214247431	0.771105158702
6	44005	28166.740046565327	0.520612577396
6	44017	28177.644139982439	0.906260958919
6	44025	28179.474057092666	4.264148166012
6	44035	28187.703963081983	0.63010335681
6	44040	28189.52015412047	0.54332313519
6	44045	28195.034857066477	0.622606623406
6	44055	28200.913187738595	0.844929435011
6	44070	28209.215441824755	1.709088524454
6	44105	28221.466250941236	2.101847562813
6	44110	28226.413028148436	0.600915056653
6	44125	28232.776159475779	0.748573560687
6	44135	28234.397939872464	1.143683062359
6	44142	28245.045816288627	0.930080693541
6	44147	28245.751418633125	1.585655367934
6	44160	28249.186516563291	0.468618658744
6	44165	28250.805864648024	0.737891735509
6	44170	28251.736014400212	0.880514406366
6	44182	28258.480032082032	2.772418087006
6	44215	28271.130517391967	1.559543388422
6	44220	28276.684174289181	0.86148841083
6	44230	28295.788507391897	0.722157084104
6	44260	28303.534558600015	0.922654918248
6	44267	28313.731056779592	0.860525358235
6	44280	28325.679050703611	1.658125987485
6	44292	28333.427089158266	0.897186310589
6	44300	28335.663587053028	0.711462610494
6	44305	28340.945154796125	0.792337722657
6	44327	28353.980942811902	0.820304946043
6	44337	28355.834779300537	1.888012769217
6	44340	28356.423133682177	0.825921217729
6	44347	28357.739044039189	0.954791730829
6	44355	28359.235222609579	0.69316013705
6	44360	28360.723653749357	0.855233250745
6	44370	28373.534213544495	0.59531377512
6	44382	28378.544135095492	0.557943985192
6	44415	28387.497493710901	0.989397713635
6	44422	28388.80622862712	0.769249025919
6	44430	28390.019271902956	4.085550258644
6	44460	28402.836943681936	0.468789808964
6	44480	28414.227371104612	0.485310744774
6	44495	28417.863762318348	0.502512883162
6	44500	28431.913940127953	0.640471702861
6	44522	28437.205769231186	2.429439427911
6	44525	28437.809898414106	3.670850683749
6	44530	28441.46826638771	0.571732297912
6	44537	28449.741553826835	0.979585529491
6	44552	28461.573079548807	0.604911091691
6	44560	28463.996212203725	0.594116471522
6	44565	28476.744785238406	0.867543346528
6	44577	28480.113070095635	0.951544386381
6	44595	28484.64287485716	4.766649470814
6	44600	28486.372507453055	0.591962251719
6	44605	28487.377310854903	0.841309831105
6	44610	28497.365250802494	0.739417241886
6	44615	28510.711971445895	0.740217871498
6	44622	28513.736473102745	0.888722660672
6	44645	28518.188458300601	3.421288784457
6	44667	28531.169089985109	1.896175499648
6	44670	28531.611398544517	1.167045008337
6	44675	28532.816167484056	0.708802842209
6	44699	28550.606294287088	2.20804745283
6	44705	28551.870152864743	3.637219249596
6	44735	28559.836948786284	4.176401611559
6	44757	28574.330542253842	2.444549724236
6	44760	28574.923510525748	1.955374548259
6	44775	28589.045769441971	2.628629964073
6	44780	28592.171728533697	0.539068010217
6	44794	28597.205775535459	0.781141044246
6	44797	28597.765189612031	1.309646102601
6	44805	28599.443462349547	1.256379192837
6	44810	28600.152923151861	3.223103106535
6	44817	28603.553418158513	0.862651062943
6	44820	28604.276042717142	1.499264336629
6	44839	28608.928217573207	2.444036818854
6	44851	28610.465274417981	2.725985931581
6	44854	28610.987222598142	1.874212123892
6	44857	28611.667958930249	2.224039096169
6	44867	28613.242793017902	3.293435292653
6	44885	28619.811791707525	0.535488674091
6	44895	28622.169359787223	3.863604025438
6	44900	28623.583552177968	0.90572496485
6	44920	28630.451171697316	3.166631378474
6	44935	28645.378964750816	0.744793368876
6	44940	28652.855137040279	0.552359685535
6	44955	28660.823426979617	0.838240311528
6	44980	28667.458471722171	0.639702044101
6	44985	28670.186657839266	0.967577765184
6	44995	28681.24287842334	0.917661497789
6	45005	28693.12838921117	0.85780718904
6	45022	28696.295679012983	2.01525213886
6	45030	28701.050447146538	0.404498363612
6	45037	28704.713989854287	0.557474254677
6	45045	28707.468709679542	0.447387152724
6	45050	28714.706520019491	0.490637603216
6	45082	28741.413380186543	0.43565721917
6	45094	28742.94790387154	1.19632255573
6	45097	28743.740358961936	2.542576566042
6	45102	28744.38115863372	1.961113653991
6	45115	28755.765142169303	0.582965351117
6	45120	28756.374196327248	0.590467466973
6	45132	28768.39088486218	0.627666205307
6	45135	28768.986294134	1.188564122307
6	45140	28770.28874662974	0.533738840325
6	45145	28773.231122534693	0.870536868786
6	45155	28778.618707623336	0.477577939397
6	45165	28780.861221650147	1.533715085891
6	45175	28787.934159717147	0.840428344067
6	45185	28800.378608286343	1.267048992967
6	45190	28804.318510660593	0.488670281135
6	45210	28819.519537668922	0.941667555273
6	45215	28821.161308952492	0.891328301141
6	45265	28844.91377115231	0.487467026524
6	45280	28856.555100034971	0.595660107257
6	45290	28859.111133306487	0.585467074729
6	45305	28864.511690312799	3.378578604791
6	45315	28870.976805173268	0.778830674477
6	45320	28873.045322793668	0.663305917615
6	45335	28886.485353186772	0.706302877003
6	45350	28900.317466561235	0.626148962788
6	45355	28902.302349105763	0.897221519332
6	45370	28910.707392244054	1.639440121574
6	45400	28942.528799591003	0.602495756466
6	45420	28966.539118511125	3.484841071183
6	45425	28971.617811934818	0.404993190523
6	45430	28974.288427188716	0.406436912436
6	45435	28979.529311001663	0.979130543862
6	45440	28986.62246461205	0.980846313713
6	45445	28989.371534738228	0.585073566576
6	45450	28993.763144589308	0.740912734205
6	45462	28999.834421880054	1.212480498122
6	45465	29000.565116815711	0.758366311548
6	45470	29006.624656732568	0.644503203547
6	45475	29010.251381547272	0.782844735077
6	45480	29012.814292255785	0.416611644346
6	45495	29033.037251617404	0.868073980744
6	45500	29038.495619113768	0.941482827486
6	45515	29055.219280399495	0.784308923641
6	45525	29067.947391621257	0.963094735704
6	45530	29071.688954374162	0.852461007936
6	45542	29078.32209696869	0.578711107094
6	45555	29080.319905086436	3.497689553444
6	45560	29086.114274781968	0.5719914841
6	45570	29097.590152961823	0.426191964652
6	45575	29102.215736149297	0.556607966684
6	45582	29103.802275652121	0.790734915854
6	45590	29117.873008669944	0.413787311781
6	45595	29121.833300447206	0.494849209348
6	45600	29123.424806863276	0.82003771686
6	45605	29124.076283316113	0.573201317526
6	45615	29127.133538783423	0.915174197499
6	45625	29139.769603297778	0.762630537851
6	45635	29149.306997420504	0.702576398663
6	45645	29154.039550612233	1.800889236335
6	45660	29168.660130456457	1.297582743857
6	45670	29186.788886843997	0.644534375705
6	45675	29191.845661429165	0.828915766953
6	45680	29196.90875205444	0.827629194548
6	45685	29198.117976896573	0.827350507863
6	45690	29202.238677708367	0.472343665641
6	45707	29208.577571218254	2.959939245243
6	45720	29212.640593609836	0.628799255611
6	45730	29221.680311813537	0.888964026619
6	45740	29233.289265884301	1.160352790524
6	45765	29253.976628900578	0.897041205317
6	45777	29269.932120582272	0.570860017836
6	45782	29270.920445761687	1.074450187134
6	45797	29275.140549325001	0.936040240806
6	45800	29275.55714718433	0.893974219056
6	45807	29279.252610063908	0.525302621303
6	45815	29285.151542361839	0.50060601416
6	45820	29292.930966521198	0.844382116012
6	45837	29296.450416019972	0.632673283108
6	45840	29297.218901740055	1.262219586676
6	45845	29301.896510426913	0.729350841604
6	45855	29312.799824962405	0.870716668852
6	45862	29318.26419608259	0.930694264919
6	45870	29319.943784353727	0.581273429887
6	45882	29327.127254903642	0.64592212424
6	45895	29329.040061923084	2.014719218341
6	45900	29330.2775440612	0.475174366217
6	45915	29340.32704562052	1.779896664176
6	45930	29353.090331269127	0.879428160749
6	45940	29360.536079150789	0.555088593625
6	45950	29364.920426860983	1.466602945904
6	45955	29365.538462501081	0.581130792107
6	45972	29374.043125289974	3.026024399366
6	45975	29374.493261673131	1.086636171486
6	45980	29390.44997455366	0.457176012965
6	45990	29400.548407949556	0.498454124387
6	46010	29415.624659679215	3.123837988925
6	46027	29421.432960321652	2.048084094655
6	46032	29422.408680551024	2.439286375905
6	46035	29422.98054300732	1.179437284158
6	46045	29428.260843871881	2.197127850764
6	46050	29429.560640717408	0.566042223666
6	46060	29438.517795113085	0.56495188307
6	46075	29457.78944669594	0.462376923254
6	46085	29465.445873957333	0.791436857916
6	46105	29484.15413691082	0.533793191658
6	46115	29499.286231166233	0.752023061411
6	46120	29505.873199569321	0.976545252837
6	46125	29508.119843104065	0.71046148031
6	46135	29536.05104382622	0.779302962031
6	46142	29549.308975721457	0.442368207127
6	46162	29576.734027450728	1.880298917557
6	46175	29580.507916900264	0.720230854023
6	46182	29587.427719449904	0.69493825864
6	46190	29588.991675345378	0.505587513745
6	46200	29594.485886101727	1.3004164722
6	46210	29598.099298747477	1.679737063212
6	46217	29610.354029237481	0.545085229585
6	46230	29614.912290655	0.747631850094
6	46235	29619.027759603348	0.900793634588
6	46250	29638.270957646138	0.885671216249
6	46260	29640.197857192981	6.651916626654
6	46270	29653.990039841555	0.430438026972
6	46275	29655.377839395364	0.791150527075
6	46280	29662.051676267834	0.684616833925
6	46285	29663.408893035144	0.693210207345
6	46325	29673.373605791905	0.866844110843
6	46335	29675.649931510573	1.702661213095
6	46340	29680.286578460555	0.686372888181
6	46357	29684.891139589892	3.627155213768
6	46380	29690.07623162785	0.599054024927
6	46385	29695.748178113663	0.46901495792
6	46390	29706.116874740796	0.401939967601
6	46400	29713.401158895984	0.738630851451
6	46405	29721.020212489685	0.916220473591
6	46425	29738.694211030783	2.094792964984
6	46430	29742.769855971676	0.425979951117
6	46440	29751.566810556639	0.82717494946
6	46445	29752.968815172762	0.911337502021
6	46450	29756.230661452737	0.607813288644
6	46455	29760.604230985761	0.831006189017
6	46480	29783.906460440284	2.268553656188
6	46515	29793.946483881408	2.375404178487
6	46525	29808.815524599404	0.475900037447
6	46530	29813.233100160331	0.482078380883
6	46547	29817.034459777181	0.934592237005
6	46550	29817.45991202449	1.656551702877
6	46555	29827.123254686868	0.642746318504
6	46565	29832.383577624005	0.966481760796
6	46570	29835.410590042028	0.649839524319
6	46580	29844.576859470728	1.786240068125
6	46585	29845.975852361194	0.805805702787
6	46590	29852.551608139928	0.950919506978
6	46605	29860.984160099528	0.718232904747
6	46655	29891.459471483647	0.469577692356
6	46660	29894.496907945094	0.789999088133
6	46675	29901.360262935734	0.75853560851
6	46685	29904.191096040653	0.665192187112
6	46700	29917.491869495714	0.491130333254
6	46710	29922.3021853776	1.842245372212
6	46715	29924.159112846677	0.83937289943
6	46725	29950.511591769111	0.898259112192
6	46730	29951.701071411515	0.768191568926
6	46745	29955.980996376318	2.95558393425
6	46750	29964.380367098957	0.607657877263
6	46760	29969.655528833474	3.135319845165
6	46775	29998.718975531437	1.054960580359

