version 2
run First_exit_5-9-20191023-00:19:41-5115
attr configname First_exit_5
attr datetime 20191023-00:19:41
attr experiment First_exit_5
attr inifile omnetpp.ini
attr iterationvars ""
attr iterationvarsf ""
attr measurement ""
attr network ResponseTimeNetwork
attr processid 5115
attr repetition 9
attr replication #9
attr resultdir results
attr runnumber 9
attr seedset 9
param **.Source.interArrivalTime exponential(4s)
param **.jobPriority bernoulli(0.4)
param **.PS.serviceTimeU1 "uniform(0.4s, 1.0s)"
param **.PS.serviceTimeU2 "uniform(1s, 1.2s)"
param **.SS1.serviceTime exponential(0.4s)
param **.SS2.serviceTime exponential(0.8s)
param **.PS.exitProbability bernoulli(0.5)

vector 0 ResponseTimeNetwork.SS1 queueLength:vector ETV
attr interpolationmode sample-hold
attr title "queue length, vector"
vector 1 ResponseTimeNetwork.SS2 queueLength:vector ETV
attr interpolationmode sample-hold
attr title "queue length, vector"
vector 2 ResponseTimeNetwork.QueueU1 queueLength:vector ETV
attr interpolationmode sample-hold
attr title "queue length, vector"
vector 3 ResponseTimeNetwork.QueueU2 queueLength:vector ETV
attr interpolationmode sample-hold
attr title "queue length, vector"
vector 4 ResponseTimeNetwork.sink lifeTimeU2:vector ETV
attr interpolationmode none
attr title "lifetime of arrived jobs U2, vector"
attr unit s
vector 5 ResponseTimeNetwork.sink lifeTime:vector ETV
attr interpolationmode none
attr title "lifetime of arrived jobs, vector"
attr unit s
vector 6 ResponseTimeNetwork.sink lifeTimeU1:vector ETV
attr interpolationmode none
attr title "lifetime of arrived jobs U1, vector"
attr unit s
0	0	0	0
0	1009	413.383504037758	1
0	1011	413.591093197449	0
0	3900	1493.386952156044	1
0	3901	1493.723895998162	0
0	3905	1494.236235287183	1
0	3911	1495.290404547411	0
0	5395	2075.151363821918	1
0	5396	2075.242063101642	0
0	6255	2433.885599961133	1
0	6256	2434.088786359197	0
0	7207	2863.072124596492	1
0	7211	2863.52672501536	0
0	11447	4596.793991355452	1
0	11451	4596.910178644895	0
0	12159	4888.193778477615	1
0	12164	4888.886398760927	0
0	13835	5625.327755733991	1
0	13839	5625.650848470181	0
0	13854	5627.440611099476	1
0	13856	5627.707216139121	0
0	15672	6334.540932046942	1
0	15676	6335.051305542315	0
0	15944	6393.511743548706	1
0	15946	6393.583678219814	0
0	17514	7028.152813882188	1
0	17516	7028.185591233123	0
0	18805	7528.427491572138	1
0	18806	7528.709807074373	0
0	19296	7678.823502621794	1
0	19298	7678.940308957251	0
0	21045	8300.190806708223	1
0	21046	8300.572374735742	0
0	21050	8301.193877133231	1
0	21051	8301.23958760769	0
0	22017	8786.494683457367	1
0	22021	8787.291008836786	0
0	25616	10151.218329059018	1
0	25618	10151.22095984384	0
0	25634	10153.707822257339	1
0	25636	10153.882056221975	0
0	26535	10482.997051455135	1
0	26536	10483.247352771782	0
0	28210	11134.149049693693	1
0	28211	11134.342756383262	0
0	29254	11578.371349297471	1
0	29256	11578.432334638874	0
0	29267	11580.679691005318	1
0	29269	11580.691467348715	0
0	29490	11638.974919772281	1
0	29491	11639.148245506944	0
0	30800	12174.488984873686	1
0	30801	12174.545693552161	0
0	33647	13232.106839721652	1
0	33649	13232.395758054783	0
0	33652	13233.044252915962	1
0	33654	13233.077567733991	0
0	35972	14067.131426669435	1
0	35974	14067.316291583006	0
0	36827	14442.601661860634	1
0	36831	14442.87419183099	0
0	41900	16594.191336517829	1
0	41901	16595.040184753289	0
0	41925	16598.649636671825	1
0	41926	16598.689286116702	0
0	44579	17619.20511269252	1
0	44581	17619.651859625243	0
0	44867	17702.47913841859	1
0	44869	17702.891048821826	0
0	45275	17844.034307297837	1
0	45276	17844.544557465597	0
0	46709	18436.427167604436	1
0	46714	18437.203786648075	0
0	48279	19092.207434904084	1
0	48281	19092.373896536832	0
0	49687	19755.23696831475	1
0	49690	19755.977639099173	2
0	49691	19756.233029011514	1
0	49694	19756.524749844188	0
0	53915	21511.28418247816	1
0	53916	21511.887147133998	0
0	54815	21893.725002145644	1
0	54816	21894.208941395835	0
0	54827	21895.546261297328	1
0	54829	21895.596408752369	0
0	61260	24375.957636621572	1
0	61261	24376.291183194517	0
0	65031	25855.11264932914	1
0	65036	25855.708618542227	0
0	65042	25857.277789173268	1
0	65046	25857.753548335887	0
0	65057	25859.529744712629	1
0	65059	25859.707413292645	0
0	67395	26709.086005587106	1
0	67396	26709.117218696498	0
0	67405	26710.125028781998	1
0	67406	26710.457712652726	0
0	67499	26744.578716439896	1
0	67501	26744.871718568304	0
0	67665	26813.827491547643	1
0	67669	26814.415746581569	0
0	68285	27066.079980720777	1
0	68286	27066.119592313364	0
0	68742	27278.05980542889	1
0	68746	27278.744543879952	0
0	68751	27278.990283555399	1
0	68753	27279.149135461639	0
0	69212	27468.973470351104	1
0	69214	27469.318803020489	0
0	70087	27862.568480648727	1
0	70089	27862.658801569434	0
0	70102	27864.660711440046	1
0	70104	27864.737365731754	0
0	70349	27936.449004533972	1
0	70351	27936.754415943436	0
0	71322	28365.287960104635	1
0	71324	28365.353737780606	0
0	71744	28518.481340015975	1
0	71746	28518.704369459628	0
0	72844	28946.765018093069	1
0	72846	28946.785648363746	0
0	72849	28947.414922741144	1
0	72851	28948.075579833533	0
0	73017	29023.416712338249	1
0	73019	29023.906973387595	0
0	73489	29142.738254637425	1
0	73491	29142.99434697435	0
0	73497	29143.582591543082	1
0	73506	29144.370512739672	0
1	0	0	0
1	310	133.658296124256	1
1	311	134.353592401765	0
1	915	393.665085571365	1
1	916	394.100977357614	0
1	1240	564.808964210354	1
1	1241	565.071805900725	0
1	1607	669.716910340616	1
1	1610	670.398176590332	2
1	1611	670.59244248486	1
1	1616	670.897841469397	0
1	1619	671.008811754741	1
1	1623	671.623690334249	0
1	1669	678.285303405307	1
1	1672	679.083623223806	2
1	1675	679.945462050995	3
1	1684	681.847593692359	2
1	1686	682.00851413285	1
1	1688	682.079420839589	0
1	2405	936.801998641966	1
1	2406	937.345874005266	0
1	2412	937.775267155225	1
1	2414	937.98972341483	0
1	2510	954.18944059705	1
1	2511	954.906151696232	0
1	2855	1103.972646438488	1
1	2856	1104.929401052209	0
1	3600	1396.740765626825	1
1	3601	1396.789098799358	0
1	3630	1404.360468340637	1
1	3631	1405.590114955647	0
1	3635	1405.996108753882	1
1	3646	1407.879672812109	0
1	3652	1408.980076814905	1
1	3656	1409.510188264939	0
1	4265	1701.251476033167	1
1	4266	1702.575844852136	0
1	4717	1862.785943892188	1
1	4721	1863.04572265288	0
1	4742	1866.172939558382	1
1	4744	1866.814565871285	0
1	4760	1869.677333812254	1
1	4779	1873.06314403264	0
1	4787	1874.638987317486	1
1	4789	1874.944873874277	0
1	4794	1875.330726184966	1
1	4801	1877.315475601281	0
1	5015	1947.13344728819	1
1	5016	1947.505637564898	0
1	5025	1948.758258056283	1
1	5026	1949.307208096631	0
1	5185	1992.948832030507	1
1	5189	1993.686016832684	0
1	5579	2188.812962711917	1
1	5581	2189.122817595244	0
1	5905	2281.952060553688	1
1	5906	2282.353032369161	0
1	5970	2312.771705947395	1
1	5971	2313.558441978888	0
1	5990	2316.361437276713	1
1	5994	2317.494338755113	0
1	5999	2318.25460434051	1
1	6004	2319.003014640139	0
1	6007	2319.262199465258	1
1	6010	2319.665472635886	2
1	6014	2320.502202879245	1
1	6016	2320.623450395099	0
1	6635	2644.228145923482	1
1	6636	2644.63974981865	0
1	6720	2667.86124991903	1
1	6721	2668.033234866772	0
1	6954	2743.282326019813	1
1	6959	2744.226303985967	0
1	6962	2744.656570975554	1
1	6964	2744.686478908116	0
1	7607	3026.606184539422	1
1	7609	3027.450684225183	0
1	7612	3027.493792567625	1
1	7614	3027.70607722118	0
1	7622	3029.116273309094	1
1	7626	3029.244901617326	0
1	7637	3031.156766436657	1
1	7640	3032.112630265009	2
1	7644	3032.734053169349	1
1	7647	3033.060461748579	2
1	7656	3034.902774395078	1
1	7659	3035.511662871183	0
1	8240	3286.823439672743	1
1	8241	3286.965598384785	0
1	8712	3490.738612574096	1
1	8714	3490.872162224313	0
1	8745	3496.253370786867	1
1	8746	3497.308044206004	0
1	9655	3943.875911103113	1
1	9656	3945.204625198752	0
1	9890	4027.019459267886	1
1	9891	4027.298013820592	0
1	9931	4031.696624462632	1
1	9934	4032.490382684581	2
1	9936	4032.512194613382	1
1	9941	4033.180470621539	2
1	9944	4033.909960600361	3
1	9959	4036.577468017459	2
1	9974	4038.729837763752	1
1	9977	4039.092585505144	2
1	9980	4039.879299873364	3
1	9981	4039.970218220267	2
1	9986	4040.777135441239	1
1	9989	4040.966305078885	0
1	10060	4070.517905330249	1
1	10061	4070.889646738115	0
1	10190	4107.281037848919	1
1	10191	4107.850913721437	0
1	10195	4108.675153049009	1
1	10196	4108.97491079272	0
1	10200	4109.961435461941	1
1	10201	4110.636761578098	0
1	10220	4113.866982703116	1
1	10221	4115.879847433955	0
1	10770	4327.136663044678	1
1	10775	4328.345086019799	2
1	10784	4329.634511484211	1
1	10795	4331.38741866437	2
1	10796	4332.448162716088	1
1	10806	4334.175510024853	0
1	10810	4335.100857392155	1
1	10811	4336.026038475168	0
1	11212	4527.138593299178	1
1	11221	4528.624573202409	0
1	11227	4529.435687619891	1
1	11241	4532.219997001349	0
1	11642	4705.76716598411	1
1	11644	4706.392790244591	0
1	11647	4706.419428604319	1
1	11651	4707.084869082452	0
1	11657	4708.027154555398	1
1	11659	4708.333457044743	0
1	11760	4747.035287037241	1
1	11761	4747.757994480206	0
1	11767	4748.688576812771	1
1	11771	4749.914838954484	0
1	12060	4862.709579163349	1
1	12061	4862.763093950408	0
1	12067	4863.662742046634	1
1	12071	4865.893303254208	0
1	12075	4866.432223718062	1
1	12076	4866.630947556294	0
1	12127	4883.578420308153	1
1	12129	4884.054832192044	0
1	12169	4889.66916230843	1
1	12171	4889.923212504012	0
1	12787	5185.676221102607	1
1	12791	5187.281154075191	0
1	12795	5188.204450014299	1
1	12796	5189.343303778221	0
1	12850	5223.66003011819	1
1	12851	5223.895952576303	0
1	12985	5261.970932955267	1
1	12986	5262.109146119694	0
1	13240	5381.432483617589	1
1	13241	5381.876146721907	0
1	14400	5851.011219606743	1
1	14401	5852.176082231228	0
1	14415	5853.791115101457	1
1	14427	5855.331385131466	2
1	14440	5857.763513774168	3
1	14441	5857.766696980753	2
1	14444	5857.923696331679	1
1	14446	5858.163819789227	0
1	14449	5858.4472295555	1
1	14451	5858.95940643462	0
1	14595	5914.329225788094	1
1	14596	5914.906289128491	0
1	15190	6144.583554584624	1
1	15191	6145.996778864529	0
1	15520	6290.522031839482	1
1	15521	6291.411950389684	0
1	15530	6292.88669118338	1
1	15531	6293.915433369132	0
1	15610	6314.951000059293	1
1	15620	6316.80662286967	2
1	15621	6317.781287207776	1
1	15624	6317.984339999617	0
1	16100	6437.070364554402	1
1	16101	6437.269845063721	0
1	16105	6438.031962112214	1
1	16106	6438.773523865685	0
1	16230	6498.228558906431	1
1	16231	6499.143304742244	0
1	16317	6528.549804043953	1
1	16319	6528.930278234117	0
1	16334	6531.105431737562	1
1	16340	6532.542479887323	2
1	16346	6534.340472577745	1
1	16349	6534.92369011225	0
1	16355	6535.948252809979	1
1	16356	6536.970619221142	0
1	16607	6677.294698299709	1
1	16611	6677.940984119398	0
1	16615	6678.681248050292	1
1	16624	6680.288747461212	0
1	16632	6681.331599894104	1
1	16634	6681.702460564261	0
1	16717	6720.438975261453	1
1	16719	6720.576969701436	0
1	16725	6721.914608815986	1
1	16726	6722.280135533085	0
1	16945	6826.460366529122	1
1	16946	6828.06094105716	0
1	17140	6911.465314692031	1
1	17141	6911.767773586026	0
1	17320	6995.49764919196	1
1	17329	6996.502543090536	0
1	17385	7005.451962651296	1
1	17390	7006.257435253017	2
1	17391	7006.44993884584	1
1	17395	7007.061582616177	2
1	17396	7007.061859978783	1
1	17399	7007.285739270066	0
1	17410	7009.08215557444	1
1	17411	7009.140767420975	0
1	18400	7365.395388214588	1
1	18401	7366.009850490223	0
1	18712	7471.955228272552	1
1	18714	7472.376805446024	0
1	18770	7513.718742600451	1
1	18771	7514.996711132393	0
1	18935	7549.81495805291	1
1	18936	7550.079678036329	0
1	18945	7550.935678372263	1
1	18949	7552.084919799712	0
1	19237	7670.503702179339	1
1	19241	7671.325459265985	0
1	19269	7674.949333499879	1
1	19276	7675.56932779992	0
1	19337	7685.444470474212	1
1	19340	7685.866774731823	2
1	19341	7686.601765614524	1
1	19344	7686.669636775276	0
1	19490	7726.278593043413	1
1	19491	7727.501740745876	0
1	19787	7784.947169089881	1
1	19789	7785.644949772865	0
1	20210	7984.427653152487	1
1	20211	7984.779021882879	0
1	20450	8087.617460098483	1
1	20454	8088.683185605221	0
1	20460	8089.379750620206	1
1	20464	8089.588003355133	0
1	21350	8405.592427319651	1
1	21356	8407.652858530047	0
1	21870	8676.395291315041	1
1	21874	8676.657368146905	0
1	22715	8999.365953340943	1
1	22716	8999.558359444431	0
1	22720	9000.342919435129	1
1	22721	9001.907135375274	0
1	22725	9002.629971992561	1
1	22726	9004.287686525605	0
1	22905	9056.184149589339	1
1	22906	9057.70871985205	0
1	22910	9058.219786525513	1
1	22911	9058.502351201337	0
1	23422	9274.113264384341	1
1	23427	9275.04317059837	2
1	23429	9275.69235251927	1
1	23432	9275.906752172287	2
1	23434	9276.223880246385	1
1	23447	9277.993897004833	2
1	23449	9278.20760781786	1
1	23461	9281.077280253153	0
1	24335	9659.158434050788	1
1	24336	9659.751746102335	0
1	24362	9664.058488436485	1
1	24364	9664.262053338508	0
1	24680	9825.384013067459	1
1	24681	9825.755332556289	0
1	24800	9866.404141483915	1
1	24801	9867.033219536128	0
1	24805	9867.81775303177	1
1	24806	9868.52120331672	0
1	24827	9871.09427571075	1
1	24831	9871.682100397876	0
1	24875	9882.236884216253	1
1	24876	9882.856722004378	0
1	24980	9912.193694529564	1
1	24985	9913.269069968545	2
1	24986	9915.203762281437	1
1	24989	9915.733038705454	0
1	25380	10067.388243133286	1
1	25381	10068.218780285387	0
1	26947	10703.811703781977	1
1	26951	10705.06767896961	0
1	26990	10727.702254670815	1
1	26991	10728.530263158663	0
1	26995	10729.18673076805	1
1	26996	10729.350353816974	0
1	27050	10742.212546397749	1
1	27051	10742.632705540677	0
1	27060	10744.250036203071	1
1	27061	10744.535834344379	0
1	27240	10810.222370230252	1
1	27241	10810.245872144087	0
1	27780	11013.058949144253	1
1	27781	11013.991984675667	0
1	27785	11014.735723150876	1
1	27786	11014.950901931918	0
1	27792	11015.792097994613	1
1	27794	11016.022912290094	0
1	27872	11058.892543443604	1
1	27881	11059.994298358146	0
1	27900	11063.87084268493	1
1	27901	11064.129179572951	0
1	27907	11064.792433599181	1
1	27916	11066.308216395123	0
1	27922	11066.876345897534	1
1	27924	11067.069686510987	0
1	27965	11074.1316890637	1
1	27966	11075.822069538082	0
1	28035	11100.611528808532	1
1	28036	11101.802733410824	0
1	28040	11102.257271045422	1
1	28041	11102.722074384412	0
1	28565	11314.951482916168	1
1	28566	11314.977675205108	0
1	28570	11315.585205193527	1
1	28571	11316.644354334035	0
1	28575	11317.360461425948	1
1	28579	11318.835508605432	0
1	28682	11351.387741987665	1
1	28684	11351.508952016528	0
1	28785	11415.955122387386	1
1	28786	11416.053846132393	0
1	29120	11510.782771704844	1
1	29121	11511.593037325293	0
1	30407	12077.536350590394	1
1	30409	12077.661369954025	0
1	30445	12083.243995485719	1
1	30449	12083.895178164879	0
1	30459	12085.331562850081	1
1	30461	12085.929470971096	0
1	30475	12088.432094225861	1
1	30476	12088.528935042399	0
1	30575	12120.809203970182	1
1	30576	12121.107682972384	0
1	30645	12130.322864011977	1
1	30654	12131.827680715354	0
1	31055	12255.246066725663	1
1	31056	12255.31528238663	0
1	31065	12256.540156392749	1
1	31066	12257.592787720337	0
1	31095	12267.916889913237	1
1	31096	12268.27047435579	0
1	31697	12468.001051309317	1
1	31699	12468.595918335432	0
1	31825	12506.466035060468	1
1	31826	12506.49158912657	0
1	32022	12590.714992740775	1
1	32024	12590.722041605092	0
1	32027	12591.412227463887	1
1	32029	12591.771238952036	0
1	32045	12593.803009906297	1
1	32046	12594.204185822564	0
1	32727	12883.136474560698	1
1	32731	12884.642412984355	0
1	32809	12901.318037759989	1
1	32811	12901.607494722442	0
1	32814	12902.133759542426	1
1	32816	12902.338412124245	0
1	32841	12905.770786864601	1
1	32853	12907.627458271007	0
1	32914	12916.574396580098	1
1	32918	12917.033657198487	0
1	33985	13325.339889863953	1
1	33986	13326.376810350234	0
1	34387	13492.440734684477	1
1	34389	13492.539273015706	0
1	34470	13520.12867595182	1
1	34471	13520.287710941681	0
1	34620	13609.774546565212	1
1	34625	13610.549063859796	2
1	34626	13611.1411711804	1
1	34632	13611.883270338354	2
1	34634	13612.349282290593	1
1	34636	13612.389417617343	0
1	34647	13613.619329554251	1
1	34649	13613.77111038556	0
1	34652	13614.182442105784	1
1	34656	13615.293500231752	0
1	34802	13670.480862260544	1
1	34806	13670.855615510296	0
1	34824	13673.384421624318	1
1	34831	13674.735758485026	0
1	34915	13698.545150136828	1
1	34916	13698.57975211469	0
1	35335	13847.206279173513	1
1	35336	13848.204326896551	0
1	35405	13891.65806650817	1
1	35406	13893.43910683626	0
1	35415	13894.454132997754	1
1	35416	13894.699808826292	0
1	35789	14020.994453936845	1
1	35794	14021.643307215754	0
1	35872	14044.724771173828	1
1	35874	14044.854766311507	0
1	35915	14057.421738817357	1
1	35916	14058.959162339737	0
1	36155	14127.915143522246	1
1	36159	14128.266142533627	0
1	36502	14310.546828291674	1
1	36505	14311.122856907702	2
1	36511	14311.619215548883	1
1	36516	14311.983071202658	0
1	36527	14314.116163748141	1
1	36529	14314.636950140313	0
1	36540	14316.629904049507	1
1	36541	14316.944265341419	0
1	36545	14317.751335006007	1
1	36546	14318.155754959621	0
1	36620	14353.213634763614	1
1	36621	14355.534367794958	0
1	36665	14375.254566157602	1
1	36666	14375.649848405704	0
1	36670	14376.096156764183	1
1	36671	14378.519451785696	0
1	36887	14450.195383923054	1
1	36891	14452.211818695993	0
1	37040	14513.782068361118	1
1	37046	14514.941337009531	0
1	37120	14536.574914748548	1
1	37121	14537.449966008627	0
1	37490	14741.758760737266	1
1	37491	14741.889456761242	0
1	37605	14790.089871063123	1
1	37606	14790.770276219851	0
1	37925	14950.695503306279	1
1	37926	14951.450503889663	0
1	37995	14983.485866024484	1
1	37996	14984.202707722574	0
1	38195	15089.907362883038	1
1	38196	15090.22756114503	0
1	38620	15342.424078951742	1
1	38621	15343.368748184916	0
1	38632	15345.220083470566	1
1	38634	15345.247648696693	0
1	38665	15349.655613341184	1
1	38666	15350.128967572873	0
1	39275	15599.891219819448	1
1	39276	15599.92703569265	0
1	39507	15718.690312704791	1
1	39511	15719.545967728828	0
1	39514	15719.581733144841	1
1	39516	15720.21710758983	0
1	39519	15720.296288301817	1
1	39527	15721.846404658699	2
1	39530	15722.807474871561	3
1	39536	15722.963827518472	2
1	39540	15723.71192226256	1
1	39543	15723.913669102333	2
1	39545	15724.019199285597	1
1	39548	15724.608243567097	2
1	39559	15726.217022916418	1
1	39564	15726.806453189411	0
1	39612	15734.048404461025	1
1	39616	15736.656159615126	0
1	39635	15740.408712506418	1
1	39636	15742.058004907039	0
1	39840	15827.225201084658	1
1	39841	15827.512981907776	0
1	39845	15828.16820829295	1
1	39846	15829.047918827387	0
1	39850	15829.752727399368	1
1	39851	15830.153567826168	0
1	39855	15830.726711954528	1
1	39856	15830.950230543006	0
1	39970	15868.325215604003	1
1	39971	15868.50447058398	0
1	40590	16142.238119964591	1
1	40591	16142.570024260801	0
1	40744	16186.075579037741	1
1	40746	16186.757497220282	0
1	40752	16187.334772429979	1
1	40754	16187.540190318551	0
1	40867	16246.346197411854	1
1	40869	16246.784444379429	0
1	40872	16247.137372746289	1
1	40874	16247.539828429475	0
1	40940	16266.740689291937	1
1	40941	16267.854715987382	0
1	41105	16324.439182466525	1
1	41106	16324.624201842653	0
1	41140	16334.879806046448	1
1	41144	16336.288679716689	0
1	41147	16336.585496011251	1
1	41151	16338.185256882404	0
1	41495	16477.627829780544	1
1	41496	16479.624355135868	0
1	41500	16480.319080310185	1
1	41501	16481.291542905827	0
1	41627	16516.868709415847	1
1	41629	16517.625070123744	0
1	41742	16556.00608996982	1
1	41746	16556.894645687846	0
1	41780	16564.855451269559	1
1	41781	16564.980215753378	0
1	41830	16579.247023969322	1
1	41831	16579.380276039923	0
1	41975	16605.191130686578	1
1	41979	16605.383983388641	0
1	41985	16606.358601689122	1
1	41986	16606.377588215217	0
1	42199	16727.003509550498	1
1	42201	16727.382817265344	0
1	42209	16727.963676874762	1
1	42211	16728.178864580719	0
1	42290	16749.327343095953	1
1	42291	16749.497356434043	0
1	42330	16755.020246193899	1
1	42331	16755.232991947749	0
1	42485	16806.645332586162	1
1	42486	16806.878075270293	0
1	42747	16912.20092529305	1
1	42749	16912.297594918223	0
1	42780	16917.418392887355	1
1	42781	16918.066077091405	0
1	42850	16928.838726939885	1
1	42851	16930.796552098925	0
1	42855	16931.227356844778	1
1	42866	16936.390164643952	0
1	43690	17288.667473274692	1
1	43691	17289.715491333373	0
1	43810	17330.487407559762	1
1	43811	17330.761688400627	0
1	43815	17331.257589736356	1
1	43819	17332.570813764313	0
1	43855	17342.305766438511	1
1	43856	17342.501982497523	0
1	43965	17373.260566018538	1
1	43966	17373.458182497756	0
1	44450	17569.394096025407	1
1	44456	17570.280174011948	0
1	44705	17669.333501658766	1
1	44710	17670.439802118046	2
1	44714	17671.404675954711	1
1	44724	17672.511302824006	0
1	45330	17852.90595834046	1
1	45331	17854.390806421499	0
1	45335	17854.80291296472	1
1	45336	17854.823412089951	0
1	45410	17902.301704847413	1
1	45411	17903.171335195344	0
1	45415	17903.571725120641	1
1	45416	17904.219636918935	0
1	46070	18213.809918246592	1
1	46071	18214.147821992526	0
1	46075	18214.691490216956	1
1	46079	18215.908060602042	0
1	46135	18227.204596414217	1
1	46136	18227.609252309061	0
1	46680	18432.821734479008	1
1	46681	18432.869962989204	0
1	48085	19038.633735037184	1
1	48086	19039.235474753923	0
1	48140	19054.301729851265	1
1	48144	19054.982478999745	0
1	48155	19056.866161360524	1
1	48156	19058.124354077224	0
1	48345	19102.276390150678	1
1	48346	19102.502929926274	0
1	48350	19103.074699263816	1
1	48351	19103.076822478618	0
1	48840	19370.561026732873	1
1	48844	19371.61010714813	0
1	49015	19445.915259914794	1
1	49016	19446.381934260368	0
1	49137	19520.103868934483	1
1	49144	19520.925738875312	0
1	49620	19739.96397255256	1
1	49621	19740.506867244174	0
1	49845	19830.26362548426	1
1	49846	19830.331542803999	0
1	49932	19846.630920906514	1
1	49936	19847.125317316684	0
1	49939	19847.182088238103	1
1	49941	19847.224869898527	0
1	49944	19847.795493526021	1
1	49946	19847.815883412578	0
1	49955	19849.789379681703	1
1	49956	19852.214623035893	0
1	50012	19874.085449770882	1
1	50014	19874.149205955784	0
1	50347	19977.24748653613	1
1	50349	19977.615151415905	0
1	50355	19978.2572548615	1
1	50356	19980.993296407318	0
1	50569	20084.799297007687	1
1	50572	20085.573023689167	2
1	50574	20086.115004647599	1
1	50576	20086.352903660261	0
1	51185	20379.539369892649	1
1	51186	20380.203274135207	0
1	51495	20519.94514230828	1
1	51496	20520.042322937614	0
1	51945	20759.507173456428	1
1	51946	20761.636646535509	0
1	51955	20763.153432246606	1
1	51959	20764.134935474703	0
1	51965	20764.834019774041	1
1	51970	20767.283140010935	2
1	51971	20768.311298720085	1
1	51974	20768.396935720932	0
1	52155	20828.490881686346	1
1	52159	20829.36155855129	0
1	52305	20873.803741987155	1
1	52306	20874.008294217712	0
1	52715	21090.358504580078	1
1	52716	21091.257906953203	0
1	52732	21093.641077209501	1
1	52734	21094.10530512523	0
1	52737	21094.324946841322	1
1	52741	21095.285994265551	0
1	53294	21272.041515658771	1
1	53296	21272.104264227668	0
1	53335	21278.503815839321	1
1	53336	21278.716690935751	0
1	54015	21546.057586702369	1
1	54016	21547.083696158725	0
1	54160	21591.630600082997	1
1	54161	21591.784559821565	0
1	54692	21850.062680008295	1
1	54695	21850.722540226658	2
1	54696	21851.704303152302	1
1	54701	21852.375313518909	0
1	54897	21906.484418896728	1
1	54899	21906.511777011456	0
1	54907	21907.762723705314	1
1	54914	21908.665968735251	0
1	55110	21966.019585480391	1
1	55111	21966.278756956636	0
1	55540	22197.09541816303	1
1	55541	22199.823409284395	0
1	55985	22439.549915745349	1
1	55986	22440.094759815523	0
1	55990	22440.913256019365	1
1	55994	22442.700031699475	0
1	56000	22443.447178563625	1
1	56009	22445.79253650916	0
1	56280	22539.563057728838	1
1	56285	22540.241061906822	2
1	56286	22540.621101918133	1
1	56289	22540.770529486889	0
1	56295	22541.806782541904	1
1	56296	22543.349497571342	0
1	56925	22833.568009580756	1
1	56931	22835.117183375782	0
1	57345	22940.476468114194	1
1	57346	22941.880061187305	0
1	57355	22943.306420592767	1
1	57356	22943.610265043054	0
1	57362	22944.200762734192	1
1	57364	22944.326803386871	0
1	57450	22958.016054225349	1
1	57451	22958.113925873643	0
1	57455	22959.101593512871	1
1	57456	22959.664265959086	0
1	57720	23046.221421218253	1
1	57721	23046.664141703857	0
1	57965	23138.463986310856	1
1	57966	23138.999711889331	0
1	57980	23141.68272348889	1
1	57981	23143.386334280574	0
1	58220	23230.156384441866	1
1	58221	23230.504454496338	0
1	58672	23405.750722743004	1
1	58674	23405.926745718348	0
1	58677	23406.45774632943	1
1	58680	23407.105388464491	2
1	58681	23407.197293971287	1
1	58684	23407.653048795747	0
1	58687	23407.775923856063	1
1	58689	23408.0185571179	0
1	58722	23414.502407824556	1
1	58725	23414.914799858751	2
1	58726	23414.946658042626	1
1	58731	23415.703637040913	0
1	58752	23417.995707189891	1
1	58756	23419.434014670976	0
1	58762	23419.910142204032	1
1	58769	23420.89150481681	0
1	59270	23578.161394689554	1
1	59271	23578.539090918145	0
1	59710	23770.628371041837	1
1	59711	23771.477150639994	0
1	60195	23950.056336333486	1
1	60196	23951.034888104561	0
1	60205	23952.605290758682	1
1	60210	23953.155124592181	2
1	60211	23953.156346987468	1
1	60216	23954.379471455938	0
1	60610	24123.849765672207	1
1	60611	24125.176992090492	0
1	60630	24129.088204590239	1
1	60631	24132.051279607626	0
1	61065	24324.769798813936	1
1	61066	24324.919538790283	0
1	61090	24337.871498268546	1
1	61091	24338.08386617747	0
1	61380	24419.602821138077	1
1	61381	24419.857460063293	0
1	61705	24552.366246398538	1
1	61706	24552.959877988341	0
1	62567	24913.961624954571	1
1	62569	24914.486591910845	0
1	62725	24938.242513429152	1
1	62726	24938.498909512236	0
1	62945	25015.991497098967	1
1	62946	25017.296545175213	0
1	62950	25017.928143589181	1
1	62951	25018.359050776399	0
1	62990	25024.427542448724	1
1	62991	25024.612157741849	0
1	63360	25196.754369515155	1
1	63361	25197.046884812356	0
1	63370	25198.206493850692	1
1	63371	25198.618573591144	0
1	63385	25200.296778448051	1
1	63386	25200.939796511371	0
1	64005	25481.507042572545	1
1	64006	25482.366563255023	0
1	64055	25501.691564186551	1
1	64056	25501.701043824549	0
1	64065	25503.141011526552	1
1	64066	25503.23715870899	0
1	64310	25617.325362385902	1
1	64311	25617.822785716306	0
1	64572	25697.49410041964	1
1	64576	25698.505764128535	0
1	64680	25720.149628724933	1
1	64681	25720.615784760949	0
1	64685	25721.159882117866	1
1	64686	25722.287292060459	0
1	65570	26051.126145684469	1
1	65571	26052.042643501619	0
1	65852	26154.926488261585	1
1	65854	26155.745313454103	0
1	66240	26313.201010486973	1
1	66241	26313.88210998346	0
1	66255	26315.902033558404	1
1	66256	26315.930691852675	0
1	66264	26316.836184302134	1
1	66274	26318.066178126686	0
1	66277	26318.843781351507	1
1	66280	26319.341463165241	2
1	66281	26319.404664108669	1
1	66284	26320.190165234361	0
1	66557	26412.411924285083	1
1	66559	26412.512196399228	0
1	66577	26415.384394756951	1
1	66581	26417.696507144267	0
1	66592	26419.009283336964	1
1	66594	26419.379902324674	0
1	66604	26420.304445104734	1
1	66609	26420.875763003789	0
1	66747	26493.219148125179	1
1	66751	26494.405281476407	0
1	66825	26504.415444299217	1
1	66829	26506.309792859153	0
1	67135	26622.566802034024	1
1	67136	26624.63254666437	0
1	67140	26625.056023574402	1
1	67141	26625.313621668617	0
1	67145	26626.005953353743	1
1	67151	26627.893209483561	0
1	67180	26632.85028189562	1
1	67181	26633.361442216338	0
1	67350	26691.455098040479	1
1	67351	26691.922564013702	0
1	67535	26750.376687092941	1
1	67536	26750.718649550051	0
1	68445	27136.055628377569	1
1	68446	27136.996969716383	0
1	69502	27603.177968416017	1
1	69505	27603.688357138381	2
1	69506	27605.170184931715	1
1	69511	27606.20693526803	0
1	69515	27606.644514395431	1
1	69520	27607.246576211443	2
1	69521	27609.667766625962	1
1	69524	27609.749664748962	0
1	69532	27611.181652394698	1
1	69534	27611.246327345713	0
1	69555	27614.364486249739	1
1	69556	27614.705339053658	0
1	69560	27615.252216076258	1
1	69561	27617.481247151122	0
1	70060	27858.327978677877	1
1	70061	27858.439647532276	0
1	70356	27936.938930353794	1
1	70364	27938.18816556278	0
1	70865	28147.050054080466	1
1	70866	28147.803926572206	0
1	71015	28250.099600503697	1
1	71016	28250.955697937095	0
1	71062	28263.340919642601	1
1	71064	28263.794908143614	0
1	71212	28327.890462332135	1
1	71216	28328.798356884116	0
1	71810	28528.81271177979	1
1	71811	28531.085797883454	0
1	71815	28531.751116743614	1
1	71819	28533.054433023148	0
1	71915	28547.77725915442	1
1	71916	28548.974426298883	0
1	71980	28569.987904592702	1
1	71981	28570.786653431618	0
1	71985	28571.700592004015	1
1	71986	28571.848954344428	0
1	72265	28727.522733041754	1
1	72266	28729.057956087436	0
1	72270	28729.750864501424	1
1	72271	28729.794905138194	0
1	72652	28851.766132759322	1
1	72655	28852.463631837601	2
1	72656	28853.749644912791	1
1	72661	28854.255658905278	0
1	73055	29033.506415226988	1
1	73056	29035.199341348819	0
1	73185	29073.785249098003	1
1	73186	29073.793551529522	0
1	73380	29117.454973471981	1
1	73384	29118.11987072386	0
1	73712	29198.03063560133	1
1	73714	29198.27113791576	0
1	73805	29241.832255786403	1
1	73806	29242.169478089657	0
1	74360	29503.846209289617	1
1	74361	29504.740545381211	0
1	74387	29508.479037528048	1
1	74389	29508.72379192161	0
1	74395	29510.206245351984	1
1	74396	29510.577248291667	0
1	74579	29562.52711120833	1
1	74582	29563.317021884288	2
1	74584	29564.023458568294	1
1	74591	29565.094291938126	0
1	74745	29628.162924792107	1
1	74746	29630.2161577995	0
1	75460	29920.044143117659	1
1	75461	29920.335316218367	0
1	75465	29921.286152110413	1
1	75466	29921.932817115761	0
1	75470	29922.889661235489	1
1	75471	29923.076670607342	0
1	75519	29930.284252426982	1
1	75524	29931.060220276128	0
1	75529	29931.227762585062	1
1	75534	29931.656162571194	0
1	75537	29932.548926157526	1
1	75540	29933.136271498421	2
1	75541	29936.144502968516	1
1	75544	29936.909291245769	0
2	0	0	0
2	40	4.692756617319	1
2	41	5.293260795989	0
2	150	94.381937614297	1
2	151	94.708818471559	0
2	170	97.365356086964	1
2	173	97.948041178207	0
2	200	101.744766055657	1
2	201	102.344893236662	0
2	205	102.620666558916	1
2	206	103.182632280624	0
2	210	103.336753345039	1
2	212	103.357525286679	2
2	213	103.711185858137	1
2	217	103.816932070189	2
2	218	104.601525029604	1
2	221	105.312293253624	0
2	225	105.605476098735	1
2	226	106.062632158789	0
2	280	115.203084143275	1
2	281	115.748313554496	0
2	285	116.375091483614	1
2	286	116.50373003681	0
2	480	244.272843388447	1
2	482	244.795279963359	2
2	483	244.803482508665	1
2	486	245.587747291807	0
2	520	253.484611588244	1
2	521	253.717001273346	0
2	535	255.785200142049	1
2	536	256.49239381327	0
2	705	336.742967839775	1
2	706	337.33203107426	0
2	725	340.401145311875	1
2	726	340.946119593653	0
2	765	348.577912358761	1
2	766	348.815340370415	0
2	775	349.484971144408	1
2	776	350.18305940168	0
2	795	360.522356459268	1
2	796	360.549971473755	0
2	925	394.847702848688	1
2	926	395.254873863931	0
2	935	396.04783081493	1
2	936	396.900206770978	0
2	990	410.824221335072	1
2	991	411.294481695642	0
2	997	411.921586575416	1
2	998	412.129496958166	0
2	1002	412.146586657909	1
2	1003	412.635717903509	0
2	1012	413.591093197449	1
2	1014	413.77639896187	2
2	1015	414.132515180729	1
2	1018	414.617637939252	0
2	1130	487.77327170087	1
2	1131	488.439188859066	0
2	1150	500.517498765238	1
2	1151	501.433379068561	0
2	1160	502.494112278257	1
2	1161	502.889864339905	0
2	1290	589.637656953784	1
2	1291	590.014512696161	0
2	1305	596.219960079283	1
2	1306	596.430892948424	0
2	1315	597.300615244404	1
2	1318	597.885909884075	0
2	1350	604.570992518512	1
2	1351	604.71789711913	0
2	1375	623.698311644953	1
2	1376	624.540219574917	0
2	1385	625.063695759587	1
2	1386	625.686709347397	0
2	1400	627.561547002981	1
2	1401	627.747472233884	0
2	1410	628.772844556055	1
2	1411	629.508452081122	0
2	1425	631.122899995394	1
2	1426	631.702169140105	0
2	1440	637.546163272671	1
2	1441	637.67139247708	0
2	1455	640.369169068597	1
2	1456	640.391525778966	0
2	1465	642.005140026432	1
2	1466	642.759296508789	0
2	1470	642.765715148476	1
2	1471	643.721388981774	0
2	1475	643.849758401231	1
2	1476	644.374185556735	0
2	1520	652.713201200194	1
2	1521	653.307468773147	0
2	1530	654.161836537364	1
2	1533	654.979818578904	0
2	1580	665.498913229962	1
2	1581	666.052829148274	0
2	1592	667.123887088383	1
2	1595	667.621418354873	0
2	1615	670.835941436694	1
2	1618	671.008811754741	0
2	1649	674.918947726747	1
2	1651	674.97911938676	2
2	1652	675.175635005588	1
2	1657	675.99876809866	0
2	1770	713.996912342501	1
2	1773	714.522090594484	0
2	1780	715.51866710411	1
2	1781	715.856281451057	0
2	1800	719.991641299729	1
2	1801	720.09492200182	0
2	1805	720.095634374478	1
2	1806	720.771669837573	0
2	1810	720.796744425854	1
2	1811	721.749119690407	0
2	1865	744.440329231348	1
2	1866	744.880881517906	0
2	1885	747.375722378016	1
2	1888	748.274425343538	0
2	1902	749.967918450559	1
2	1903	750.477562068564	0
2	1912	751.525893350699	1
2	1913	752.119447653483	0
2	1955	768.253553075645	1
2	1956	768.79077171946	0
2	1965	770.004128460772	1
2	1966	770.702615174228	0
2	1975	771.243141187116	1
2	1976	771.678608931876	0
2	1995	774.041682803545	1
2	1996	774.574332373835	0
2	2055	810.192285769783	1
2	2056	810.888788374076	0
2	2065	811.535321537038	1
2	2066	812.112501432123	0
2	2075	813.490154697875	1
2	2076	813.825624941686	0
2	2080	814.055702847984	1
2	2081	814.435895492254	0
2	2085	814.658774794153	1
2	2086	815.062133440539	0
2	2090	815.242846835602	1
2	2092	815.291817398523	2
2	2093	816.029950919213	1
2	2096	816.451404189436	0
2	2100	816.818213870778	1
2	2101	817.317324576831	0
2	2250	889.988633501269	1
2	2251	890.171627268976	0
2	2295	898.218032167032	1
2	2296	898.285638393044	0
2	2300	898.678845740471	1
2	2301	898.93552155858	0
2	2305	898.951321492216	1
2	2306	899.664193444374	0
2	2355	924.814023213198	1
2	2356	925.202756803011	0
2	2420	938.56401586019	1
2	2421	938.959323701857	0
2	2430	939.975353760963	1
2	2432	940.228462959566	2
2	2433	940.9113666898	1
2	2436	941.376144530707	0
2	2440	941.858169477047	1
2	2443	942.028531266366	0
2	2465	946.424305424537	1
2	2466	946.946773817451	0
2	2487	949.503419354388	1
2	2490	950.223406481618	0
2	2605	995.052376918488	1
2	2606	995.209742785946	0
2	2620	997.391406070966	1
2	2621	997.644767575982	0
2	2660	1026.213575087037	1
2	2661	1026.331920080017	0
2	2780	1082.251851706828	1
2	2781	1082.634093139584	0
2	2960	1155.428957717248	1
2	2961	1155.769190743433	0
2	2980	1159.024690617966	1
2	2981	1159.138236326829	0
2	3005	1163.16981315869	1
2	3006	1163.575088178765	0
2	3010	1164.100574621937	1
2	3011	1164.45671456822	0
2	3150	1221.504353083011	1
2	3151	1221.831962146496	0
2	3165	1223.270393552276	1
2	3166	1223.890844796113	0
2	3230	1255.020675329436	1
2	3231	1255.345182323261	0
2	3240	1256.484215852122	1
2	3241	1257.124659959405	0
2	3300	1277.282348262579	1
2	3301	1278.178001134699	0
2	3310	1279.398911433775	1
2	3311	1279.642669912797	0
2	3370	1345.887112055537	1
2	3371	1346.538605084758	0
2	3375	1346.694127299866	1
2	3377	1346.854797654361	2
2	3378	1347.109177994471	1
2	3381	1347.709569311816	0
2	3385	1347.790409641044	1
2	3388	1348.545607409602	0
2	3445	1364.843251370533	1
2	3446	1365.185265773487	0
2	3450	1365.444415745441	1
2	3451	1365.707241234089	0
2	3467	1367.354548381814	1
2	3468	1368.101294617127	0
2	3477	1369.428341890196	1
2	3478	1369.776689915457	0
2	3487	1370.727033705121	1
2	3488	1371.154248438687	0
2	3497	1371.601350169086	1
2	3500	1372.519204438995	0
2	3509	1373.646884941115	1
2	3510	1374.263486632896	0
2	3535	1379.472398202659	1
2	3536	1379.641179982009	0
2	3640	1407.372280723004	1
2	3643	1407.765989496602	0
2	3690	1414.469974068343	1
2	3693	1414.709163875496	0
2	3700	1415.546013351607	1
2	3701	1416.178654962676	0
2	3715	1418.1656710029	1
2	3716	1418.433812298773	0
2	3720	1418.589194375248	1
2	3721	1419.162117916213	0
2	3725	1419.16240280351	1
2	3726	1420.060566438602	0
2	3730	1420.321972641496	1
2	3731	1420.658758936457	0
2	3750	1436.131793588419	1
2	3751	1436.39457069557	0
2	3860	1487.149661533156	1
2	3861	1487.65689186955	0
2	3865	1487.764522392884	1
2	3866	1488.371029602719	0
2	3870	1488.4991647466	1
2	3871	1489.247246143111	0
2	3875	1489.370031731467	1
2	3876	1490.001454388612	0
2	3880	1490.264028742157	1
2	3881	1490.500098456425	0
2	3885	1490.713419196044	1
2	3886	1491.211974819173	0
2	3890	1491.414225807837	1
2	3891	1491.919426486158	0
2	3895	1491.95443806721	1
2	3896	1492.771710819361	0
2	3915	1495.450173541967	1
2	3916	1495.925161063285	0
2	3940	1502.123496307301	1
2	3941	1502.147396283525	0
2	3970	1512.743076423071	1
2	3971	1513.379953222192	0
2	3985	1515.060861298195	1
2	3988	1515.601200726131	0
2	3992	1516.244630200499	1
2	3993	1516.554473446138	0
2	4175	1651.681648068981	1
2	4176	1652.386502089411	0
2	4210	1678.942963915072	1
2	4211	1679.124175462936	0
2	4215	1679.323046630917	1
2	4216	1679.760915281129	0
2	4574	1821.954515197068	1
2	4575	1822.079376524249	0
2	4585	1824.007118012509	1
2	4586	1824.105636291188	0
2	4610	1829.565020154914	1
2	4611	1829.882969240444	0
2	4715	1862.689909948773	1
2	4716	1862.785943892188	0
2	4729	1864.202658408021	1
2	4730	1864.323557811379	0
2	4860	1889.592914536165	1
2	4861	1890.238392497782	0
2	4870	1891.17615247606	1
2	4871	1891.805154955135	0
2	4880	1895.058204869796	1
2	4881	1895.538442258421	0
2	4885	1895.903457683657	1
2	4886	1896.043863893604	0
2	4945	1918.900810182838	1
2	4946	1919.379196103895	0
2	4955	1920.781529137493	1
2	4956	1920.91150376848	0
2	5085	1971.039691692778	1
2	5086	1971.202199301757	0
2	5130	1978.178433908283	1
2	5131	1978.655451104174	0
2	5160	1988.880101285822	1
2	5161	1988.973903834743	0
2	5215	2022.722437023813	1
2	5216	2023.214900581369	0
2	5280	2049.157354767756	1
2	5281	2049.842830732844	0
2	5295	2051.787889746264	1
2	5296	2052.240501181254	0
2	5365	2070.227459478396	1
2	5368	2070.502081351246	0
2	5385	2072.89523221799	1
2	5387	2073.287187215557	2
2	5388	2073.506204889792	1
2	5391	2074.423328280154	0
2	5400	2075.287366863888	1
2	5401	2075.646955285622	0
2	5587	2189.350656322602	1
2	5588	2190.044143008848	0
2	5600	2191.249528809761	1
2	5603	2191.680566858023	0
2	5607	2191.93257077683	1
2	5610	2192.511135488784	0
2	5617	2193.118200328099	1
2	5618	2193.733289291838	0
2	5695	2218.655234817274	1
2	5696	2219.196686527153	0
2	5710	2225.858632607219	1
2	5711	2226.543189816924	0
2	5725	2228.075668991025	1
2	5726	2228.41838660764	0
2	5735	2229.156922523562	1
2	5736	2230.076266512585	0
2	5745	2231.409777036394	1
2	5748	2231.762885859665	0
2	5755	2232.508839427439	1
2	5756	2233.055123070357	0
2	5775	2235.782072419624	1
2	5776	2235.887083666561	0
2	5795	2239.270186505679	1
2	5796	2239.876956130789	0
2	5820	2252.944040570688	1
2	5821	2253.158267645387	0
2	5830	2253.928894255263	1
2	5831	2254.245118735673	0
2	5845	2273.093906560708	1
2	5846	2273.375538164493	0
2	5857	2274.073648359721	1
2	5858	2274.796213918063	0
2	5869	2276.009922058086	1
2	5870	2276.418039878528	0
2	5874	2276.662083106307	1
2	5875	2277.224426652003	0
2	5879	2277.423852314535	1
2	5880	2277.873857740709	0
2	5886	2278.381663472544	1
2	5887	2278.795653623972	0
2	5910	2282.610530772517	1
2	5913	2282.803368379775	0
2	5922	2283.471396568094	1
2	5923	2284.297166822845	0
2	5997	2318.100904875757	1
2	5998	2318.25460434051	0
2	6035	2329.037686542193	1
2	6036	2329.190116980469	0
2	6055	2333.884676353577	1
2	6056	2333.942391331413	0
2	6105	2369.943913101177	1
2	6106	2370.263358102593	0
2	6130	2374.402031308398	1
2	6131	2374.889353944839	0
2	6135	2375.086965836622	1
2	6137	2375.459714470002	2
2	6138	2375.841037195887	1
2	6142	2376.303636713382	2
2	6143	2376.494713046601	1
2	6147	2376.540774034492	2
2	6148	2377.206158291329	1
2	6151	2377.803339146696	0
2	6220	2420.545769111708	1
2	6221	2421.070320148566	0
2	6230	2429.096762007929	1
2	6231	2429.462171450607	0
2	6240	2431.085996163857	1
2	6241	2431.518014480268	0
2	6245	2431.604144849653	1
2	6246	2432.061038091501	0
2	6250	2432.560463083617	1
2	6251	2432.963212541818	0
2	6260	2434.52087096755	1
2	6261	2434.912826164086	0
2	6405	2528.009187837387	1
2	6406	2528.621030224053	0
2	6425	2534.957778123081	1
2	6426	2535.315917693548	0
2	6430	2535.402330714688	1
2	6431	2536.265609737722	0
2	6435	2536.361589490304	1
2	6437	2536.505708178885	2
2	6438	2536.85773384455	1
2	6443	2537.84790769392	0
2	6447	2537.909964624119	1
2	6448	2538.526305964685	0
2	6452	2538.672632598784	1
2	6453	2539.029479065633	0
2	6500	2554.017381976228	1
2	6503	2554.793204355584	0
2	6535	2568.560403069845	1
2	6536	2569.118330779565	0
2	6615	2637.046319850485	1
2	6616	2637.52088114276	0
2	6620	2637.65486939734	1
2	6621	2638.049455691934	0
2	6640	2645.034748011545	1
2	6641	2645.191382673318	0
2	6655	2647.508690150334	1
2	6658	2647.624771577249	0
2	6670	2649.148644781626	1
2	6673	2649.34579211938	0
2	6735	2669.795334325204	1
2	6736	2669.814951224828	0
2	6790	2680.772667668091	1
2	6791	2681.127472862004	0
2	6800	2682.255565742058	1
2	6801	2683.029804221681	0
2	6850	2703.324063211962	1
2	6853	2704.099671358227	0
2	6860	2705.252754493565	1
2	6861	2705.388273130202	0
2	6952	2743.039893966836	1
2	6953	2743.282326019813	0
2	7090	2813.563776041732	1
2	7091	2813.749632737441	0
2	7150	2829.535218531022	1
2	7151	2829.948776821936	0
2	7190	2860.124294702538	1
2	7191	2860.91433874503	0
2	7195	2861.572838139289	1
2	7196	2861.898678959946	0
2	7200	2861.915187348438	1
2	7203	2862.49568525729	0
2	7215	2863.565326395575	1
2	7216	2864.40742685575	0
2	7230	2866.924290919506	1
2	7231	2867.202401967075	0
2	7330	2911.934516085296	1
2	7331	2911.997712393422	0
2	7350	2915.707257121693	1
2	7353	2916.404753419474	0
2	7530	3004.418884105132	1
2	7531	3004.46744590762	0
2	7537	3004.717371328362	1
2	7538	3005.294766321098	0
2	7542	3005.510083084349	1
2	7543	3005.822865701997	0
2	7570	3012.116318264081	1
2	7571	3012.878093091607	0
2	7620	3028.618187225269	1
2	7621	3029.116273309094	0
2	7667	3036.346596114783	1
2	7668	3036.407853906119	0
2	7675	3037.472690452984	1
2	7678	3037.922549340857	0
2	7745	3080.219507309636	1
2	7746	3080.576849329403	0
2	7750	3080.941633879295	1
2	7751	3081.220446593665	0
2	7845	3132.663860583359	1
2	7846	3132.887990997527	0
2	7877	3138.457959111503	1
2	7878	3139.313101697896	0
2	7905	3150.956160687943	1
2	7906	3151.754463818199	0
2	7910	3151.993981659206	1
2	7911	3152.333241701261	0
2	7950	3164.422409212346	1
2	7951	3164.519978055631	0
2	7970	3171.555765307031	1
2	7971	3171.69554297264	0
2	8045	3202.799507938572	1
2	8046	3203.163144262936	0
2	8050	3203.431753234562	1
2	8051	3204.004096443681	0
2	8075	3210.944797259586	1
2	8076	3211.829571417862	0
2	8130	3239.678536516508	1
2	8131	3239.749464471027	0
2	8135	3240.081594353611	1
2	8136	3240.359492720332	0
2	8140	3240.8772190145	1
2	8141	3241.241582981212	0
2	8145	3241.498044520736	1
2	8146	3241.771709613962	0
2	8160	3243.905881356974	1
2	8161	3244.627638107473	0
2	8170	3245.991379234897	1
2	8171	3246.463326289021	0
2	8195	3264.047774168937	1
2	8196	3264.298496843599	0
2	8280	3320.672718161861	1
2	8281	3320.716226730721	0
2	8290	3321.584608262243	1
2	8291	3321.762370511603	0
2	8300	3322.744761974306	1
2	8303	3323.564719317474	0
2	8314	3325.000047287197	1
2	8315	3325.160756110254	0
2	8321	3325.42298381391	1
2	8326	3325.873875546263	0
2	8330	3326.06485782937	1
2	8331	3326.568534814234	0
2	8341	3327.717624262018	1
2	8342	3328.550617177824	0
2	8351	3329.654373012226	1
2	8352	3330.01922339447	0
2	8359	3330.98655081926	1
2	8360	3331.371082926021	0
2	8410	3349.553184111807	1
2	8411	3349.845072966764	0
2	8420	3351.059804078213	1
2	8421	3351.183355866788	0
2	8435	3363.374174400565	1
2	8436	3363.81378315285	0
2	8440	3363.815943764546	1
2	8441	3364.369808367856	0
2	8605	3449.690724474375	1
2	8606	3450.080768373985	0
2	8780	3503.169952135672	1
2	8781	3503.235324267465	0
2	8800	3513.608830080902	1
2	8801	3513.748534459782	0
2	8805	3514.158865349117	1
2	8806	3514.307836192449	0
2	8890	3554.692125463847	1
2	8891	3554.763149585706	0
2	8910	3557.864430380838	1
2	8913	3557.970410962514	0
2	8926	3558.975343013664	1
2	8927	3559.705018626451	0
2	8934	3560.78962891533	1
2	8935	3560.888916744356	0
2	8942	3561.730292402182	1
2	8943	3562.493847163878	0
2	8955	3563.78376309615	1
2	8956	3564.155122344401	0
2	8972	3566.17558784383	1
2	8973	3566.257710016826	0
2	8980	3567.206788511614	1
2	8981	3567.790173032162	0
2	9010	3583.153433849958	1
2	9011	3583.550101702088	0
2	9155	3692.708189504716	1
2	9156	3693.056227210051	0
2	9235	3776.623317572632	1
2	9236	3776.855099361966	0
2	9260	3783.878347478877	1
2	9261	3784.285828891033	0
2	9270	3785.027969463099	1
2	9271	3785.382664069915	0
2	9370	3818.366161402625	1
2	9371	3818.720535911509	0
2	9380	3826.757560637124	1
2	9381	3827.627393521347	0
2	9390	3828.842250918497	1
2	9391	3829.612018757116	0
2	9430	3846.607437465728	1
2	9431	3847.285244907391	0
2	9435	3847.508658990815	1
2	9438	3848.099178668809	0
2	9455	3862.698131503782	1
2	9456	3863.287676648046	0
2	9465	3863.929170874621	1
2	9466	3864.755129701034	0
2	9480	3866.258463671077	1
2	9483	3867.17325967615	0
2	9555	3895.582826831455	1
2	9556	3896.002409108544	0
2	9610	3935.867781951437	1
2	9611	3936.081130575088	0
2	9620	3937.193244512793	1
2	9622	3937.318843527492	2
2	9623	3937.666331353529	1
2	9626	3938.083539958975	0
2	9630	3938.452833925449	1
2	9631	3938.5748244114	0
2	9720	3975.341217027737	1
2	9721	3975.437225746523	0
2	9730	3976.486976474894	1
2	9731	3977.226645480163	0
2	9794	3997.545512479503	1
2	9795	3997.974333204354	0
2	9804	3999.348501144811	1
2	9805	3999.431059814735	0
2	9897	4027.737246251533	1
2	9898	4027.809060030756	0
2	9902	4027.826766073202	1
2	9905	4028.414163950365	0
2	9917	4029.905628455056	1
2	9920	4030.327951121237	0
2	9950	4035.241687059	1
2	9951	4035.316080600861	0
2	9965	4037.272550589027	1
2	9968	4037.708490771725	0
2	10000	4042.563280992622	1
2	10001	4043.183538587317	0
2	10015	4046.987940036638	1
2	10016	4047.098777443775	0
2	10240	4127.031965146587	1
2	10241	4127.206762892108	0
2	10250	4128.343690565248	1
2	10251	4128.446211456514	0
2	10275	4133.657228839387	1
2	10277	4133.708533258669	2
2	10278	4134.139959433682	1
2	10283	4134.928667720182	0
2	10290	4135.636358260253	1
2	10293	4136.360920999719	0
2	10402	4193.300167350845	1
2	10403	4193.329653979177	0
2	10410	4194.157462994763	1
2	10411	4194.829781295164	0
2	10430	4197.814957714784	1
2	10431	4198.228976800505	0
2	10495	4222.129666603031	1
2	10496	4222.249541104351	0
2	10575	4247.466658763583	1
2	10578	4247.773776187049	0
2	10587	4248.66166540171	1
2	10590	4249.472015728661	0
2	10625	4262.344112128988	1
2	10626	4263.124017461536	0
2	10640	4268.104450823	1
2	10641	4268.115687155202	0
2	10645	4268.177546037649	1
2	10646	4268.752323533725	0
2	10787	4329.804779014873	1
2	10788	4329.86656086364	0
2	10830	4338.793631869899	1
2	10831	4339.288625544915	0
2	10920	4375.886726568965	1
2	10921	4376.269543386344	0
2	10950	4388.991140079217	1
2	10951	4389.64832961191	0
2	11210	4526.62969953905	1
2	11211	4527.138593299178	0
2	11225	4528.82029515093	1
2	11226	4529.435687619891	0
2	11235	4530.751422544957	1
2	11236	4531.30737458986	0
2	11287	4545.723095425887	1
2	11288	4545.72990592334	0
2	11320	4553.033239642665	1
2	11321	4553.098795981876	0
2	11330	4553.728424059013	1
2	11331	4554.202329051432	0
2	11365	4562.015081969852	1
2	11366	4562.780679947789	0
2	11445	4596.323273455969	1
2	11446	4596.793991355452	0
2	11452	4596.910178644895	1
2	11454	4597.037242997108	2
2	11455	4597.28595662447	1
2	11462	4598.209382139419	0
2	11469	4599.312770081558	1
2	11470	4599.641888927662	0
2	11477	4600.165560096403	1
2	11478	4600.807281364634	0
2	11495	4606.829273937143	1
2	11496	4607.356187897711	0
2	11510	4610.107014863983	1
2	11511	4610.394021460937	0
2	11730	4739.968272611055	1
2	11731	4740.729887805344	0
2	11765	4747.944450346595	1
2	11766	4748.688576812771	0
2	11900	4806.129993391867	1
2	11901	4806.737625759663	0
2	11920	4817.240665159009	1
2	11921	4817.304450945711	0
2	11980	4830.677097125878	1
2	11981	4830.843920519201	0
2	12065	4863.541396868447	1
2	12066	4863.662742046634	0
2	12095	4870.217440731213	1
2	12096	4870.250303004376	0
2	12125	4883.490918814231	1
2	12126	4883.578420308153	0
2	12145	4886.289299463894	1
2	12146	4886.946133662207	0
2	12152	4887.140168586706	1
2	12153	4887.562625983689	0
2	12165	4888.886398760927	1
2	12167	4888.92347368822	2
2	12168	4889.66916230843	1
2	12175	4890.269374731794	0
2	12182	4890.859379260639	1
2	12183	4891.694474829506	0
2	12189	4892.433554422385	1
2	12190	4892.597588018892	0
2	12194	4892.961486543628	1
2	12195	4893.108569524116	0
2	12199	4893.192269343534	1
2	12200	4893.576816557911	0
2	12204	4893.891867776892	1
2	12205	4894.003545932756	0
2	12209	4894.138169241682	1
2	12210	4894.467784688906	0
2	12219	4895.848410834588	1
2	12220	4895.857936112495	0
2	12455	5030.529396918733	1
2	12456	5031.034357483997	0
2	12460	5031.549617780138	1
2	12461	5031.71148159903	0
2	12465	5031.731222580305	1
2	12466	5032.598003325458	0
2	12490	5049.737054553792	1
2	12491	5050.152169079859	0
2	12555	5091.070602748935	1
2	12556	5091.638404932344	0
2	12570	5094.405376043135	1
2	12573	5094.794585247981	0
2	12615	5111.334842047613	1
2	12616	5111.440515874104	0
2	12650	5124.046448814555	1
2	12651	5124.109798286581	0
2	12660	5126.03331596489	1
2	12661	5126.121758772721	0
2	12665	5126.391680335388	1
2	12666	5127.064761838419	0
2	12785	5185.636368737684	1
2	12786	5185.676221102607	0
2	12875	5228.448468040368	1
2	12876	5229.179548431523	0
2	12880	5229.488312028886	1
2	12881	5229.795991824763	0
2	12885	5229.918189120056	1
2	12886	5230.666582000917	0
2	12890	5230.990600128091	1
2	12891	5231.336250890568	0
2	12925	5244.799507777387	1
2	12926	5245.152535260803	0
2	13030	5276.209707869054	1
2	13031	5276.652246436883	0
2	13040	5282.823982084562	1
2	13041	5283.344550502267	0
2	13045	5283.51939091844	1
2	13047	5283.72865751093	2
2	13048	5284.068288406184	1
2	13051	5284.76505696989	0
2	13055	5284.820981485808	1
2	13056	5285.16755418178	0
2	13065	5286.890529406856	1
2	13066	5287.192558782637	0
2	13070	5287.255205669155	1
2	13071	5287.684005452549	0
2	13075	5287.745188005633	1
2	13076	5288.139494029149	0
2	13080	5288.27084580575	1
2	13081	5288.58297487469	0
2	13085	5288.745444293319	1
2	13086	5289.574649695769	0
2	13090	5289.931022396103	1
2	13091	5290.194960470913	0
2	13280	5399.271613837215	1
2	13281	5399.450214923039	0
2	13290	5400.049940152003	1
2	13291	5400.536979018949	0
2	13295	5400.585406484099	1
2	13296	5401.341122651106	0
2	13320	5406.428295584887	1
2	13321	5406.576255922205	0
2	13330	5407.695702821379	1
2	13331	5407.798783706221	0
2	13355	5415.284606512975	1
2	13356	5415.712357073576	0
2	13370	5418.536404333683	1
2	13371	5419.258987535638	0
2	13410	5434.50426676701	1
2	13411	5435.181878977231	0
2	13422	5436.495444845172	1
2	13423	5436.678713938015	0
2	13427	5436.697563474429	1
2	13428	5437.353978846202	0
2	13432	5437.587905223248	1
2	13433	5437.91309054925	0
2	13440	5438.849076803997	1
2	13441	5439.239878941726	0
2	13450	5440.416112830757	1
2	13451	5441.344727490975	0
2	13510	5477.661422796161	1
2	13511	5477.665727328246	0
2	13525	5484.687581417892	1
2	13528	5485.052442474656	0
2	13535	5485.746532345201	1
2	13536	5485.945669008597	0
2	13547	5487.317106191861	1
2	13548	5487.487327531624	0
2	13605	5536.054207740028	1
2	13610	5536.657154013564	0
2	13617	5537.98987485377	1
2	13618	5538.069997032846	0
2	13650	5559.602302234574	1
2	13651	5559.932086966019	0
2	13670	5564.52733215714	1
2	13671	5564.93707242012	0
2	13680	5565.881445124852	1
2	13681	5566.472266432876	0
2	13690	5567.277088717968	1
2	13691	5568.049997353158	0
2	13700	5568.928301406334	1
2	13701	5569.434044882353	0
2	13710	5570.523829666964	1
2	13711	5571.021500785719	0
2	13800	5618.190100184057	1
2	13802	5618.472342522432	2
2	13803	5618.575655984233	1
2	13806	5619.164357384766	0
2	13810	5619.771381823844	1
2	13811	5620.007018023689	0
2	13815	5620.352220928294	1
2	13816	5620.563615278859	0
2	13820	5620.808584922703	1
2	13821	5621.327413239383	0
2	13840	5625.650848470181	1
2	13842	5625.928802282102	2
2	13845	5626.468691444235	1
2	13850	5626.961972642714	0
2	13857	5627.707216139121	1
2	13858	5628.419586857386	0
2	13862	5628.524104773409	1
2	13865	5629.058001726145	0
2	13869	5629.080776391376	1
2	13870	5629.97169651508	0
2	13874	5630.274118010344	1
2	13875	5630.719206712326	0
2	13950	5673.39798100043	1
2	13951	5673.398780703756	0
2	13955	5673.575962539299	1
2	13956	5674.235772190361	0
2	13960	5674.520380083531	1
2	13961	5675.040743188305	0
2	13980	5678.386471423006	1
2	13981	5678.47781170816	0
2	13985	5678.602909046187	1
2	13986	5679.339582200766	0
2	14030	5697.562043585362	1
2	14031	5697.717850056771	0
2	14100	5733.240964076295	1
2	14101	5733.312638025194	0
2	14235	5783.298177366759	1
2	14236	5783.68482558467	0
2	14240	5783.980233656247	1
2	14241	5784.564924529572	0
2	14245	5785.196373391564	1
2	14246	5785.406611103755	0
2	14250	5785.685918260212	1
2	14252	5786.275038619271	2
2	14253	5786.364588317792	1
2	14256	5787.032459842837	0
2	14260	5787.708746926379	1
2	14261	5787.863905783514	0
2	14300	5828.651290542176	1
2	14301	5829.33567555497	0
2	14340	5842.324726549149	1
2	14343	5842.67394437828	0
2	14350	5843.67205663403	1
2	14351	5844.04810389323	0
2	14370	5846.264922645272	1
2	14371	5846.856338286051	0
2	14390	5849.551898472431	1
2	14391	5849.799040826838	0
2	14535	5892.162564604283	1
2	14536	5892.619664879337	0
2	14765	5993.839696336432	1
2	14766	5994.182044433368	0
2	14800	6009.347543254346	1
2	14801	6010.116451028393	0
2	14825	6017.732341274456	1
2	14826	6018.147192908641	0
2	14850	6045.00864953172	1
2	14851	6045.313981910949	0
2	14860	6046.228913926108	1
2	14861	6046.933896079161	0
2	14870	6048.057821734081	1
2	14871	6048.276201918036	0
2	14880	6049.17527142074	1
2	14882	6049.646959244274	2
2	14883	6049.841172283202	1
2	14886	6050.816550380889	0
2	14905	6053.61127508612	1
2	14906	6053.71770055273	0
2	14935	6067.655261273377	1
2	14936	6068.269705281056	0
2	14940	6068.582206453126	1
2	14941	6068.695825297407	0
2	14945	6069.11096216357	1
2	14948	6069.46469624948	0
2	14955	6070.020590619578	1
2	14956	6070.797677439286	0
2	14980	6074.113025686845	1
2	14981	6074.448850471979	0
2	15090	6123.671592999574	1
2	15091	6124.149609688191	0
2	15102	6125.196677153592	1
2	15104	6125.583523908427	2
2	15105	6125.610925582365	1
2	15110	6126.60815851161	0
2	15160	6137.555979212045	1
2	15162	6138.133707416884	2
2	15163	6138.385116792199	1
2	15168	6139.356135301393	0
2	15230	6166.152949993165	1
2	15231	6166.568062745741	0
2	15392	6225.613578470719	1
2	15393	6225.685044300577	0
2	15400	6226.844767838971	1
2	15401	6227.371948806776	0
2	15450	6247.278683184621	1
2	15451	6247.574690694329	0
2	15485	6264.90383151988	1
2	15486	6264.982195672189	0
2	15490	6265.07950108314	1
2	15492	6265.208422517761	2
2	15493	6265.38288776775	1
2	15496	6265.787639711454	0
2	15540	6294.835386679865	1
2	15541	6295.508213783868	0
2	15555	6297.105527702463	1
2	15556	6297.314922133569	0
2	15642	6320.617003890484	1
2	15645	6320.90087429741	0
2	15665	6333.670310853325	1
2	15668	6334.067078594904	0
2	15677	6335.051305542315	1
2	15678	6335.505691360024	0
2	15687	6335.955659828887	1
2	15688	6336.491499869892	0
2	15735	6351.269603922926	1
2	15736	6351.820619924033	0
2	15787	6362.004284496739	1
2	15788	6362.238841418227	0
2	15835	6376.704697251944	1
2	15836	6377.308496740017	0
2	15850	6378.888619487043	1
2	15852	6378.906254198305	2
2	15853	6379.49467118205	1
2	15857	6379.844429590045	2
2	15858	6380.152837750823	1
2	15861	6381.122663938482	0
2	15867	6381.471236383615	1
2	15868	6381.891111319181	0
2	15872	6381.996370617862	1
2	15874	6382.474781346153	2
2	15875	6382.504674370721	1
2	15879	6382.743475018237	2
2	15880	6383.310059410235	1
2	15884	6383.727825637936	2
2	15885	6384.114944380097	1
2	15889	6384.715029262229	2
2	15890	6384.786569159612	1
2	15894	6385.125877839268	2
2	15895	6385.488283106819	1
2	15898	6386.22175306668	0
2	15902	6386.929032165925	1
2	15903	6386.983692201594	0
2	15907	6387.270865190973	1
2	15908	6387.74101384384	0
2	15925	6390.509998510256	1
2	15926	6390.786489283487	0
2	15932	6391.48439917533	1
2	15933	6391.763797102038	0
2	15937	6391.971246577027	1
2	15938	6392.732414306335	0
2	15942	6393.320793125812	1
2	15943	6393.511743548706	0
2	15947	6393.583678219814	1
2	15949	6393.659714009328	2
2	15950	6394.154327011023	1
2	15953	6394.993537253335	0
2	15975	6399.178409483693	1
2	15976	6399.703866065615	0
2	15985	6401.048400140553	1
2	15986	6401.056453029574	0
2	16020	6412.463185452008	1
2	16021	6412.957567383803	0
2	16060	6428.353000133846	1
2	16062	6428.530868526933	2
2	16063	6428.766060793959	1
2	16068	6429.583183929883	0
2	16072	6430.239601953565	1
2	16073	6430.343590412568	0
2	16127	6441.585802905697	1
2	16131	6441.706874830129	2
2	16132	6441.812621116357	1
2	16135	6442.436359279228	0
2	16290	6524.875555682107	1
2	16293	6525.525339562815	0
2	16305	6526.733087147686	1
2	16310	6527.537521643561	0
2	16420	6549.659101177345	1
2	16421	6550.292017117077	0
2	16475	6584.068542197222	1
2	16476	6584.833270977903	0
2	16505	6635.701975140328	1
2	16506	6636.080413847326	0
2	16510	6636.697472973191	1
2	16511	6636.713835664981	0
2	16595	6675.310835003772	1
2	16596	6675.810648083649	0
2	16605	6677.291542651168	1
2	16606	6677.294698299709	0
2	16675	6691.161483073731	1
2	16676	6691.950221646062	0
2	16715	6719.715054243593	1
2	16716	6720.438975261453	0
2	16765	6751.414023554683	1
2	16766	6751.891058006392	0
2	16775	6752.889218918253	1
2	16776	6753.448591728157	0
2	16800	6766.365901019968	1
2	16801	6766.593449071905	0
2	16815	6768.944769084959	1
2	16816	6769.112718914581	0
2	16865	6789.020712108258	1
2	16866	6789.462860372401	0
2	16880	6791.060924382869	1
2	16883	6791.553437296852	0
2	16890	6792.117650446811	1
2	16892	6792.413145561735	2
2	16893	6792.589901993881	1
2	16898	6793.44068469544	0
2	16985	6853.220679155824	1
2	16986	6853.617948765306	0
2	17035	6893.466371338159	1
2	17037	6893.577603019899	2
2	17038	6894.343655785438	1
2	17041	6894.972407012046	0
2	17045	6895.034074687361	1
2	17048	6895.884427092676	0
2	17052	6896.236427689846	1
2	17053	6896.563942086636	0
2	17057	6896.604793536638	1
2	17058	6897.533927761936	0
2	17062	6897.548207821963	1
2	17063	6898.436762078	0
2	17067	6898.723982403723	1
2	17068	6898.952610139256	0
2	17072	6899.123162291654	1
2	17075	6899.877255758257	0
2	17084	6900.733383060653	1
2	17086	6901.210612558197	2
2	17087	6901.297501083077	1
2	17090	6901.727599622016	0
2	17190	6926.850538042174	1
2	17193	6927.414117843979	0
2	17225	6954.761860494964	1
2	17226	6954.851818643631	0
2	17232	6955.364373206635	1
2	17233	6955.747746363822	0
2	17237	6955.999588166711	1
2	17238	6956.73373706446	0
2	17242	6956.879120176735	1
2	17243	6957.375114007415	0
2	17290	6990.959727697497	1
2	17291	6991.450845675718	0
2	17295	6991.713714756662	1
2	17296	6992.061329614732	0
2	17300	6992.112398397252	1
2	17301	6992.844698630727	0
2	17305	6992.880175829174	1
2	17306	6993.731528349069	0
2	17420	7009.848291258473	1
2	17421	7010.41069908967	0
2	17435	7012.325510670892	1
2	17436	7012.652646237063	0
2	17442	7013.259196188915	1
2	17443	7013.494388895818	0
2	17447	7013.691314460177	1
2	17448	7014.387448790726	0
2	17465	7016.874944826027	1
2	17468	7017.357271724282	0
2	17495	7025.610962629294	1
2	17496	7025.638724355393	0
2	17500	7025.655648726932	1
2	17502	7025.723411271528	2
2	17505	7026.276366731332	1
2	17509	7026.560110452172	2
2	17510	7027.195595824386	1
2	17513	7028.152813882188	0
2	17517	7028.185591233123	1
2	17519	7028.752060423609	2
2	17520	7028.780665414169	1
2	17524	7028.993198290633	2
2	17529	7029.7741304825	1
2	17533	7029.930734732533	2
2	17536	7030.682757051143	1
2	17539	7031.432290846569	0
2	17543	7032.222268858619	1
2	17544	7032.227911808336	0
2	17548	7032.507948107593	1
2	17549	7033.182706383843	0
2	17567	7036.905172428091	1
2	17572	7037.148798899905	0
2	17600	7042.538476972579	1
2	17604	7042.655967126875	2
2	17605	7043.003333609628	1
2	17608	7043.66607698587	0
2	17615	7044.493746051349	1
2	17616	7044.849595711318	0
2	17640	7054.779318001629	1
2	17641	7054.927477242914	0
2	17645	7055.059133668397	1
2	17647	7055.527459388039	2
2	17648	7055.911367638386	1
2	17651	7056.399709490291	0
2	17665	7060.462456288137	1
2	17666	7060.698531216484	0
2	17680	7065.090505884186	1
2	17681	7065.423492740382	0
2	17685	7065.61525990837	1
2	17686	7065.839172211065	0
2	17690	7066.206024533718	1
2	17691	7066.590421089166	0
2	17715	7077.118299609607	1
2	17716	7077.598929783319	0
2	17730	7079.805988383696	1
2	17731	7080.153702371317	0
2	17745	7082.04332469588	1
2	17746	7082.424416466634	0
2	17755	7083.616579433029	1
2	17756	7084.315805203951	0
2	17770	7085.930565962432	1
2	17771	7086.32450905699	0
2	17840	7122.496121331517	1
2	17841	7123.128875263551	0
2	17875	7153.952677505485	1
2	17876	7154.571145617079	0
2	17960	7195.665547157795	1
2	17961	7196.317449386172	0
2	17970	7197.178728642878	1
2	17971	7197.813937497312	0
2	18000	7214.641739457821	1
2	18001	7214.799153658055	0
2	18005	7214.814516636321	1
2	18008	7215.311103640083	0
2	18012	7215.339294084656	1
2	18013	7216.308522154303	0
2	18017	7216.643280053815	1
2	18018	7217.180014791531	0
2	18022	7217.219188180439	1
2	18023	7217.83619885692	0
2	18027	7218.114000685639	1
2	18028	7218.237567460636	0
2	18032	7218.489489441315	1
2	18033	7219.014396137936	0
2	18037	7219.056438292067	1
2	18038	7219.443746319745	0
2	18050	7221.91801879105	1
2	18051	7222.109157845189	0
2	18060	7223.47337330125	1
2	18061	7223.985822960593	0
2	18125	7259.156881844133	1
2	18126	7259.635505642675	0
2	18130	7259.785660327834	1
2	18131	7260.351092330439	0
2	18150	7263.208576171524	1
2	18152	7263.94831790236	2
2	18153	7264.033535893628	1
2	18158	7264.931643723504	0
2	18162	7265.525256373364	1
2	18163	7265.677688043791	0
2	18170	7266.484104784239	1
2	18172	7266.590813110651	2
2	18173	7266.987587933888	1
2	18176	7267.738264043018	0
2	18270	7327.321149535128	1
2	18271	7328.288317647495	0
2	18357	7350.650521979028	1
2	18358	7351.242779198311	0
2	18590	7451.406234254893	1
2	18591	7451.411289647141	0
2	18605	7456.96829754292	1
2	18606	7457.23458022618	0
2	18622	7459.175344469021	1
2	18625	7459.74397162111	0
2	18629	7459.910263146236	1
2	18632	7460.186017005662	0
2	18667	7465.224471735031	1
2	18668	7466.065447507244	0
2	18672	7466.324361483338	1
2	18677	7466.971534286444	0
2	18688	7468.014922373951	1
2	18689	7468.487426308268	0
2	18696	7469.624070343465	1
2	18697	7469.830045683408	0
2	18755	7509.849676721931	1
2	18756	7509.933697234191	0
2	18810	7528.791470820302	1
2	18811	7529.141230940563	0
2	18820	7529.914356632067	1
2	18821	7530.336479393649	0
2	18830	7531.219717870729	1
2	18831	7532.083500857209	0
2	18842	7533.334323752141	1
2	18843	7533.351798824384	0
2	18852	7534.02739764427	1
2	18854	7534.11699441277	2
2	18855	7534.344009345701	1
2	18860	7534.983909313777	0
2	18870	7537.18110244629	1
2	18873	7537.192811558699	0
2	18927	7548.458930454228	1
2	18928	7548.731131308773	0
2	19040	7609.834506088231	1
2	19041	7610.506137288379	0
2	19052	7612.600746778574	1
2	19053	7612.708817796671	0
2	19057	7613.205122472741	1
2	19058	7613.228980544844	0
2	19062	7613.326278908534	1
2	19063	7613.736742309044	0
2	19095	7624.484348861311	1
2	19096	7624.730591606502	0
2	19105	7626.11038787341	1
2	19109	7626.359744293967	2
2	19110	7626.770310686859	1
2	19114	7626.820944635221	2
2	19117	7627.66187628359	1
2	19122	7628.476170863448	0
2	19235	7670.483434320221	1
2	19236	7670.503702179339	0
2	19259	7673.231063897965	1
2	19260	7673.456960418862	0
2	19267	7674.71459336931	1
2	19268	7674.949333499879	0
2	19272	7675.093232626581	1
2	19273	7675.517282221228	0
2	19279	7675.678877037142	1
2	19280	7676.401891625667	0
2	19284	7676.71578864935	1
2	19286	7676.753827576292	2
2	19287	7677.059852346214	1
2	19292	7677.951181523962	0
2	19299	7678.940308957251	1
2	19301	7678.941003342127	2
2	19302	7679.788968152966	1
2	19307	7680.748831547651	0
2	19313	7681.228773066994	1
2	19314	7681.520032694092	0
2	19321	7682.278270235623	1
2	19322	7682.880420235027	0
2	19370	7694.97046223253	1
2	19371	7695.435373353417	0
2	19390	7702.234830899902	1
2	19395	7702.506278157347	0
2	19404	7703.445817691093	1
2	19405	7704.065174095399	0
2	19412	7705.11061223178	1
2	19413	7705.571214570963	0
2	19417	7705.605230707295	1
2	19418	7706.506315329644	0
2	19442	7718.148846940813	1
2	19443	7718.547136534685	0
2	19535	7739.035951914674	1
2	19536	7739.331930454498	0
2	19545	7740.413059807222	1
2	19548	7740.836555104101	0
2	19557	7741.750301962329	1
2	19558	7742.487536317673	0
2	19567	7743.146979253884	1
2	19568	7743.884997560879	0
2	19577	7744.922936992136	1
2	19578	7745.223517896472	0
2	19590	7746.909649579292	1
2	19593	7747.558274491694	0
2	19597	7747.809311532845	1
2	19598	7748.420765015766	0
2	19602	7748.689652796511	1
2	19603	7749.337786913853	0
2	19607	7749.420936838509	1
2	19608	7750.044613597359	0
2	19612	7750.365577940947	1
2	19613	7750.650255725676	0
2	19617	7751.045787059259	1
2	19618	7751.140993684999	0
2	19625	7751.882375202284	1
2	19626	7752.247535473344	0
2	19660	7758.244522403513	1
2	19661	7758.8165239781	0
2	19690	7764.219670405402	1
2	19691	7764.256196709185	0
2	19700	7766.43973729738	1
2	19701	7767.091936465718	0
2	19715	7768.495383900731	1
2	19716	7768.928488090735	0
2	19737	7771.665947389942	1
2	19738	7772.109527100768	0
2	19762	7781.00561545744	1
2	19765	7781.3733579448	0
2	19769	7781.416010285633	1
2	19770	7781.923740335465	0
2	19774	7781.942552075296	1
2	19775	7782.468996840301	0
2	19779	7782.668774774474	1
2	19780	7783.466457478614	0
2	19807	7787.522204597718	1
2	19808	7787.628514092979	0
2	19815	7788.390315742463	1
2	19816	7789.273837786359	0
2	19835	7792.403056635393	1
2	19836	7792.709229791062	0
2	19910	7844.910187109869	1
2	19911	7844.937953891464	0
2	19930	7861.836256094959	1
2	19931	7862.413654135948	0
2	19935	7862.569074223827	1
2	19936	7863.277276686195	0
2	19970	7878.796448995849	1
2	19971	7878.832877788275	0
2	20000	7882.881502579266	1
2	20001	7883.649757245929	0
2	20085	7923.626750977016	1
2	20086	7923.82167196768	0
2	20095	7930.629779466522	1
2	20096	7931.04548239922	0
2	20105	7932.024070234253	1
2	20106	7932.437856493004	0
2	20115	7933.532811898113	1
2	20116	7933.81690218239	0
2	20122	7933.840169778358	1
2	20123	7934.533044151402	0
2	20275	8015.967924182313	1
2	20276	8016.334496862189	0
2	20380	8054.731763866827	1
2	20381	8054.768279844468	0
2	20469	8090.062786607225	1
2	20470	8090.399024852039	0
2	20580	8147.744605019571	1
2	20581	8148.34876898229	0
2	20625	8159.892759316555	1
2	20628	8160.727509241559	0
2	20637	8161.698310131995	1
2	20638	8162.458817409545	0
2	20647	8163.374766222275	1
2	20650	8164.143807940705	0
2	20657	8164.751668766527	1
2	20660	8165.620985856427	0
2	20669	8167.215022295402	1
2	20670	8167.264091060644	0
2	20677	8168.304669287411	1
2	20678	8168.719631741948	0
2	20685	8169.526734652329	1
2	20690	8170.345476996952	0
2	20694	8170.481755817254	1
2	20695	8171.269804568689	0
2	20699	8171.544157037689	1
2	20700	8171.71784373136	0
2	20880	8235.898103975721	1
2	20882	8236.475875023101	2
2	20883	8236.755352914974	1
2	20886	8237.343365749845	0
2	20890	8237.590023543262	1
2	20891	8238.1327472092	0
2	20905	8241.760975524109	1
2	20906	8242.105764407378	0
2	21012	8295.573031024267	1
2	21013	8295.582586861885	0
2	21020	8296.770576538351	1
2	21021	8297.077466445713	0
2	21030	8297.73503215302	1
2	21031	8298.28934412754	0
2	21040	8299.438611094356	1
2	21041	8299.780040583451	0
2	21055	8301.258938349756	1
2	21056	8302.078245579813	0
2	21060	8302.100138672519	1
2	21061	8303.020420205722	0
2	21090	8309.380128229577	1
2	21091	8309.405911373393	0
2	21150	8334.959277159268	1
2	21151	8335.366953228203	0
2	21155	8335.47716229471	1
2	21157	8335.639612317777	2
2	21158	8336.066166399395	1
2	21161	8336.64750249253	0
2	21175	8339.600819863791	1
2	21176	8339.771180348828	0
2	21180	8339.806152301307	1
2	21181	8340.489475100426	0
2	21185	8340.892125120723	1
2	21186	8341.196958692264	0
2	21190	8341.489689506822	1
2	21193	8342.127977441469	0
2	21295	8392.943633534065	1
2	21296	8392.977532208121	0
2	21374	8409.685233052088	1
2	21376	8409.720160309862	2
2	21377	8410.211329809173	1
2	21382	8410.825453782563	0
2	21420	8420.15390766436	1
2	21421	8420.354978116341	0
2	21755	8634.699678005222	1
2	21756	8634.918261800123	0
2	21765	8636.200944966105	1
2	21767	8636.687233267452	2
2	21768	8636.806313949895	1
2	21771	8637.604812523235	0
2	21930	8723.838002547198	1
2	21932	8723.955851660389	2
2	21933	8724.021079013836	1
2	21936	8724.656257896185	0
2	21940	8725.087495677672	1
2	21941	8725.445408471966	0
2	22010	8785.93860739999	1
2	22011	8786.08753488028	0
2	22025	8787.830014133199	1
2	22026	8788.14829448998	0
2	22060	8799.666908046395	1
2	22061	8800.279637987599	0
2	22080	8802.956553248392	1
2	22081	8803.079635248977	0
2	22100	8806.309705228137	1
2	22101	8806.681136181614	0
2	22115	8808.515206771218	1
2	22118	8809.088537807543	0
2	22135	8814.0662372314	1
2	22136	8814.606258480015	0
2	22140	8815.357119375387	1
2	22141	8815.389613719514	0
2	22145	8815.434792099082	1
2	22146	8815.926672812175	0
2	22150	8816.28751422866	1
2	22151	8816.442763286173	0
2	22165	8820.96805085068	1
2	22166	8820.99780830615	0
2	22175	8822.522117789408	1
2	22176	8822.594863400001	0
2	22225	8843.614105762934	1
2	22227	8843.61690970319	2
2	22228	8844.4763296385	1
2	22231	8845.196102082467	0
2	22295	8880.186726199536	1
2	22296	8880.477210715003	0
2	22350	8899.146856522743	1
2	22351	8899.270920617239	0
2	22355	8899.58759261992	1
2	22358	8900.057776226395	0
2	22367	8901.424907773302	1
2	22368	8901.932052435552	0
2	22377	8902.985507053238	1
2	22378	8903.600701910596	0
2	22440	8918.086154826656	1
2	22441	8918.266171927722	0
2	22460	8922.324929374025	1
2	22461	8922.89121281109	0
2	22485	8926.730368230365	1
2	22486	8926.99365090174	0
2	22520	8932.802112006057	1
2	22521	8933.469821684998	0
2	22525	8933.573911449935	1
2	22526	8933.967392895468	0
2	22530	8934.284726096033	1
2	22531	8934.913330655037	0
2	22540	8936.029201661304	1
2	22541	8936.760114522247	0
2	22545	8936.797650777425	1
2	22546	8937.637409140092	0
2	22590	8960.763362227845	1
2	22591	8960.964269482349	0
2	22595	8961.462063977115	1
2	22596	8961.537008133209	0
2	22600	8962.39500131936	1
2	22601	8962.469643439171	0
2	22605	8962.529430513665	1
2	22606	8963.386252093227	0
2	22630	8968.402019686531	1
2	22631	8968.918579939739	0
2	22660	8981.797937289997	1
2	22661	8982.652878066112	0
2	22675	8993.782801307086	1
2	22676	8994.082463699169	0
2	22680	8994.105992185328	1
2	22681	8994.895583250196	0
2	22690	8995.898591189234	1
2	22691	8996.475607296548	0
2	22695	8997.094664729927	1
2	22696	8997.246558647466	0
2	22700	8997.536780137382	1
2	22701	8997.77608590443	0
2	22740	9006.036433501024	1
2	22741	9006.397506384645	0
2	22750	9007.125604619617	1
2	22751	9007.90654017725	0
2	22805	9031.014048387292	1
2	22806	9031.375243513922	0
2	22810	9031.702434494024	1
2	22811	9032.156143067016	0
2	22815	9032.361314767476	1
2	22818	9032.777529672424	0
2	22827	9034.141274024405	1
2	22830	9034.310276878004	0
2	22839	9034.781379355226	1
2	22840	9035.231719727752	0
2	22940	9067.398475209783	1
2	22941	9067.677940269948	0
2	22950	9068.4329921923	1
2	22951	9068.675300051707	0
2	22960	9069.539704622533	1
2	22961	9070.180209236049	0
2	22975	9076.557083255013	1
2	22976	9077.408701318056	0
2	22980	9078.090580227071	1
2	22981	9078.172470397615	0
2	22985	9078.39935241963	1
2	22986	9078.612094774489	0
2	22990	9078.625252672115	1
2	22991	9079.33187584092	0
2	22995	9079.471874126171	1
2	22996	9079.932577483701	0
2	23000	9079.940949182674	1
2	23001	9080.365096499604	0
2	23005	9080.428396806681	1
2	23006	9080.906054507029	0
2	23150	9120.430619572477	1
2	23151	9120.66600700425	0
2	23170	9124.495741481286	1
2	23171	9124.940379696286	0
2	23235	9144.628487710687	1
2	23236	9144.664611322573	0
2	23320	9191.281379992252	1
2	23321	9191.636600231662	0
2	23500	9302.580928218448	1
2	23501	9303.147006247603	0
2	23525	9310.448757597894	1
2	23526	9310.596405164389	0
2	23615	9342.590995668906	1
2	23616	9342.808620833119	0
2	23660	9369.165408760128	1
2	23661	9369.691948081995	0
2	23695	9393.864518836896	1
2	23696	9394.446297635752	0
2	23720	9408.130578811582	1
2	23721	9408.639641527761	0
2	23725	9408.740616964243	1
2	23726	9409.250129212788	0
2	23730	9409.706394709796	1
2	23731	9409.92833195317	0
2	23745	9412.181410521781	1
2	23746	9412.84572093594	0
2	23790	9434.330318894924	1
2	23791	9434.465822913465	0
2	23825	9446.41640880648	1
2	23826	9446.539649450712	0
2	23832	9447.107879661721	1
2	23833	9447.291886988681	0
2	23837	9447.90750284301	1
2	23838	9448.157065514501	0
2	23842	9448.836314936174	1
2	23843	9448.84137950328	0
2	23850	9449.427100002182	1
2	23852	9449.462028095326	2
2	23853	9450.255926787414	1
2	23856	9450.75611426018	0
2	23860	9450.833231691068	1
2	23861	9451.36723586533	0
2	23912	9475.379605488805	1
2	23913	9475.687131097249	0
2	23920	9476.366725744443	1
2	23921	9477.025821165403	0
2	23955	9499.377764177416	1
2	23956	9499.547128500457	0
2	23970	9501.444301056608	1
2	23971	9501.519259997249	0
2	24000	9517.041093248956	1
2	24001	9517.067904874001	0
2	24005	9517.115205264698	1
2	24006	9517.72073905954	0
2	24010	9518.011275499727	1
2	24011	9518.197324305837	0
2	24015	9518.618888624198	1
2	24016	9518.782361232321	0
2	24075	9553.579879681968	1
2	24076	9553.816648731625	0
2	24105	9572.280054409065	1
2	24106	9573.114993284814	0
2	24130	9575.737892310861	1
2	24131	9576.613116404307	0
2	24140	9579.982046289316	1
2	24141	9580.61884784927	0
2	24180	9600.483920001799	1
2	24181	9601.273289384352	0
2	24230	9614.409276121058	1
2	24231	9614.825568643688	0
2	24235	9615.295831908103	1
2	24236	9615.556304946971	0
2	24285	9637.842786724615	1
2	24286	9637.932484773082	0
2	24310	9644.660488653153	1
2	24311	9645.168608373896	0
2	24460	9722.197995537227	1
2	24461	9722.255397742354	0
2	24465	9722.32470177456	1
2	24468	9723.245993835126	0
2	24555	9770.236157980314	1
2	24556	9770.784382382477	0
2	24640	9815.205346825855	1
2	24641	9815.583247549694	0
2	24655	9818.308901222257	1
2	24656	9819.145522654532	0
2	24690	9827.711529723993	1
2	24691	9827.72395014224	0
2	24817	9869.420001559824	1
2	24818	9869.671970409313	0
2	24825	9870.439580497109	1
2	24826	9871.09427571075	0
2	24925	9897.887898684178	1
2	24926	9898.656287309389	0
2	24930	9898.960416259752	1
2	24931	9899.500443071547	0
2	25055	9940.943668841669	1
2	25056	9941.625278968582	0
2	25165	10006.615453673615	1
2	25166	10007.292585397508	0
2	25205	10015.21023865756	1
2	25206	10015.585584680331	0
2	25215	10015.99923193214	1
2	25216	10016.537516687498	0
2	25220	10016.643451538648	1
2	25221	10017.296735723423	0
2	25242	10024.948209645026	1
2	25244	10025.113671528854	2
2	25245	10025.407851966858	1
2	25249	10025.918315089542	2
2	25250	10026.117508076333	1
2	25254	10026.218443040116	2
2	25255	10026.829495455293	1
2	25259	10027.042255306591	2
2	25260	10027.505062610997	1
2	25263	10028.430317712963	0
2	25357	10063.23925344512	1
2	25358	10063.369585720046	0
2	25362	10063.379286773097	1
2	25363	10064.104968476311	0
2	25450	10087.223378335073	1
2	25451	10087.298572384597	0
2	25530	10113.869208247043	1
2	25531	10114.040942891248	0
2	25595	10148.776953783837	1
2	25597	10148.836927422921	2
2	25600	10149.307730927656	1
2	25604	10149.667319787431	2
2	25605	10149.870339624549	1
2	25609	10149.949001556443	2
2	25610	10150.605332684342	1
2	25615	10151.218329059018	0
2	25619	10151.22095984384	1
2	25621	10151.495684952736	2
2	25622	10152.046844050719	1
2	25625	10152.457192190935	0
2	25629	10152.789830811616	1
2	25630	10153.246829052747	0
2	25637	10153.882056221975	1
2	25638	10154.596573188354	0
2	25642	10154.706954039636	1
2	25643	10155.471448353224	0
2	25647	10155.63352296546	1
2	25648	10156.095972155652	0
2	25657	10156.910956979533	1
2	25658	10157.488571906474	0
2	25665	10158.581750644094	1
2	25666	10158.935901880649	0
2	25690	10171.470581672184	1
2	25691	10171.766091660937	0
2	25710	10175.019051068891	1
2	25711	10175.565233135902	0
2	25715	10175.649012319622	1
2	25716	10176.129977024979	0
2	25725	10176.886135507725	1
2	25726	10177.407115830439	0
2	25730	10177.488177586193	1
2	25731	10178.340148009737	0
2	25735	10178.77392973159	1
2	25736	10179.2014780385	0
2	25742	10179.693442112709	1
2	25743	10179.744216300412	0
2	25785	10187.956394375111	1
2	25786	10188.411090926435	0
2	25895	10238.407613762476	1
2	25896	10239.209661841431	0
2	25905	10240.639692251518	1
2	25906	10240.847895479753	0
2	25945	10260.408148660109	1
2	25946	10260.63194728534	0
2	25975	10269.414059355879	1
2	25976	10270.066959208212	0
2	26060	10316.702094345487	1
2	26061	10317.361853763575	0
2	26109	10331.104845025489	1
2	26110	10331.11329343756	0
2	26117	10332.639961381451	1
2	26118	10332.850821840337	0
2	26210	10357.670822655287	1
2	26212	10357.673593715567	2
2	26213	10358.284802814362	1
2	26216	10358.746291663939	0
2	26225	10359.623523545249	1
2	26226	10360.353276253095	0
2	26260	10372.23221731686	1
2	26261	10372.55817283838	0
2	26275	10376.200613009932	1
2	26276	10376.306950653812	0
2	26295	10379.536812357334	1
2	26296	10379.713100630373	0
2	26485	10471.15988963863	1
2	26486	10471.358674883742	0
2	26495	10471.999160928011	1
2	26496	10472.328866506387	0
2	26510	10474.511742270731	1
2	26511	10474.535047285582	0
2	26525	10481.528014261289	1
2	26527	10481.852425875257	2
2	26528	10481.97195909662	1
2	26531	10482.566378672429	0
2	26540	10483.260285971314	1
2	26541	10484.226469080378	0
2	26685	10583.162545516796	1
2	26686	10583.879424093685	0
2	26815	10645.743549750661	1
2	26816	10645.836292581535	0
2	26900	10692.657235055458	1
2	26901	10693.275820441482	0
2	27070	10746.890170726052	1
2	27071	10747.087723673949	0
2	27085	10749.133709222954	1
2	27086	10749.664043708499	0
2	27100	10751.520647091996	1
2	27101	10751.89307038057	0
2	27170	10797.935164905039	1
2	27171	10798.196539887164	0
2	27185	10799.766115140461	1
2	27186	10800.409686248716	0
2	27195	10801.64281996419	1
2	27198	10802.01279697941	0
2	27270	10815.797846692518	1
2	27271	10815.807898839371	0
2	27280	10816.599434901543	1
2	27281	10817.22682311674	0
2	27470	10911.287053839685	1
2	27471	10911.844748294601	0
2	27530	10925.403629150051	1
2	27531	10925.808731878494	0
2	27550	10933.777288658042	1
2	27553	10934.336630149125	0
2	27560	10935.464535352396	1
2	27561	10935.708707713601	0
2	27570	10936.469558038675	1
2	27572	10936.501962217382	2
2	27573	10936.666214226312	1
2	27577	10937.014143634374	2
2	27578	10937.402486871495	1
2	27583	10938.314622046133	0
2	27595	10946.757340198901	1
2	27596	10947.164498351793	0
2	27605	10948.699749531003	1
2	27606	10949.126831139872	0
2	27625	10970.19145767714	1
2	27626	10970.257956100895	0
2	27630	10970.73612234391	1
2	27631	10970.826628896722	0
2	27635	10970.921742104958	1
2	27636	10971.756791571143	0
2	27642	10972.091119106416	1
2	27643	10972.723072004911	0
2	27660	10975.173581096483	1
2	27661	10975.605784909669	0
2	27680	10987.608266681656	1
2	27681	10988.070652159181	0
2	27685	10988.806008910859	1
2	27686	10988.932324683544	0
2	27690	10989.326321218958	1
2	27693	10989.831274805981	0
2	27697	10989.989587969132	1
2	27698	10990.666796677997	0
2	27760	11009.98947627466	1
2	27761	11010.534212237618	0
2	27810	11018.932999442935	1
2	27811	11019.213719014691	0
2	27820	11019.910308201955	1
2	27821	11020.578794513557	0
2	27860	11056.887584059737	1
2	27863	11057.508639175244	0
2	27870	11057.937895867564	1
2	27871	11058.892543443604	0
2	27875	11058.990801915967	1
2	27876	11059.599001084207	0
2	27880	11059.767797065001	1
2	27885	11060.569572013043	0
2	27905	11064.173194818895	1
2	27906	11064.792433599181	0
2	27952	11071.100684445674	1
2	27953	11071.290257664823	0
2	28005	11084.856468295196	1
2	28006	11085.733328993762	0
2	28015	11087.112871185473	1
2	28016	11087.657239523456	0
2	28050	11104.071785484574	1
2	28051	11104.24228325289	0
2	28070	11107.872153670405	1
2	28071	11108.28913622954	0
2	28095	11116.879539027514	1
2	28097	11116.910671509824	2
2	28100	11117.181194069958	1
2	28105	11117.906186984922	0
2	28114	11118.611592087537	1
2	28115	11118.909381343541	0
2	28127	11121.025600083269	1
2	28128	11121.464952924219	0
2	28137	11121.987292953125	1
2	28140	11122.68170045379	0
2	28149	11124.047102480244	1
2	28150	11124.21800112545	0
2	28157	11124.87382953761	1
2	28158	11125.170349422772	0
2	28165	11126.058634725549	1
2	28168	11126.856585945212	0
2	28175	11127.709288728068	1
2	28177	11127.823299498422	2
2	28180	11128.286212367866	1
2	28183	11128.917240069084	0
2	28190	11130.047298091761	1
2	28191	11130.429493156796	0
2	28200	11132.483636876863	1
2	28201	11133.065333944953	0
2	28205	11133.293582501726	1
[...]
6	63705	25333.71678321775	1.471495243702
6	63720	25365.19302441129	0.939382858714
6	63730	25369.083281114077	2.154793985783
6	63740	25371.519314083582	1.118917807564
6	63760	25379.598289981469	0.437054101157
6	63765	25381.0129162548	0.825947880885
6	63830	25404.608129671957	6.780238945318
6	63867	25424.541480592469	1.323850013892
6	63870	25425.176467484253	0.878093751303
6	63880	25428.194328537404	2.094867014135
6	63890	25431.385386798957	2.058742367965
6	63916	25436.593650534331	1.616093023487
6	63929	25439.201017196616	4.630946504285
6	63975	25469.600270261487	1.698091776528
6	64105	25526.672728006994	1.90581596
6	64115	25532.997728663183	1.487749388952
6	64196	25562.582854382093	0.935795451473
6	64215	25565.643000058974	6.563839041262
6	64242	25572.747525182223	1.78618956272
6	64290	25595.577405403217	0.639114642143
6	64295	25602.87944550435	0.490042266669
6	64359	25624.653831479268	0.696340897745
6	64372	25626.241277853482	7.123282759306
6	64375	25627.235112367886	1.518435571316
6	64380	25629.503242906804	0.414200747618
6	64410	25654.369598856861	0.949248114135
6	64425	25657.485005492286	2.695151270455
6	64430	25661.608197704388	0.905530192191
6	64459	25665.72883192826	3.249980675197
6	64500	25678.252354504938	4.08197376555
6	64505	25679.34221977942	0.708849315671
6	64520	25690.461711287799	2.289993776707
6	64529	25691.37419725356	0.865350730065
6	64541	25692.786444431146	0.958664801203
6	64561	25695.463704321927	1.004594258816
6	64631	25711.291582847728	1.716474614271
6	64655	25715.612750865657	8.83446928069
6	64674	25718.892806619343	1.887726304773
6	64730	25738.863086787699	3.136755329822
6	64752	25755.620861005923	1.444417046882
6	64757	25756.375622975594	1.438022818982
6	64767	25758.304028540749	2.673913153422
6	64775	25759.363878462052	1.37825449716
6	64785	25763.092552138954	1.26989519901
6	64790	25766.633686344932	0.411283658957
6	64795	25767.212447708289	0.533533804724
6	64815	25788.390041413404	1.806629642165
6	64830	25800.289410428879	2.831497413706
6	64862	25809.3135724834	2.114892960386
6	64887	25813.036431538394	2.910472607308
6	64912	25818.261118038299	2.992170738708
6	64915	25818.758381246377	0.501253026841
6	64972	25846.470360553929	0.63229507192
6	65034	25855.654391844983	3.244888807007
6	65082	25862.799831480153	14.396568373736
6	65090	25864.537122234428	11.113578131606
6	65112	25867.93633631834	1.60151662894
6	65130	25870.275423542355	2.189776143765
6	65172	25878.575156119403	3.379723170041
6	65195	25883.631875664342	1.623591432065
6	65200	25898.176630590928	0.94675876908
6	65220	25908.281616793277	0.861848514853
6	65257	25940.850835404981	1.941125582653
6	65277	25947.3013380174	0.565817391686
6	65300	25952.884140053942	0.581912537431
6	65310	25966.623200266553	0.497034564288
6	65362	25980.023528657033	7.357299295919
6	65365	25980.6465554394	3.19342837098
6	65380	25987.830497904203	0.840568754077
6	65420	26000.504986161796	1.509455774534
6	65425	26006.035875268457	0.444067055313
6	65480	26018.485896980572	3.969093247186
6	65497	26025.227202677947	0.899020146253
6	65507	26026.832116763888	0.465691733221
6	65532	26039.751926127519	0.447078471677
6	65545	26042.854832794809	2.249610027505
6	65550	26044.073185600569	0.441323139565
6	65564	26050.272170357249	1.589133538009
6	65605	26065.267794726267	1.972295990119
6	65615	26067.381244450796	1.763590807193
6	65625	26075.912858760807	0.998759648344
6	65657	26082.93379493301	2.009372128453
6	65687	26090.707093032505	0.939134975662
6	65730	26097.866839571461	11.233379851594
6	65750	26102.27236446328	6.361316695629
6	65770	26115.29616618189	4.227984768646
6	65777	26118.842385192532	0.458073301008
6	65802	26133.00012829317	3.723818255928
6	65871	26157.396595456506	2.961431898233
6	65876	26158.375711416135	1.252041348998
6	65879	26158.961878430898	1.14133425335
6	65925	26173.016869248687	2.182265013141
6	65930	26182.687717449612	0.693458078243
6	65937	26184.100269735318	0.910923651839
6	65945	26188.323229752242	0.633024012391
6	65962	26196.928448579644	0.949151984982
6	65985	26201.733788434767	0.938799578138
6	66005	26207.88730549253	4.524880313258
6	66010	26212.479646330597	0.819486256922
6	66032	26234.358411429632	1.502725956818
6	66035	26234.836781459298	2.327221355215
6	66040	26237.428220918628	0.719535442302
6	66080	26259.092357064412	0.43279551575
6	66090	26271.080915038699	0.557829530863
6	66104	26281.985705004735	0.712676176103
6	66109	26282.877710583909	1.43393346043
6	66150	26290.114323340797	5.540577619012
6	66175	26294.446217498005	3.832978685081
6	66202	26299.556096464611	4.833341004552
6	66310	26328.118582656363	2.003890645456
6	66347	26336.954095942211	1.261513524463
6	66350	26337.529509043517	4.026070451584
6	66355	26341.670549180256	0.947057556966
6	66400	26363.353796726497	2.097113847405
6	66405	26364.459596860662	0.869019685779
6	66437	26377.934271451853	1.140286180989
6	66470	26385.375973581997	4.469530318493
6	66490	26396.987172890697	2.334484545231
6	66495	26399.549283334295	0.98224947392
6	66527	26404.585438775068	0.96880736813
6	66580	26416.220332197579	1.176700968498
6	66640	26442.16273213062	1.897603510547
6	66680	26460.947645699443	6.24311079774
6	66832	26506.388097651599	8.903147835869
6	66860	26514.461903682166	3.079621349548
6	66884	26533.567134631023	1.053537167051
6	66889	26534.309866419545	2.288696947088
6	66943	26548.854412740003	1.153422426496
6	66997	26571.81889947206	1.521104364862
6	67005	26573.697216851923	2.112715814903
6	67060	26591.461309002865	1.789595373301
6	67067	26592.5420140275	0.967154534813
6	67110	26611.771134062506	0.978982957825
6	67212	26640.645319967947	0.729542974662
6	67235	26644.763774894232	2.303511723597
6	67247	26652.504327149154	0.723662846629
6	67272	26656.247669002062	1.704814640646
6	67317	26677.643368140533	0.529491648264
6	67337	26683.963562834777	0.895185988981
6	67340	26684.858190185253	2.311573281605
6	67412	26711.441892522113	4.547764231954
6	67415	26712.257572870008	5.856892836636
6	67430	26720.07687693791	0.881950197462
6	67460	26735.512509201191	1.166766453764
6	67467	26740.440167076097	0.781793488935
6	67511	26745.667743962167	5.793644588633
6	67514	26746.610868357031	2.950226923978
6	67560	26769.154248138004	1.267805028143
6	67585	26777.765323909643	0.847263605054
6	67602	26783.504573541537	2.565929040365
6	67620	26793.273868900033	0.782791767595
6	67655	26806.031768066602	0.579821403464
6	67691	26816.623896311556	1.641288303479
6	67694	26817.167408351653	1.449588482195
6	67700	26818.935148484545	5.667536026515
6	67705	26819.648193284454	7.218185394877
6	67727	26828.694851281371	2.149113972662
6	67730	26829.164040684437	3.113684873282
6	67745	26833.580496304469	2.639473414795
6	67807	26874.742557700392	1.525000099791
6	67842	26880.827352984384	0.844938562014
6	67847	26881.654907801695	8.300444916555
6	67880	26892.934202801839	0.71118968574
6	67922	26911.689915794254	3.524227458786
6	67925	26912.221153495068	0.665576305886
6	67935	26921.869915455207	0.749415754341
6	67962	26936.538724361543	3.219688709854
6	67972	26938.939488812437	0.786378780706
6	67995	26942.912214625394	3.784682280476
6	68007	26946.614938364558	0.453068017773
6	68017	26948.465212855671	3.205806162523
6	68025	26951.616901629139	0.485763581563
6	68060	26980.503519514785	1.730388142362
6	68067	26983.088911947498	0.485712890187
6	68120	27001.532000444559	1.774361648876
6	68137	27005.782524627271	2.074185818674
6	68240	27038.416546758579	6.706520203515
6	68265	27057.699757092558	1.600865960495
6	68314	27070.182641229674	5.622327112198
6	68317	27070.667153401894	5.600379400938
6	68327	27072.383532037582	4.490830690805
6	68340	27085.225619535102	0.45988398334
6	68360	27089.625766574866	1.990707929107
6	68365	27090.900255154275	0.959043172654
6	68395	27106.406561848249	0.985600267723
6	68405	27119.669767238489	0.647713963641
6	68435	27134.044656603766	1.479980125297
6	68475	27157.88208442117	0.917178683123
6	68509	27166.014936056083	2.797474453513
6	68535	27170.680962175854	1.361975173705
6	68564	27180.263892341773	2.860851805778
6	68585	27184.987658502633	0.755404401757
6	68655	27232.616767922215	4.034024564143
6	68685	27239.256627878201	4.927974578912
6	68705	27246.555693996822	2.847758442288
6	68725	27267.342174482533	3.096004824466
6	68760	27279.663024040965	3.00302954889
6	68763	27280.585023016624	3.332114342545
6	68769	27281.999509605581	3.948406572645
6	68814	27287.908719907005	1.954465655432
6	68822	27289.579979934034	10.401434276807
6	68872	27301.284752440595	3.692542134481
6	68880	27302.79113554084	1.408615188783
6	68935	27325.855786939988	2.915636454125
6	68960	27337.591545185876	0.633414026815
6	68995	27358.841543944362	0.529867308401
6	69007	27360.25587976185	0.880969893318
6	69020	27365.057807918285	0.740804474941
6	69040	27376.623622001535	0.986839550787
6	69110	27416.32119570615	2.099593696603
6	69142	27434.483968728589	1.586521703744
6	69165	27442.278384131851	2.017559421542
6	69175	27448.698177074458	2.144131994124
6	69187	27451.053946074187	0.938714156625
6	69195	27452.805605143409	3.390480849764
6	69231	27471.232380096805	3.3198059696
6	69259	27475.362722485516	7.620262806882
6	69264	27476.140023624575	6.522245019756
6	69267	27476.922695873775	10.064669864764
6	69292	27490.476032257934	1.068777155118
6	69304	27492.210914464124	4.384878937387
6	69335	27502.578870548052	2.706324873409
6	69345	27505.66877161205	1.482450576735
6	69350	27507.242912914308	0.706532534305
6	69355	27524.34696646065	0.476742497366
6	69440	27583.717531203294	0.754860019917
6	69450	27586.418944584042	1.738152326823
6	69455	27587.543268418636	0.925987365702
6	69460	27589.345620743555	0.929567995714
6	69475	27593.409128222996	1.925933002954
6	69485	27596.463696901487	2.483445457443
6	69490	27600.624676116156	0.865719936974
6	69620	27642.276551317631	2.770301222398
6	69652	27666.338347668677	1.127291385587
6	69745	27713.651184380717	0.756035832036
6	69772	27726.356055550035	1.096203794918
6	69785	27730.473018579371	0.968820689106
6	69817	27744.914737309373	0.761720697548
6	69830	27747.457278243863	5.281255453974
6	69837	27750.260384057144	0.989930129191
6	69850	27760.781175717264	0.525086684199
6	69867	27763.432350942774	1.227542373827
6	69870	27764.158211149743	2.96626991873
6	69950	27799.96762013686	0.406696000276
6	69955	27802.745663165964	0.583390678931
6	69970	27815.984159019996	0.980231123511
6	69980	27819.569339136199	1.890245012119
6	69992	27831.497466667168	1.44586067312
6	70004	27832.825266090254	0.741464621574
6	70030	27837.873944569224	3.504603361226
6	70112	27866.326008034379	5.382747792437
6	70132	27869.072009379625	2.108305273973
6	70139	27869.865227736182	8.544923903148
6	70142	27870.502655852794	1.32642911994
6	70160	27880.867151353933	0.7633094016
6	70195	27897.329242713294	2.620731155802
6	70226	27901.151143664851	3.073632517185
6	70231	27901.732438897186	1.134343232105
6	70257	27906.21350660574	2.668010908331
6	70317	27926.877900448514	1.714985997981
6	70359	27937.483037760613	2.802133935261
6	70362	27938.088756647186	5.085615243065
6	70385	27947.771769029413	1.232152250398
6	70405	27951.957311494775	4.15710049335
6	70422	27965.810762436	0.984494217997
6	70425	27966.399715732421	1.119571478296
6	70437	27973.70862181172	0.655193595242
6	70449	27974.79832287579	0.99755968234
6	70470	27978.163572436969	5.685617288374
6	70537	28016.296895525691	2.929594013849
6	70545	28017.775762069603	1.749829659567
6	70560	28022.63693161474	0.967758242522
6	70575	28033.428698229105	0.416479837801
6	70580	28034.913566399092	0.86291472381
6	70605	28052.29041413326	2.013607156716
6	70622	28058.32011924424	1.841870113051
6	70625	28058.861563643448	3.887099126061
6	70635	28060.841282143369	1.16922097203
6	70650	28062.795430755403	1.898046180412
6	70660	28066.66438846453	2.179905701014
6	70665	28069.168286380391	0.955852372386
6	70685	28079.082940719587	1.083768472685
6	70692	28080.021847870758	0.842292373441
6	70725	28103.017332471706	0.764553340152
6	70767	28114.610988736915	3.340385237949
6	70837	28139.574545868408	1.759644469313
6	70890	28166.778937527843	1.755787136966
6	70895	28175.69040071878	0.464153551171
6	70905	28178.345756464126	1.279694719244
6	70910	28192.453037960438	0.922794415336
6	70957	28202.210223285103	5.999902390153
6	70990	28209.265465100956	0.537751469994
6	71082	28265.949007535199	0.761702922918
6	71130	28279.669165753997	0.808554258337
6	71135	28287.635989878442	0.56904982347
6	71170	28301.291524388787	2.332607012149
6	71215	28328.598066767687	1.382037156209
6	71240	28335.978385333279	0.976716456981
6	71250	28340.409906698925	1.476187734643
6	71287	28357.185053656781	6.083200056561
6	71332	28366.923633670705	4.842085347371
6	71335	28367.882746015573	3.728141514035
6	71352	28383.02700116128	1.035773384134
6	71355	28383.471544044803	1.171553378204
6	71419	28396.011767641973	1.13979794597
6	71422	28396.737311482249	9.849081917157
6	71440	28405.408167853346	0.467139647482
6	71470	28412.779053905743	3.482859569301
6	71480	28423.639678511841	2.075878241005
6	71490	28426.222406168596	1.836723706939
6	71515	28435.193913281485	3.547150390782
6	71525	28443.683083537036	0.592117373366
6	71575	28468.028525242231	0.707609321922
6	71610	28486.57340379425	1.979120905444
6	71642	28498.486126786368	3.249937363494
6	71713	28513.356671097657	5.667839162631
6	71729	28516.169138119572	6.510222788555
6	71761	28520.495002988043	2.563526723557
6	71764	28521.162329146514	1.546146487991
6	71767	28521.9478858011	5.480414193857
6	71864	28539.646436707618	6.769514338208
6	71888	28542.238641936414	1.36076051325
6	71896	28543.444841616729	7.342511819008
6	71899	28544.266733384168	8.157536121475
6	71935	28552.319951769884	0.933418695942
6	71945	28562.125796151344	2.1177478525
6	72015	28582.577643591598	0.864231145149
6	72020	28606.939487387084	0.440962541429
6	72032	28610.236472835082	1.656160011499
6	72045	28613.128552608218	0.835707204556
6	72050	28614.439090041725	0.582424775511
6	72065	28619.211269710931	2.73621640386
6	72095	28631.057820342766	0.410488222074
6	72105	28639.98991160632	1.358640032865
6	72130	28644.938503621187	2.718199967458
6	72165	28664.117902015615	0.953044451532
6	72185	28671.045095822973	2.85062739215
6	72220	28703.594553597198	0.55633194698
6	72225	28704.399556511067	0.554402322927
6	72365	28753.629294788321	5.746972570623
6	72402	28764.310130320148	2.016851211732
6	72405	28764.95458353151	0.688442238658
6	72454	28782.559378113722	1.45407087554
6	72489	28792.533267871131	0.915951759717
6	72500	28794.75457536823	0.95015889759
6	72542	28805.991255567611	0.637925624126
6	72545	28806.680473785025	6.753337347092
6	72555	28814.073882683871	1.677675890118
6	72570	28816.521662972612	2.244040164826
6	72575	28817.306545637169	0.59000260313
6	72580	28821.853470030117	0.569750123518
6	72597	28830.411614415275	1.208393215257
6	72614	28832.736832669417	1.994085187183
6	72617	28833.163518375664	3.260157344958
6	72627	28834.322295499487	6.169642403439
6	72669	28854.946778486634	1.175530353257
6	72745	28885.346311311891	7.001373197766
6	72769	28890.616324446777	0.947070521709
6	72782	28893.312727030192	0.700298900204
6	72800	28906.64961540887	4.009668912523
6	72805	28930.896917038538	0.85087266257
6	72815	28936.580827598128	0.587994152926
6	72825	28942.742353381126	1.42414208045
6	72861	28948.596595988884	3.199322543293
6	72869	28950.08880403386	3.9899967733
6	72877	28951.155573142642	6.418522088263
6	72900	28956.539170346785	10.17094397929
6	72920	28981.389291053272	0.783630470885
6	72935	28990.909441287266	0.479870641232
6	72970	29000.28402867028	0.919432640286
6	73000	29006.322234403191	7.444449221895
6	73027	29024.543833382525	3.00127166654
6	73030	29025.047796159475	3.287802310396
6	73080	29050.637620543078	0.6057533429
6	73102	29055.849636469768	0.501790429119
6	73115	29058.074206403003	5.220495239567
6	73237	29086.173212218593	0.486110997759
6	73304	29097.471274495511	2.033880101794
6	73307	29097.89419750256	8.483040043505
6	73339	29106.95106443003	2.463115029012
6	73387	29118.442373391372	0.450683096144
6	73422	29131.166725169014	1.621074640662
6	73427	29132.019468246432	1.328100460601
6	73435	29134.207899115761	2.25167048782
6	73524	29147.003709407491	6.421162235067
6	73537	29149.014548657616	11.690805173837
6	73552	29151.297513198261	1.530122779252
6	73597	29159.208865900268	1.24082035779
6	73600	29159.766548927338	1.96037414996
6	73610	29168.577568912953	0.71180481608
6	73664	29186.260062447504	6.286162901116
6	73706	29196.722813632666	1.851944828101
6	73724	29199.720248670924	1.013213779095
6	73780	29237.29132820218	0.459639252443
6	73840	29259.50221860065	1.949119642085
6	73875	29279.381417540478	0.641761986911
6	73924	29298.374357334548	3.997963472728
6	73954	29312.567431122669	0.486593855033
6	73965	29314.193318534548	1.93993549436
6	73970	29319.479743240966	0.463411585661
6	73975	29331.359315196682	0.870046037389
6	73985	29334.652177430906	1.853563441606
6	74005	29355.328785964712	1.317824547198
6	74022	29376.081475555383	0.753502021544
6	74045	29380.111390627788	6.054476499033
6	74057	29384.483641718299	1.815810406552
6	74060	29384.910036259721	0.691943019579
6	74102	29407.166955178426	3.066102265772
6	74135	29431.635098792975	0.772339008605
6	74145	29440.070798365786	0.755641818745
6	74160	29448.688977977548	3.52185183758
6	74165	29450.57296207666	0.874753713887
6	74182	29455.954077284046	1.349018030795
6	74230	29464.927694757488	9.493637902833
6	74249	29470.318108371758	0.611783489399
6	74252	29471.134813080981	1.01474159468
6	74282	29481.575948540414	0.90933022229
6	74295	29488.041306308879	0.992028732551
6	74300	29489.108241472183	0.82868125597
6	74307	29490.801183685916	0.916000780137
6	74352	29502.572992815235	4.111615022504
6	74372	29505.792439126015	0.969851589568
6	74450	29529.937847071415	1.242549095827
6	74500	29551.060826022766	1.371783762279
6	74553	29558.048375793532	2.738128503378
6	74615	29576.083076655776	0.635434901994
6	74700	29597.883629489079	12.053148967891
6	74707	29603.314835198952	0.489563669637
6	74715	29613.377236135232	0.836723436136
6	74720	29616.246975992533	0.735833911225
6	74735	29624.358986435315	2.870332971663
6	74790	29668.663311383247	0.964569205511
6	74805	29673.374392069824	0.426351228775
6	74810	29678.194170627777	0.530431526294
6	74832	29682.317948705106	1.446897109496
6	74879	29689.335940345216	4.614482821618
6	74882	29689.82459220656	2.350202932927
6	74904	29696.030663770778	1.511445915425
6	74945	29703.961725103466	0.777093185578
6	74967	29720.341940117474	1.315401704243
6	74975	29721.912173929845	0.840124687692
6	74980	29739.581091380891	0.931599711487
6	75005	29751.608458473685	2.386924432023
6	75020	29754.863132301387	2.715359197981
6	75052	29778.490973262864	2.831727407879
6	75070	29787.081485284572	2.936546537747
6	75087	29794.713162469161	0.450599791761
6	75110	29798.401079453757	4.051289187723
6	75130	29811.116667010084	0.694027009979
6	75150	29826.448498417281	1.295168776585
6	75182	29839.78794504617	1.81201243837
6	75195	29841.646152557373	2.148319805521
6	75222	29858.112276541953	0.890394861531
6	75237	29861.635801160395	0.60007113493
6	75252	29864.219300821544	3.131574893441
6	75276	29867.556400598236	2.282979598129
6	75284	29869.160351896076	1.942741949884
6	75295	29870.666368977842	4.612179603819
6	75310	29879.642352507446	2.081877874177
6	75349	29888.833973617337	1.253098126192
6	75354	29889.641102375041	2.652669002488
6	75357	29890.548870504366	5.771650261553
6	75360	29891.340327576918	2.154889859422
6	75377	29897.491766175147	1.347566891391
6	75392	29899.214156707919	4.910994938414
6	75395	29900.128051660753	1.244314244883
6	75420	29908.838323839196	0.774416942901
6	75425	29909.662134130019	2.341036389766
6	75440	29913.656667994383	0.685121333553
6	75452	29918.755964647441	2.954324903361
6	75532	29931.655247360909	2.02661262995
6	75585	29945.410302071063	2.293832398204
6	75595	29951.254313957861	0.411400596844
6	75610	29955.880040642306	1.670440586827
6	75640	29964.657908321637	4.323913925054
6	75652	29972.91131824563	0.924043025961
6	75680	29985.024261843739	1.327900360922
6	75700	29989.673993889907	0.514470553864

