version 2
run First_exit_8-8-20191114-11:42:28-8870
attr configname First_exit_8
attr datetime 20191114-11:42:28
attr experiment First_exit_8
attr inifile omnetpp.ini
attr iterationvars ""
attr iterationvarsf ""
attr measurement ""
attr network ResponseTimeNetwork
attr processid 8870
attr repetition 8
attr replication #8
attr resultdir results
attr runnumber 8
attr seedset 8
param **.Source.interArrivalTime exponential(4s)
param **.jobPriority bernoulli(0.4)
param **.PS.serviceTimeU1 "uniform(0.4s, 1.0s)"
param **.PS.serviceTimeU2 "uniform(1s, 1.2s)"
param **.SS1.serviceTime exponential(0.4s)
param **.SS2.serviceTime exponential(0.8s)
param **.PS.exitProbability bernoulli(0.8)

vector 0 ResponseTimeNetwork.QueueU2 queueLength:vector ETV
attr interpolationmode sample-hold
attr title "queue length, vector"
vector 1 ResponseTimeNetwork.SS2 queueLength:vector ETV
attr interpolationmode sample-hold
attr title "queue length, vector"
vector 2 ResponseTimeNetwork.sink lifeTimeU2:vector ETV
attr interpolationmode none
attr title "lifetime of arrived jobs U2, vector"
attr unit s
vector 3 ResponseTimeNetwork.sink totalServiceTimeU2:vector ETV
attr interpolationmode none
attr title "the total time spent  by arrived jobs U2, vector"
attr unit s
vector 4 ResponseTimeNetwork.sink lifeTime:vector ETV
attr interpolationmode none
attr title "lifetime of arrived jobs, vector"
attr unit s
vector 5 ResponseTimeNetwork.sink totalServiceTime:vector ETV
attr interpolationmode none
attr title "the total time spent  by arrived jobs, vector"
attr unit s
vector 6 ResponseTimeNetwork.QueueU1 queueLength:vector ETV
attr interpolationmode sample-hold
attr title "queue length, vector"
vector 7 ResponseTimeNetwork.sink lifeTimeU1:vector ETV
attr interpolationmode none
attr title "lifetime of arrived jobs U1, vector"
attr unit s
vector 8 ResponseTimeNetwork.sink totalServiceTimeU1:vector ETV
attr interpolationmode none
attr title "the total time spent  by arrived jobs U1, vector"
attr unit s
vector 9 ResponseTimeNetwork.SS1 queueLength:vector ETV
attr interpolationmode sample-hold
attr title "queue length, vector"
0	61449	10000.141831911111	4
0	61453	10000.421281634594	5
0	61454	10000.689809113404	4
0	61458	10001.068800432494	5
0	61459	10001.474352824072	4
0	61463	10002.019569720852	5
0	61465	10002.18189167712	6
0	61467	10002.234996436188	7
0	61468	10002.251724183363	6
0	61472	10002.466429716364	7
0	61473	10002.891542851868	6
0	61476	10003.378890472454	5
0	61479	10004.347257004063	4
0	61483	10005.049448194096	5
0	61485	10005.232984354356	6
0	61486	10005.247172993738	5
0	61490	10005.295589079848	6
0	61491	10005.768023501513	5
0	61495	10006.010074444959	6
0	61496	10006.495816235048	5
0	61500	10006.749025574058	6
0	61501	10007.309988873442	5
0	61504	10007.759231874942	4
0	61508	10007.820067893834	5
0	61509	10008.635007638428	4
0	61513	10008.999926183752	5
0	61514	10009.598111620629	4
0	61518	10009.758884647443	5
0	61520	10010.218132586253	6
0	61521	10010.478685308005	5
0	61525	10010.67746790902	6
0	61526	10011.43666765484	5
0	61529	10012.266230578618	4
0	61533	10012.394667646075	5
0	61534	10012.80420958641	4
0	61538	10013.278414729258	5
0	61539	10013.302398081999	4
0	61542	10014.284376598326	3
0	61546	10014.531443804951	4
0	61547	10014.985391707709	3
0	61551	10015.540924088414	4
0	61552	10015.86130958748	3
0	61556	10016.008616049994	4
0	61557	10016.508531500715	3
0	61560	10017.190834532621	2
0	61564	10017.515564183452	3
0	61565	10018.019333125407	2
0	61574	10019.075087263503	3
0	61575	10019.27625935491	2
0	61581	10019.412109985537	3
0	61585	10020.73615022552	2
0	61588	10021.567123809073	1
0	61592	10022.019000952335	2
0	61593	10022.088391489617	1
0	61602	10022.672678182252	2
0	61603	10023.069944999821	1
0	61607	10023.110520837543	2
0	61614	10024.22199406023	3
0	61616	10024.604928441575	4
0	61617	10025.004919862177	3
0	61626	10026.002079183648	4
0	61627	10026.682947164157	3
0	61638	10027.519921862033	4
0	61652	10030.090252587701	3
0	61660	10031.361047077634	2
0	61668	10032.735896294274	1
0	61672	10032.770436731274	2
0	61698	10036.64901658817	1
0	61701	10037.331892936945	0
0	61705	10037.372654072949	1
0	61706	10037.761864385836	0
0	61712	10038.063569164421	1
0	61716	10038.580293904606	0
0	61725	10039.536518150511	1
0	61726	10040.015789533395	0
0	61750	10043.638389562363	1
0	61751	10044.387498324419	0
0	61780	10048.640454853367	1
0	61781	10048.894509366711	0
0	61870	10087.320238084887	1
0	61871	10087.891045540396	0
0	61875	10088.00117961503	1
0	61877	10088.084955565425	2
0	61878	10088.800856139615	1
0	61882	10089.48591919193	2
0	61883	10089.608330241648	1
0	61886	10090.179130594583	0
0	61895	10092.351696917969	1
0	61897	10092.6496405921	2
0	61898	10092.741313138249	1
0	61902	10092.783721179177	2
0	61903	10093.197084564128	1
0	61912	10094.378295182076	2
0	61913	10094.699744254648	1
0	61917	10094.766580469236	2
0	61924	10095.923113621098	3
0	61925	10096.302734482633	2
0	61936	10097.453605182414	3
0	61961	10100.411057010491	4
0	61987	10104.192365163211	3
0	61996	10104.882383884369	4
0	61997	10105.61113780315	3
0	62005	10107.068289088383	2
0	62009	10107.232123769492	3
0	62010	10107.565964750498	2
0	62013	10108.19579262712	1
0	62017	10108.373804700825	2
0	62019	10108.502861873984	3
0	62020	10108.724777577882	2
0	62023	10109.25042721291	1
0	62026	10110.092621340248	0
0	62030	10110.285098810035	1
0	62031	10110.768823792943	0
0	62035	10110.855016415321	1
0	62036	10111.355281929503	0
0	62040	10111.370447964016	1
0	62041	10111.837700875633	0
0	62045	10111.942221297577	1
0	62046	10112.577596797951	0
0	62060	10115.225639526025	1
0	62067	10115.994629808443	2
0	62091	10118.742571898891	3
0	62095	10120.27867993017	2
0	62113	10122.425177585784	1
0	62122	10123.123125297616	2
0	62123	10123.935463934796	1
0	62126	10124.472705680024	0
0	62137	10126.216017682191	1
0	62142	10126.331765636327	2
0	62143	10127.144536035685	1
0	62149	10127.7574387929	2
0	62154	10128.245115069884	3
0	62155	10128.454612459839	2
0	62161	10129.020374713538	3
0	62166	10129.292940784382	4
0	62167	10129.888598970687	3
0	62170	10130.637500907378	2
0	62174	10130.738843762777	3
0	62175	10131.571887966003	2
0	62178	10132.46265946486	1
0	62181	10133.008724158946	0
0	62190	10134.492835816574	1
0	62191	10134.514157443537	0
0	62197	10135.060179410803	1
0	62201	10135.930327778306	0
0	62212	10136.601082467422	1
0	62217	10137.287661687374	2
0	62223	10138.548128057175	1
0	62241	10141.663715999011	0
0	62252	10142.349441554595	1
0	62261	10144.502488773546	0
0	62277	10146.430626597961	1
0	62292	10148.870596892242	2
0	62293	10148.929916088326	1
0	62296	10149.520045449162	0
0	62305	10150.798620575005	1
0	62312	10151.555884412236	2
0	62313	10152.17744390649	1
0	62322	10153.778798268894	2
0	62323	10153.950750381511	1
0	62332	10155.134707554607	2
0	62334	10155.436011351122	3
0	62335	10155.437618554861	2
0	62383	10161.651721691632	1
0	62391	10163.471562737612	0
0	62400	10164.032760769748	1
0	62402	10164.445281130457	2
0	62403	10164.523222472649	1
0	62407	10165.199230530835	2
0	62408	10165.201925831977	1
0	62414	10165.790299111411	2
0	62429	10167.748555952475	3
0	62435	10169.550695214689	2
0	62453	10171.288359543386	3
0	62455	10171.435766663983	4
0	62487	10175.983394527566	3
0	62491	10176.247440958873	4
0	62498	10176.684777972392	5
0	62499	10177.269241301241	4
0	62508	10178.481043699732	5
0	62509	10178.970556659197	4
0	62518	10180.317787943797	5
0	62519	10180.371534314185	4
0	62525	10181.120741856573	5
0	62530	10181.34274526458	6
0	62531	10181.988842365837	5
0	62540	10182.479922460395	6
0	62542	10182.642876234481	7
0	62543	10182.852179878384	6
0	62546	10183.792171213117	5
0	62550	10184.024910631705	6
0	62551	10184.242875273938	5
0	62555	10184.747649371767	6
0	62556	10184.856361373321	5
0	62565	10185.92844811968	6
0	62566	10186.18776953052	5
0	62569	10186.926417218561	4
0	62573	10187.454763810487	5
0	62575	10187.541783723724	6
0	62576	10187.62218366246	5
0	62580	10187.645699867196	6
0	62581	10188.232203227135	5
0	62584	10189.138941437092	4
0	62588	10189.445045733288	5
0	62595	10190.177155319363	6
0	62596	10190.68696313388	5
0	62600	10191.076758699549	6
0	62601	10191.660580362746	5
0	62605	10191.779978736267	6
0	62606	10192.243530812388	5
0	62615	10193.268695139464	6
0	62616	10193.391574355302	5
0	62619	10193.971393693745	4
0	62622	10194.938312442828	3
0	62626	10195.06720325074	4
0	62628	10195.544863552381	5
0	62629	10195.55379770812	4
0	62632	10196.478622700827	3
0	62635	10197.414794330759	2
0	62639	10198.028249651894	3
0	62640	10198.179991712322	2
0	62643	10198.783135012019	1
0	62646	10199.359268435644	0
0	62650	10200.027652572509	1
0	62651	10200.312677857926	0
0	62675	10207.11923222833	1
0	62676	10207.463614127508	0
0	62680	10207.532584122151	1
0	62682	10207.593340375581	2
0	62683	10208.156021265269	1
0	62686	10208.847993903889	0
0	62690	10209.032740175932	1
0	62692	10209.605877970664	2
0	62693	10209.729206375268	1
0	62697	10209.800831871349	2
0	62698	10210.303466606562	1
0	62702	10211.045150780491	2
0	62703	10211.267419998676	1
0	62707	10211.332290682344	2
0	62708	10211.805612786908	1
0	62712	10211.970361524905	2
0	62713	10212.48161486909	1
0	62716	10213.123430472521	0
0	62720	10213.244429739067	1
0	62721	10213.653437023751	0
0	62725	10214.022912209698	1
0	62726	10214.637764285273	0
0	62740	10216.928281824346	1
0	62742	10217.172733900224	2
0	62743	10217.180581776026	1
0	62747	10217.563283616285	2
0	62748	10218.077636049149	1
0	62751	10218.781660533204	0
0	62755	10219.026121788018	1
0	62756	10219.428262909801	0
0	62760	10219.86482988363	1
0	62761	10220.06955323333	0
0	62772	10223.350194743771	1
0	62777	10223.722125536683	2
0	62778	10223.848830727205	1
0	62787	10224.907437754357	2
0	62788	10225.256095774329	1
0	62797	10226.473474862912	2
0	62798	10227.160317837117	1
0	62801	10227.976820735816	0
0	62815	10231.708397658404	1
0	62816	10232.579305665503	0
0	62822	10232.839323752891	1
0	62826	10233.9080069118	0
0	62830	10234.107391227202	1
0	62831	10234.511178793228	0
0	62835	10235.218896093173	1
0	62837	10235.239920830254	2
0	62838	10235.297340947418	1
0	62842	10235.815309102853	2
0	62849	10236.433483133812	3
0	62850	10236.941210431588	2
0	62861	10237.884973299745	3
0	62863	10238.025507771418	4
0	62872	10239.615067345678	3
0	62875	10240.588167107553	2
0	62879	10240.678312714932	3
0	62890	10241.575664089364	4
0	62897	10242.763305696828	3
0	62916	10244.966337040205	4
0	62930	10246.424155480341	5
0	62939	10248.142104343075	4
0	62948	10249.265413898007	5
0	62949	10249.367113828269	4
0	62958	10250.156283199188	5
0	62959	10250.708289494069	4
0	62978	10253.205985834666	5
0	62982	10253.344968789853	6
0	62984	10253.440109284899	7
0	63001	10255.490954370828	8
0	63015	10257.262360500062	7
0	63026	10258.030017508526	8
0	63041	10259.951419147698	9
0	63042	10260.18623326475	8
0	63045	10261.12421038219	7
0	63048	10261.599983528939	6
0	63052	10261.780169603886	7
0	63053	10262.110634584895	6
0	63062	10262.86303713989	7
0	63063	10263.66970918	6
0	63066	10264.315591736215	5
0	63070	10264.557621654904	6
0	63071	10265.167789896888	5
0	63074	10265.624837611833	4
0	63078	10265.975560411313	5
0	63079	10266.28653461573	4
0	63083	10266.501517600594	5
0	63084	10267.26381517689	4
0	63088	10267.373810584393	5
0	63089	10268.199425965438	4
0	63095	10268.745506791928	5
0	63105	10269.576223065443	6
0	63106	10270.079584372772	5
0	63114	10271.559319564265	4
0	63118	10272.018992812138	5
0	63125	10272.46260036928	6
0	63126	10273.013803232398	5
0	63135	10274.114766628895	6
0	63136	10274.631347447943	5
0	63144	10276.221062212746	4
0	63150	10276.943972672104	5
0	63155	10277.096286515264	6
0	63157	10277.15023210323	7
0	63158	10277.464518522966	6
0	63161	10278.320509809983	5
0	63165	10278.895851248449	6
0	63166	10279.223846863519	5
0	63169	10279.800592063676	4
0	63175	10280.391182229394	5
0	63177	10280.418607166165	6
0	63182	10280.861850275139	7
0	63183	10280.949125782383	6
0	63186	10281.721643697174	5
0	63194	10283.175141763157	4
0	63197	10283.970008503255	3
0	63200	10284.777867271919	2
0	63203	10285.234861767087	1
0	63207	10285.638384499397	2
0	63209	10286.035552828437	3
0	63210	10286.195803117966	2
0	63214	10286.693671727882	3
0	63215	10287.068345658835	2
0	63218	10287.732446823204	1
0	63222	10288.004187896449	2
0	63224	10288.107319338231	3
0	63225	10288.266749293432	2
0	63229	10288.492809711421	3
0	63230	10288.733176093856	2
0	63233	10289.226188626355	1
0	63237	10289.28061594948	2
0	63239	10289.49272094648	3
0	63240	10289.743000042653	2
0	63244	10289.781086106672	3
0	63246	10290.175969477951	4
0	63247	10290.451348232972	3
0	63251	10290.607895108584	4
0	63253	10290.669806096153	5
0	63254	10290.876834423775	4
0	63257	10291.431636450607	3
0	63260	10291.957246626569	2
0	63264	10291.992586287079	3
0	63265	10292.503393464005	2
0	63268	10292.989489800418	1
0	63272	10293.414504288097	2
0	63273	10293.723732552473	1
0	63276	10294.427070247271	0
0	63280	10295.204015617484	1
0	63281	10295.393569355533	0
0	63290	10297.456201901031	1
0	63291	10298.290855450247	0
0	63295	10298.594769072888	1
0	63296	10298.755897812423	0
0	63302	10299.007090363231	1
0	63306	10300.177074149873	0
0	63312	10300.779727410516	1
0	63317	10301.347743803938	2
0	63318	10301.65691324218	1
0	63322	10301.669176811462	2
0	63323	10302.281505447224	1
0	63327	10302.290987173331	2
0	63329	10302.604842311658	3
0	63330	10303.209331984649	2
0	63334	10303.334317253121	3
0	63336	10303.900201237937	4
0	63337	10304.04872895914	3
0	63341	10304.74543565169	4
0	63342	10304.92699907014	3
0	63346	10305.513614389474	4
0	63348	10305.533844097006	5
0	63349	10305.665467277047	4
0	63352	10306.495575168281	3
0	63355	10307.394863317366	2
0	63358	10307.871372761782	1
0	63362	10307.881294065436	2
0	63363	10308.412527630916	1
0	63367	10308.481045087004	2
0	63374	10309.324939055546	3
0	63375	10309.514959648782	2
0	63381	10310.150942561513	3
0	63385	10311.10844173205	2
0	63389	10311.223392618974	3
0	63396	10312.266944553773	4
0	63397	10312.86751178733	3
0	63400	10313.605776968756	2
0	63409	10314.154603276069	3
0	63410	10314.510415067541	2
0	63413	10315.014041476481	1
0	63417	10315.114349809584	2
0	63423	10316.809427983703	1
0	63429	10317.209821820131	2
0	63433	10317.887545309139	1
0	63436	10318.508107732066	0
0	63445	10319.718872810986	1
0	63447	10319.790940625268	2
0	63448	10319.898043754993	1
0	63454	10320.389566036314	2
0	63458	10321.235921721084	1
0	63467	10321.885164282976	2
0	63469	10321.951690549735	3
0	63470	10322.452675454521	2
0	63481	10323.749999511726	3
0	63483	10324.08278890613	4
0	63487	10324.784564092167	3
0	63496	10326.31784173871	4
0	63497	10326.450898142316	3
0	63500	10326.905807027191	2
0	63503	10327.456527150719	1
0	63507	10327.476485410141	2
0	63511	10327.664396236665	3
0	63515	10328.871318792197	2
0	63524	10330.07678689047	3
0	63525	10330.442383960466	2
0	63533	10331.620142563683	1
0	63536	10332.416961806378	0
0	63540	10332.491283541246	1
0	63541	10332.979992019822	0
0	63545	10333.431099456665	1
0	63549	10333.730887326471	2
0	63554	10334.12927730827	3
0	63555	10334.524960234686	2
0	63563	10335.933171774139	1
0	63572	10336.80920566323	2
0	63573	10337.528769246926	1
0	63577	10337.772342125481	2
0	63584	10338.469985755502	3
0	63585	10338.966080341879	2
0	63593	10340.772400886724	1
0	63599	10341.095915905802	2
0	63604	10341.660785804327	3
0	63605	10341.794644437796	2
0	63614	10342.541921537917	3
0	63615	10343.01992459029	2
0	63618	10343.957469228069	1
0	63627	10345.309780014909	2
0	63628	10345.383202009575	1
0	63634	10345.711390391279	2
0	63641	10346.790883998349	3
0	63653	10347.834442853184	4
0	63658	10348.636826081169	5
0	63684	10353.177570338289	4
0	63695	10354.73126997606	5
0	63700	10355.414723323655	6
0	63701	10356.085269292465	5
0	63709	10357.187303804022	4
0	63717	10358.587279716668	3
0	63721	10358.654829958175	4
0	63722	10358.998725125821	3
0	63726	10359.174134006154	4
0	63732	10360.190012761554	3
0	63736	10360.259453863681	4
0	63742	10361.969187208334	3
0	63746	10362.16412224271	4
0	63752	10363.336154612828	3
0	63756	10363.422736706204	4
0	63758	10363.499320922684	5
0	63759	10364.113436517933	4
0	63775	10365.951138710369	5
0	63784	10367.222940867557	4
0	63787	10367.652432408626	3
0	63790	10368.452965007233	2
0	63794	10368.823919867995	3
0	63800	10370.263901463919	2
0	63803	10370.891484939702	1
0	63807	10370.939248528339	2
0	63809	10371.378984032791	3
0	63810	10371.58672287946	2
0	63813	10372.165243235253	1
0	63817	10372.232268124611	2
0	63818	10372.939396734279	1
0	63821	10373.786732631293	0
0	63835	10375.752333302918	1
0	63836	10376.32177279998	0
0	63840	10376.663344283466	1
0	63846	10377.81692658855	0
0	63852	10378.590307273928	1
0	63857	10378.744663467121	2
0	63859	10378.769193257682	3
0	63860	10379.26941440931	2
0	63868	10380.69238403846	1
0	63877	10381.773193258713	2
0	63878	10381.96908222089	1
0	63881	10382.862783944248	0
0	63887	10383.068059987768	1
0	63892	10383.470210271039	2
0	63893	10383.839782455298	1
0	63896	10384.328438710575	0
0	63910	10385.703447209729	1
0	63911	10386.361407346805	0
0	63957	10394.512840454129	1
0	63966	10396.293141658239	0
0	63977	10397.580704948403	1
0	63994	10399.725929427162	2
0	64019	10403.32184584424	3
0	64020	10403.381621608704	2
0	64029	10404.424466939507	3
0	64030	10405.019025632932	2
0	64034	10405.853053441934	3
0	64035	10405.906383817417	2
0	64038	10406.812536387991	1
0	64042	10407.061332354624	2
0	64044	10407.062882755517	3
0	64045	10407.297121344887	2
0	64048	10407.777257845	1
0	64052	10408.202920845145	2
0	64054	10408.286117853005	3
0	64055	10408.346282025993	2
0	64058	10408.74979105681	1
0	64062	10409.271744324829	2
0	64063	10409.313908105677	1
0	64067	10410.034832024135	2
0	64068	10410.042952095445	1
0	64072	10410.545776594398	2
0	64073	10410.661379267934	1
0	64076	10411.240980271769	0
0	64080	10411.856719876084	1
0	64081	10412.218324139768	0
0	64085	10412.60707708555	1
0	64087	10412.757693717051	2
0	64088	10412.925289713366	1
0	64092	10412.945990765097	2
0	64094	10413.345056712749	3
0	64095	10413.762600998215	2
0	64098	10414.527162037424	1
0	64102	10414.693491779663	2
0	64103	10414.989445702785	1
0	64107	10415.017768241572	2
0	64108	10415.707920219384	1
0	64111	10416.305984678779	0
0	64115	10416.526198804204	1
0	64116	10416.888112547722	0
0	64120	10417.264858152244	1
0	64121	10417.679344942522	0
0	64130	10419.142685000675	1
0	64131	10419.483232938195	0
0	64135	10419.483503220943	1
0	64137	10419.94181560756	2
0	64138	10419.970622044452	1
0	64146	10420.85221562779	0
0	64152	10421.029749770233	1
0	64154	10421.425370039984	2
0	64158	10422.011701991665	1
0	64164	10422.695879853638	2
0	64193	10425.491773571645	3
0	64227	10429.567542580048	4
0	64232	10430.130902498269	5
0	64326	10441.694919830945	6
0	64376	10449.264366809954	5
0	64389	10449.828997427641	6
0	64406	10452.576610796296	7
0	64411	10452.851425475417	8
0	64418	10453.576984005414	9
0	64443	10456.707311475856	10
0	64459	10459.321869046636	9
0	64467	10460.41093874385	8
0	64473	10460.57838339762	9
0	64477	10461.964504205691	8
0	64486	10462.968784723394	9
0	64487	10463.056215266068	8
0	64490	10463.651551256165	7
0	64494	10464.376398186525	8
0	64495	10464.449996814806	7
0	64498	10465.237185032967	6
0	64502	10466.1411729622	7
0	64503	10466.152507751643	6
0	64507	10466.163032560102	7
0	64509	10466.258507013213	8
0	64510	10466.597167445089	7
0	64513	10467.163146826274	6
0	64516	10467.705168459074	5
0	64520	10468.366460192667	6
0	64521	10468.442637737443	5
0	64524	10468.848738445177	4
0	64528	10469.230431234744	5
0	64530	10469.301256743707	6
0	64532	10469.452979900652	7
0	64533	10469.610553271438	6
0	64537	10470.013243142628	7
0	64539	10470.285249079007	8
0	64540	10470.545089189311	7
0	64544	10470.89005376392	8
0	64545	10471.224600334161	7
0	64549	10471.387075714296	8
0	64550	10472.126900015839	7
0	64554	10472.493467504103	8
0	64555	10472.962106393438	7
0	64558	10473.726042317294	6
0	64562	10473.842970946918	7
0	64563	10474.346121221615	6
0	64566	10474.812816187341	5
0	64570	10475.679727814862	6
0	64571	10475.691935264573	5
0	64575	10475.814440258676	6
0	64576	10476.224404371039	5
0	64579	10477.003382124168	4
0	64582	10477.834049854449	3
0	64585	10478.3894401815	2
0	64589	10478.573570032882	3
0	64596	10479.707845965178	4
0	64597	10479.901800109002	3
0	64606	10480.700457898243	4
0	64607	10481.084369129197	3
0	64616	10481.92388221754	4
0	64618	10482.289434278803	5
0	64619	10482.303438874263	4
0	64625	10482.419081780329	5
0	64629	10483.264540677772	4
0	64632	10483.702908906036	3
0	64636	10483.78936638761	4
0	64642	10485.152637572328	3
0	64650	10486.358491598463	2
0	64659	10486.972884682407	3
0	64660	10487.793138773853	2
0	64664	10488.074223521522	3
0	64665	10488.283458227964	2
0	64669	10488.301633640332	3
0	64675	10489.986037166204	2
0	64684	10491.322315410557	3
0	64685	10491.716368829479	2
0	64693	10492.746686785502	1
0	64702	10493.707244603424	2
0	64704	10493.825514129017	3
0	64705	10493.82723924841	2
0	64709	10493.8680945406	3
0	64716	10494.729208582652	4
0	64717	10495.217253337169	3
0	64726	10496.336596389649	4
0	64727	10496.354359234889	3
0	64736	10497.361748322576	4
0	64737	10497.717798960788	3
0	64746	10499.276689986465	4
0	64747	10499.288583689296	3
0	64758	10500.240938088155	4
0	64762	10501.377698041798	3
0	64776	10503.250651607281	4
0	64777	10503.559085317023	3
0	64781	10504.109280280147	4
0	64782	10504.144529838415	3
0	64790	10505.401578090407	2
0	64794	10505.535955528805	3
0	64796	10506.120574626915	4
0	64797	10506.298471142093	3
0	64800	10506.850515507834	2
0	64804	10507.510619891084	3
0	64805	10507.810035876065	2
0	64808	10508.373890543423	1
0	64812	10508.383887419544	2
0	64813	10508.95957213102	1
0	64816	10509.835951524666	0
0	64820	10509.984989793341	1
0	64822	10510.225282907755	2
0	64823	10510.486999295159	1
0	64827	10510.822985093209	2
0	64828	10511.032261715523	1
0	64837	10512.1322723659	2
0	64838	10512.156047157125	1
0	64841	10512.765908568559	0
0	64845	10513.598656877477	1
0	64846	10513.669148827737	0
0	64855	10514.385787740092	1
0	64856	10515.281871762519	0
0	64865	10516.391363597042	1
0	64891	10520.670329796311	0
0	64922	10525.427361778151	1
0	64941	10528.903163308314	0
0	64950	10529.738167796854	1
0	64951	10530.371318889262	0
0	64970	10535.330624783694	1
0	64971	10535.847703683823	0
0	64980	10536.677881430337	1
0	64981	10537.338435463588	0
0	65030	10551.566680482428	1
0	65031	10551.998545052233	0
0	65070	10562.514398994129	1
0	65071	10562.590685597753	0
0	65080	10565.426989624438	1
0	65081	10565.794416519088	0
0	65085	10566.234930122263	1
0	65086	10566.567380632759	0
0	65090	10567.277897810509	1
0	65091	10567.408017645563	0
0	65095	10567.642592422018	1
0	65096	10568.241218735251	0
0	65100	10568.266529161003	1
0	65101	10568.884993668619	0
0	65110	10569.409952410301	1
0	65112	10569.449745958036	2
0	65114	10569.900120909473	3
0	65115	10569.901711402527	2
0	65118	10570.331853271295	1
0	65124	10570.870088355318	2
0	65129	10571.148940246204	3
0	65131	10571.441188372532	4
0	65132	10571.624880103787	3
0	65136	10572.161553081879	4
0	65137	10572.434781940255	3
0	65141	10572.457168559086	4
0	65142	10572.841428642507	3
0	65151	10573.452529718794	4
0	65152	10573.856730909339	3
0	65156	10574.049249245211	4
0	65163	10574.983889941917	5
0	65164	10575.156053229487	4
0	65167	10575.822766346876	3
0	65171	10575.966192416238	4
0	65172	10576.485479680002	3
0	65181	10577.430441927086	4
0	65182	10578.074231039193	3
0	65190	10579.2359694584	2
0	65193	10579.969598894027	1
0	65196	10580.656332163393	0
0	65205	10581.736402861932	1
0	65206	10582.010663935257	0
0	65215	10583.48461246698	1
0	65216	10583.80847090815	0
0	65220	10584.185724282703	1
0	65221	10584.23859152586	0
0	65225	10584.680517227964	1
0	65227	10584.861999628076	2
0	65228	10585.142976722278	1
0	65232	10585.411884068469	2
0	65238	10586.568131790048	1
0	65244	10586.792472976748	2
0	65249	10587.321671815029	3
0	65251	10587.553276804317	4
0	65252	10587.897756110614	3
0	65255	10588.336432626394	2
0	65259	10588.557492510495	3
0	65261	10588.997920402278	4
0	65262	10589.014937144208	3
0	65266	10589.073476083855	4
0	65273	10589.736268215516	5
0	65275	10589.93643634903	6
0	65277	10590.190560552272	7
0	65279	10590.310272193602	8
0	65280	10590.480495720559	7
0	65284	10591.034325113495	8
0	65285	10591.212105621274	7
0	65289	10591.705966101661	8
0	65290	10592.102936402678	7
0	65294	10592.27173351165	8
0	65295	10592.978669113077	7
0	65301	10593.234863164457	8
0	65306	10594.505403928351	9
0	65307	10594.515263461199	8
0	65316	10595.425828685581	9
0	65317	10595.595274310809	8
0	65320	10596.095419069816	7
0	65324	10596.443023801828	8
0	65325	10596.698364482837	7
0	65333	10597.036704374237	8
0	65395	10605.274044663312	9
0	65457	10613.939719166393	8
0	65473	10615.39377331549	9
0	65477	10616.519980783314	8
0	65505	10620.594116382832	7
0	65513	10622.214909099387	6
0	65522	10623.383857542639	7
0	65526	10623.596905368103	8
0	65535	10624.935876773643	7
0	65538	10625.394799970156	6
0	65544	10626.005374867206	7
0	65576	10629.828203434479	8
0	65580	10630.695264962102	7
0	65591	10631.826547766866	8
0	65610	10634.196367980699	7
0	65624	10635.61421536651	8
0	65625	10636.00798452261	7
0	65629	10636.16592450205	8
0	65635	10637.604910991128	7
0	65639	10638.120292893719	8
0	65648	10638.764986927875	9
0	65652	10640.135808006414	8
0	65663	10641.222464397239	9
0	65680	10643.13040143079	10
0	65729	10649.90879702081	9
0	65740	10651.406350376168	10
0	65794	10659.222345857201	9
0	65805	10660.221990660276	10
0	65842	10664.273360349075	11
0	65876	10669.248450403947	12
0	65893	10671.897977543361	11
0	65911	10673.78931521304	12
0	65928	10676.570630678786	11
0	65937	10678.248415440274	12
0	65938	10678.408909902182	11
0	65946	10679.754356871285	10
0	65954	10681.36534846278	9
0	65957	10682.039769728501	8
0	65960	10682.852356250417	7
0	65964	10683.357465321107	8
0	65965	10683.398393561384	7
0	65969	10683.562491157954	8
0	65970	10683.93847339835	7
0	65974	10684.079732800626	8
0	65976	10684.322623312361	9
0	65977	10684.668492773427	8
0	65980	10685.076934403386	7
0	65983	10685.479760726234	6
0	65986	10686.343574544806	5
0	65989	10687.014730168106	4
0	65992	10687.442012798432	3
0	65996	10687.583664420334	4
0	65998	10687.621718346704	5
0	66000	10687.844523366295	6
0	66001	10688.020458657685	5
0	66004	10688.633011299855	4
0	66008	10688.941411177931	5
0	66010	10689.366120025235	6
0	66011	10689.390595043375	5
0	66014	10690.006797858811	4
0	66017	10690.924740530615	3
0	66021	10691.704966149004	4
0	66022	10691.887658495753	3
0	66026	10691.935509798492	4
0	66027	10692.559946646326	3
0	66031	10692.911116194172	4
0	66033	10693.039018351567	5
0	66034	10693.343716312124	4
0	66037	10693.963982418849	3
0	66040	10694.459881830512	2
0	66044	10695.036316732047	3
0	66045	10695.151114256977	2
0	66049	10695.192816952402	3
0	66051	10695.471773574464	4
0	66052	10695.761363287427	3
0	66055	10696.177114536118	2
0	66059	10696.501333777902	3
0	66061	10696.604296204893	4
0	66062	10696.911834046494	3
0	66065	10697.602742910402	2
0	66068	10698.032862354087	1
0	66072	10698.103320065652	2
0	66076	10698.2980521622	3
0	66078	10698.634075750416	4
0	66083	10698.938376789131	5
0	66084	10699.315764729882	4
0	66090	10699.631797556639	5
0	66114	10703.120154065145	4
0	66117	10703.657577530872	3
0	66120	10704.414705100208	2
0	66124	10704.778910952061	3
0	66126	10704.997468438089	4
0	66128	10705.226823838582	5
0	66129	10705.376770485816	4
0	66133	10705.387855359502	5
0	66134	10705.780689683947	4
0	66138	10706.121019062354	5
0	66139	10706.461019883649	4
0	66142	10707.42158701119	3
0	66146	10707.736552907658	4
0	66148	10707.816198177517	5
0	66149	10708.04558666178	4
0	66152	10708.523689682986	3
0	66156	10708.676633912214	4
0	66157	10709.129066214216	3
0	66160	10709.545545200975	2
0	66164	10709.585750627404	3
0	66165	10710.39886716322	2
0	66169	10710.94006951381	3
0	66170	10711.252896764706	2
0	66173	10712.135333825433	1
0	66176	10712.613850547205	0
0	66185	10715.353581204715	1
0	66186	10715.721729609129	0
0	66190	10716.291874068837	1
0	66191	10716.53538855211	0
0	66195	10716.716853380819	1
0	66196	10717.29117121379	0
0	66205	10719.697424228673	1
0	66206	10720.266345745508	0
0	66210	10720.518810190833	1
0	66214	10720.588932904277	2
0	66219	10720.983314354384	3
0	66220	10721.649605058828	2
0	66229	10722.826675039984	3
0	66230	10722.984790423183	2
0	66233	10723.5911896395	1
0	66236	10724.06857889611	0
0	66242	10724.351897124962	1
0	66246	10725.755294419729	0
0	66252	10726.194797078518	1
0	66257	10726.692025539597	2
0	66258	10727.04518572753	1
0	66267	10728.257688428411	2
0	66268	10728.655041458128	1
0	66279	10730.033694811233	2
0	66283	10730.909560508976	1
0	66294	10731.951504765543	2
0	66303	10733.72255925494	1
0	66306	10734.452175761943	0
0	66310	10734.710625071228	1
0	66317	10735.264617674553	2
0	66323	10736.789585866683	1
0	66337	10738.65305520492	2
0	66338	10739.18041470004	1
0	66346	10741.112269001218	0
0	66360	10743.348789456111	1
0	66362	10743.504751274457	2
0	66363	10743.595452595126	1
0	66369	10743.866253575718	2
0	66373	10744.308764935841	3
0	66418	10751.002653474402	4
0	66428	10752.695481856559	5
0	66429	10752.956220570715	4
0	66437	10754.442789509981	3
0	66443	10755.123639144704	4
0	66447	10756.028651507287	3
0	66455	10757.08533254675	2
0	66464	10757.874617676632	3
0	66465	10758.293610379281	2
0	66471	10758.388543134651	3
0	66476	10759.513610665829	4
0	66477	10759.774111086917	3
0	66491	10761.567563201803	4
0	66492	10762.045624056686	3
0	66495	10762.685601428006	2
0	66499	10762.940241086474	3
0	66500	10763.325162209239	2
0	66504	10763.661514381264	3
0	66505	10763.857342133619	2
0	66509	10764.113388494428	3
0	66510	10764.778386180842	2
0	66513	10765.224478334555	1
0	66516	10765.951052882935	0
0	66520	10766.021512919938	1
0	66521	10766.723247170628	0
0	66525	10767.229302165234	1
0	66526	10767.710511486365	0
0	66530	10767.789837040426	1
0	66531	10768.21010095183	0
0	66535	10768.24049856275	1
0	66537	10768.313838221959	2
0	66538	10768.791703186177	1
0	66542	10768.797029523	2
0	66544	10769.236956932025	3
0	66545	10769.577511563145	2
0	66549	10769.767675931893	3
0	66550	10770.077475065312	2
0	66554	10770.217025532704	3
0	66556	10770.278839692252	4
0	66558	10770.660743745207	5
0	66559	10770.963387011218	4
0	66562	10771.878647012443	3
0	66565	10772.46079385578	2
0	66568	10772.95863909595	1
0	66572	10773.14828979996	2
0	66574	10773.406713780856	3
0	66575	10773.490900733548	2
0	66579	10773.881452418813	3
0	66581	10773.957610876179	4
0	66582	10774.083941194595	3
0	66586	10774.407617238827	4
0	66587	10774.655627371364	3
0	66591	10775.236398696496	4
0	66592	10775.525698729644	3
0	66595	10776.058082204212	2
0	66599	10776.94985684252	3
0	66600	10776.977529006864	2
0	66604	10777.125935659554	3
0	66605	10777.42327329106	2
0	66609	10777.595253131399	3
0	66610	10778.302021938603	2
0	66613	10778.836989984749	1
0	66617	10778.885241221804	2
0	66619	10779.062486925091	3
0	66620	10779.349761643069	2
0	66623	10779.858520720754	1
0	66631	10780.91633126847	0
0	66637	10781.542197255597	1
0	66641	10782.583910894017	0
0	66647	10782.857511659023	1
0	66649	10782.907344826901	2
0	66653	10783.878481010063	1
0	66667	10785.509279842847	2
0	66669	10785.532927133505	3
0	66671	10785.552594036005	4
0	66672	10785.758823283384	3
0	66675	10786.598570261984	2
0	66681	10787.503966662185	3
0	66685	10787.990649504722	2
0	66693	10789.403601989704	1
0	66701	10790.525033913315	0
0	66705	10790.806687739328	1
0	66706	10790.985203745956	0
0	66710	10791.191297135401	1
0	66711	10791.727849774197	0
0	66735	10796.736467301101	1
0	66736	10797.314655085371	0
0	66740	10797.68842622952	1
0	66741	10797.924848149714	0
0	66745	10798.27405889795	1
0	66747	10798.662497680402	2
0	66749	10798.687700559574	3
0	66750	10798.746274486135	2
0	66754	10799.381693072398	3
0	66756	10799.463640655724	4
0	66757	10799.732898377811	3
0	66760	10800.189751630088	2
0	66763	10800.635484898507	1
0	66766	10801.431814683739	0
0	66775	10803.195599352973	1
0	66776	10803.269617892294	0
0	66780	10803.862769217747	1
0	66781	10803.983419528608	0
0	66790	10806.047252255382	1
0	66791	10806.427789048286	0
0	66795	10806.478446810591	1
0	66797	10806.660420187268	2
0	66798	10807.233818164555	1
0	66801	10807.79287922121	0
0	66817	10810.596156422377	1
0	66819	10810.616371493157	2
0	66821	10810.733264948567	3
0	66826	10810.905150928861	4
0	66827	10811.193152556259	3
0	66838	10812.525994135722	4
0	66862	10815.735745974322	3
0	66870	10817.357876198431	2
0	66873	10818.105075314054	1
0	66879	10818.550635245409	2
0	66881	10818.58905163615	3
0	66885	10819.504952993868	2
0	66888	10820.289407230374	1
0	66892	10820.743271051425	2
0	66893	10821.092117876299	1
0	66897	10821.136696138547	2
0	66899	10822.006167943431	3
0	66900	10822.012000491675	2
0	66904	10822.528378529714	3
0	66905	10822.576183850477	2
0	66909	10822.761316828518	3
0	66913	10822.80417079096	4
0	66915	10823.21615955446	5
0	66919	10824.06783572293	4
0	66922	10824.609116553628	3
0	66928	10824.928276587688	4
0	66930	10824.941680257763	5
0	66942	10825.91968432223	6
0	66947	10827.065581998255	7
0	66948	10827.566989595091	6
0	66956	10828.841622492924	5
0	66965	10830.259826715996	6
0	66966	10830.385288318592	5
0	66970	10830.823788831741	6
0	66971	10831.083221328418	5
0	66975	10831.14198931845	6
0	66976	10831.564466784216	5
0	66979	10832.113737931076	4
0	66983	10832.787943074844	5
0	66985	10832.985918869334	6
0	66986	10833.041430983759	5
0	66989	10833.756609679732	4
0	66993	10833.820765188716	5
0	66995	10833.995435166079	6
0	66996	10834.628958542758	5
0	66999	10835.246848658213	4
0	67003	10835.354048221378	5
0	67004	10835.781868223447	4
0	67007	10836.365255287822	3
0	67010	10836.958677040107	2
0	67014	10837.160549036398	3
0	67015	10837.402943381873	2
0	67019	10837.600653222536	3
0	67020	10838.390495126202	2
0	67024	10839.031445606812	3
0	67025	10839.122781835982	2
0	67029	10839.484202418666	3
0	67030	10839.968444889804	2
0	67033	10840.732192767758	1
0	67037	10840.974170206165	2
0	67038	10841.400747633746	1
0	67042	10841.77403216738	2
0	67044	10841.86934520794	3
0	67046	10841.916713105693	4
0	67047	10842.091426718256	3
0	67050	10842.568250594821	2
0	67053	10843.349105407691	1
0	67057	10843.547609220258	2
0	67059	10843.607868172331	3
0	67060	10843.918640002024	2
0	67064	10844.038325301274	3
0	67065	10844.855074440802	2
0	67069	10844.982641742992	3
0	67070	10845.77883129881	2
0	67073	10846.732673272558	1
0	67077	10846.750722836369	2
0	67078	10847.293424944414	1
0	67081	10848.051851781245	0
0	67085	10848.280892790054	1
0	67086	10848.76974184855	0
0	67090	10848.994128444544	1
0	67091	10849.741319841958	0
0	67140	10860.314727444818	1
0	67141	10860.458343852645	0
0	67150	10863.094206613719	1
0	67151	10863.564822000182	0
0	67155	10864.272696544994	1
0	67156	10864.49073480662	0
0	67220	10885.41395026246	1
0	67222	10885.469510431353	2
0	67223	10885.679778362256	1
0	67232	10886.706395380585	2
0	67238	10888.190062086055	1
0	67241	10888.710056381304	0
0	67245	10889.360751790952	1
0	67246	10889.583139588595	0
0	67255	10891.178805105118	1
0	67256	10892.0524806155	0
0	67270	10896.239045319152	1
0	67271	10896.623110819706	0
0	67285	10898.757725649569	1
0	67292	10899.442247401617	2
0	67293	10899.633234648607	1
0	67304	10900.338163701717	2
0	67333	10904.280576764342	1
0	67342	10905.701144945781	2
0	67343	10906.132989009299	1
0	67352	10907.530365559573	2
0	67353	10907.858334598147	1
0	67361	10909.34801947653	0
0	67367	10909.659107712954	1
0	67372	10910.584279946452	2
0	67373	10910.796621265232	1
0	67381	10912.238398358335	0
0	67397	10913.864466851122	1
0	67401	10915.123533678257	0
0	67417	10917.056914389452	1
0	67461	10924.041438278526	0
0	67472	10924.725990148114	1
0	67479	10925.899359410478	2
0	67483	10926.394373775523	1
0	67492	10926.927953390943	2
0	67494	10927.036421066777	3
0	67495	10927.564532508392	2
0	67504	10928.995638803844	3
0	67505	10929.254413617699	2
0	67508	10929.69783975358	1
0	67516	10931.281781443878	0
0	67527	10932.262448471927	1
0	67532	10933.031266467821	2
0	67536	10933.138884666869	3
0	67541	10933.830358934856	4
0	67550	10934.888437664355	5
0	67572	10937.187902534136	6
0	67606	10942.709512973686	5
0	67619	10944.081421917102	6
0	67661	10950.037098821828	5
0	67667	10950.149831511582	6
0	67671	10951.706845418287	5
0	67680	10952.624953758514	6
0	67681	10953.564639047503	5
0	67690	10954.833032582085	6
0	67691	10954.95045531892	5
0	67700	10956.173052882874	6
0	67701	10956.22582449137	5
0	67715	10957.630894808058	6
0	67716	10958.091180992189	5
0	67719	10958.909543166186	4
0	67730	10959.52708912312	5
0	67732	10959.645947717638	6
0	67734	10960.087457243138	7
0	67738	10960.773150989243	6
0	67744	10961.35584987523	7
0	67751	10962.117307297292	8
0	67760	10964.067156202595	7
0	67769	10965.479226010531	8
0	67770	10965.647725836902	7
0	67779	10966.808597176331	8
0	67780	10967.163568008335	7
0	67786	10967.41517713054	8
0	67790	10968.544940001068	7
0	67794	10968.579581148272	8
0	67803	10969.407994350773	9
0	67822	10972.264578151904	8
0	67831	10973.542742337533	9
0	67832	10973.76065395136	8
0	67835	10974.261957093157	7
0	67839	10974.515377369142	8
0	67845	10975.778966670079	7
0	67848	10976.248322715718	6
0	67857	10976.969415940407	7
0	67858	10977.502400218105	6
0	67861	10978.356834819602	5
0	67870	10979.551732584552	6
0	67871	10980.228699379476	5
0	67880	10981.271222862674	6
0	67881	10981.646246100279	5
0	67890	10982.582162771932	6
0	67891	10983.431960042116	5
0	67894	10984.102512936868	4
0	67897	10984.581304989211	3
0	67906	10985.362523117033	4
0	67908	10985.491093337294	5
0	67909	10985.773819663204	4
0	67923	10987.553534422855	5
0	67924	10988.125643206355	4
0	67938	10989.638132297825	5
0	67939	10989.873305295235	4
0	67942	10990.750081276255	3
0	67945	10991.262244958816	2
0	67949	10991.473990102444	3
0	67955	10992.619149705827	2
0	67961	10993.068073963098	3
0	67966	10993.274171775724	4
0	67967	10993.763444885391	3
0	67970	10994.746896893916	2
0	67974	10994.970668875729	3
0	67975	10995.514763822652	2
0	67978	10996.501896199829	1
0	67981	10996.993935326546	0
0	67990	10998.269608114284	1
0	67992	10998.44951292751	2
0	67993	10998.651549915473	1
0	67996	10999.630220928478	0
0	68005	11000.514407088953	1
0	68007	11000.574425925133	2
0	68009	11000.669230225599	3
0	68010	11001.198187586991	2
0	68014	11001.740538681775	3
0	68015	11002.134857508354	2
0	68019	11002.232170098026	3
0	68020	11002.847484255675	2
0	68023	11003.54702445562	1
0	68029	11004.332215265078	2
0	68033	11004.825828345352	1
0	68036	11005.27960593719	0
0	68040	11005.341174765607	1
0	68044	11005.706831756593	2
0	68049	11005.887076796818	3
0	68050	11006.786204474279	2
0	68054	11006.821451087586	3
0	68060	11007.980359784699	2
0	68064	11008.089315060882	3
0	68068	11008.518561916846	4
0	68072	11009.570932232355	3
0	68081	11010.708059653608	4
0	68082	11011.479272291902	3
0	68086	11012.047112519813	4
0	68087	11012.150073311664	3
0	68093	11012.358922987427	4
0	68098	11012.761848905864	5
0	68107	11013.972757825802	6
0	68121	11016.50809834469	5
0	68132	11017.602749843539	6
0	68139	11018.584250561361	7
0	68168	11023.234566551911	6
0	68176	11024.690259221288	5
0	68179	11025.298931160335	4
0	68185	11025.831004351947	5
0	68190	11026.538562393009	6
0	68192	11026.734340981892	7
0	68193	11026.966994023834	6
0	68201	11028.240568756543	5
0	68204	11028.795465359602	4
0	68208	11028.850428231982	5
0	68209	11029.333418572226	4
0	68212	11029.742088404389	3
0	68216	11030.002460098301	4
0	68217	11030.243082587698	3
0	68221	11030.314679939053	4
0	68222	11030.91393472743	3
0	68225	11031.396466627249	2
0	68229	11031.583911612286	3
0	68231	11031.663551753998	4
0	68232	11031.915091394258	3
0	68236	11031.942640528526	4
0	68237	11032.889082535354	3
0	68240	11033.563137741012	2
0	68244	11033.732516394077	3
0	68246	11033.887488448682	4
0	68248	11034.098672299548	5
0	68249	11034.124603421239	4
0	68252	11034.527402858015	3
0	68255	11035.377315800495	2
0	68258	11035.851403541395	1
0	68262	11036.317847232414	2
0	68263	11036.376996834248	1
0	68267	11036.848166370328	2
0	68268	11037.24013159056	1
0	68272	11037.275467003718	2
0	68274	11037.5129454045	3
0	68276	11037.708628314054	4
0	68278	11037.891881091988	5
0	68279	11038.096825779088	4
0	68282	11039.08976757191	3
0	68286	11039.372246936632	4
0	68287	11039.811410183458	3
0	68290	11040.219068060767	2
0	68294	11040.388448242424	3
0	68296	11040.552180598102	4
0	68298	11040.598271239734	5
0	68299	11041.214047478603	4
0	68303	11041.435630891007	5
0	68304	11041.660834915934	4
0	68318	11043.279410816742	5
0	68319	11043.916240149362	4
0	68327	11044.323763054759	5
0	68329	11044.829425026077	6
0	68334	11045.006994339002	7
0	68338	11046.198856988501	6
0	68341	11046.904659070119	5
0	68345	11047.298318144472	6
0	68346	11047.821790360285	5
0	68350	11047.826043136136	6
0	68356	11049.105688611091	5
0	68359	11049.75493873381	4
0	68363	11050.20464017972	5
0	68364	11050.34313687398	4
0	68368	11050.644727539821	5
0	68369	11050.885411250497	4
0	68378	11051.625476997748	5
0	68379	11051.949629081738	4
0	68382	11052.598584322677	3
0	68393	11053.778094941706	4
0	68400	11054.691252394023	5
0	68419	11058.468195403506	4
0	68430	11059.990876174433	5
0	68439	11061.823061598324	4
0	68448	11062.80455907553	5
0	68455	11063.795688432374	6
0	68459	11064.113229832962	7
0	68463	11065.218845256557	6
0	68466	11065.677402330282	5
0	68482	11067.208665642286	6
0	68484	11067.800800365532	7
0	68488	11068.499509146157	6
0	68497	11069.576724610051	7
0	68498	11070.021151159284	6
0	68507	11071.180302621389	7
0	68509	11071.606783305748	8
0	68510	11071.6087181075	7
0	68513	11072.431403847783	6
0	68517	11072.494388065649	7
0	68524	11073.647797012402	8
0	68525	11074.263784452248	7
0	68533	11075.718569441977	6
0	68537	11076.262445681042	7
0	68538	11076.574917053477	6
0	68542	11076.715352753747	7
0	68544	11077.143570294308	8
0	68545	11077.331510208872	7
0	68549	11077.475193630249	8
0	68550	11078.026083406991	7
0	68553	11079.001360623863	6
0	68556	11079.600497113167	5
0	68559	11080.49195302613	4
0	68563	11080.933846570217	5
0	68564	11081.298948296159	4
0	68567	11081.809541404247	3
0	68571	11082.088555450982	4
0	68572	11082.258847260801	3
0	68576	11082.340686621969	4
0	68578	11082.783229817702	5
0	68579	11082.841686365241	4
0	68583	11083.25844584097	5
0	68584	11083.721076896554	4
0	68588	11083.884369565968	5
0	68589	11084.284123072494	4
0	68593	11084.420923990627	5
0	68594	11084.935268049175	4
0	68597	11085.446228706231	3
0	68601	11085.713413121687	4
0	68602	11086.35510053467	3
0	68605	11087.21010679733	2
0	68609	11087.589450447604	3
0	68611	11087.776059182956	4
0	68612	11087.832765114168	3
0	68615	11088.370540875336	2
0	68618	11088.843267035996	1
0	68621	11089.832464954256	0
0	68625	11089.993025620683	1
0	68627	11090.260504064984	2
0	68629	11090.405069088958	3
0	68630	11090.520729841524	2
0	68634	11091.448650684368	3
0	68635	11091.475788237433	2
0	68639	11091.562389041276	3
0	68640	11092.110317482612	2
0	68643	11092.58243285301	1
0	68646	11093.20151282125	0
0	68655	11094.824881219471	1
0	68656	11094.957349676873	0
0	68660	11095.08529391244	1
0	68661	11095.717448105059	0
0	68670	11096.807015090085	1
0	68671	11096.826066043119	0
0	68675	11097.040388716063	1
0	68676	11097.681018136333	0
0	68692	11100.088999771366	1
0	68697	11100.670432801787	2
0	68699	11100.71184227954	3
0	68700	11101.475757650694	2
0	68706	11101.942233719369	3
0	68711	11102.628529554906	4
0	68712	11103.094301138015	3
0	68721	11103.676651843352	4
0	68722	11104.278532777575	3
0	68726	11104.836351037136	4
0	68733	11105.361627472531	5
0	68734	11105.523436486709	4
0	68742	11107.120227455336	3
0	68750	11108.227755214356	2
0	68756	11108.630290603426	3
0	68760	11109.73866730904	2
0	68768	11111.425337073754	1
0	68776	11112.691805236821	0
0	68785	11113.206990354959	1
0	68786	11113.844311165984	0
0	68795	11115.084455099755	1
0	68797	11115.219101315816	2
0	68799	11115.402183406337	3
0	68800	11115.427143364623	2
0	68803	11116.347893470237	1
0	68807	11116.374946068903	2
0	68808	11116.982036937764	1
0	68812	11117.042808965623	2
0	68813	11117.845412201332	1
0	68817	11118.07494084848	2
0	68818	11118.246954838084	1
0	68821	11118.783760141525	0
0	68825	11119.013397307254	1
0	68826	11119.219693843638	0
0	68835	11121.231005056351	1
0	68837	11121.303791061401	2
0	68838	11121.331262789482	1
0	68842	11121.461921659381	2
0	68843	11121.898384229701	1
0	68846	11122.663443929145	0
0	68852	11122.93547731349	1
0	68857	11123.64348074429	2
0	68858	11123.688095794061	1
0	68866	11125.419591401379	0
0	68870	11125.771605456064	1
0	68871	11126.048499592814	0
0	68880	11127.462541896928	1
0	68881	11127.978122191318	0
0	68897	11129.827051704716	1
0	68907	11130.908804427951	2
0	68908	11131.161679380435	1
0	68926	11134.361074413128	0
0	68935	11135.276156003248	1
0	68936	11135.652187676822	0
0	68945	11137.27201516907	1
0	68946	11137.282817034517	0
0	68960	11139.420089074956	1
0	68961	11139.437563512569	0
0	68985	11143.709500211442	1
0	68992	11144.080974006254	2
0	68994	11144.7994858554	3
0	69000	11145.565101384978	2
0	69006	11146.435810895176	3
0	69011	11146.616179344529	4
0	69012	11147.238517365746	3
0	69026	11148.480358154866	4
0	69027	11149.255770967855	3
0	69030	11149.922576515005	2
0	69034	11149.961772146248	3
0	69035	11150.868062430621	2
0	69039	11151.16973934387	3
0	69040	11151.439502455621	2
0	69043	11151.90298445779	1
0	69047	11151.944570328146	2
0	69049	11152.457419932393	3
0	69050	11152.648700308195	2
0	69054	11152.890901901779	3
0	69055	11153.407001951244	2
0	69059	11153.806792680856	3
0	69060	11154.268147140462	2
0	69064	11154.659117364782	3
0	69065	11155.085897134757	2
0	69069	11155.29687170257	3
0	69070	11155.797018587124	2
0	69074	11155.813436890025	3
0	69075	11156.305229693558	2
0	69079	11156.31482074731	3
0	69080	11156.778148383601	2
0	69083	11157.182676559128	1
0	69087	11157.578295972821	2
0	69089	11157.582812535599	3
0	69090	11157.993777512759	2
0	69094	11158.49708168586	3
0	69095	11158.788345641689	2
0	69099	11159.027711236237	3
0	69100	11159.76416208595	2
0	69103	11160.370824862411	1
0	69107	11160.667347375927	2
0	69109	11161.040749569787	3
0	69110	11161.077617011498	2
0	69114	11161.322738406836	3
0	69115	11161.836968586686	2
0	69118	11162.343116868333	1
0	69122	11162.735194143022	2
0	69123	11162.751901656202	1
0	69127	11163.496983820554	2
0	69128	11163.725803960859	1
0	69131	11164.366361628519	0
0	69135	11164.921108472294	1
0	69136	11164.969782617315	0
0	69160	11169.030159026437	1
0	69161	11169.523039589977	0
0	69172	11171.085183546272	1
0	69176	11172.073376660251	0
0	69185	11172.611253739408	1
0	69187	11172.832276795727	2
0	69188	11173.085943728375	1
0	69196	11174.561989314357	0
0	69200	11174.569937353583	1
0	69204	11174.671906610399	2
0	69209	11175.668832198032	3
0	69210	11175.991218070049	2
0	69219	11177.389679094145	3
0	69220	11177.506825845051	2
0	69223	11178.110829043356	1
0	69227	11178.790817372782	2
0	69228	11178.861951216138	1
0	69232	11179.316097371703	2
0	69234	11179.805038407918	3
0	69235	11179.84616363972	2
0	69238	11180.604399195095	1
0	69242	11180.745317128867	2
0	69244	11180.906029182532	3
0	69251	11181.082870651431	4
0	69252	11181.517637537667	3
0	69260	11183.081558865882	2
0	69269	11184.193288614465	3
0	69270	11184.291721173064	2
0	69279	11184.92874406188	3
0	69280	11185.810394737697	2
0	69288	11187.233280767561	1
0	69299	11188.181827605947	2
0	69318	11191.307712264326	1
0	69326	11192.714080499219	0
0	69332	11193.227965315609	1
0	69341	11194.218107331325	0
0	69350	11195.796029229517	1
0	69356	11197.123135109445	0
0	69365	11197.694156061751	1
0	69366	11197.98281992745	0
0	69375	11198.46434793103	1
0	69376	11198.967669674021	0
0	69390	11200.672132648384	1
0	69391	11200.888193826262	0
0	69395	11200.923833026888	1
0	69397	11201.192401931634	2
0	69398	11201.87466544991	1
0	69402	11201.926744737444	2
0	69403	11202.671300840868	1
0	69406	11203.506063045772	0
0	69430	11207.789175823593	1
0	69431	11207.991289299042	0
0	69435	11208.141300827127	1
0	69436	11208.642087610965	0
0	69450	11210.728544377758	1
0	69451	11211.065023892136	0
0	69460	11212.4028994711	1
0	69461	11212.751835361774	0
0	69465	11213.128202544396	1
0	69466	11213.72734632003	0
0	69475	11216.073005821067	1
0	69476	11216.08541056436	0
0	69485	11217.119935702309	1
0	69487	11217.459113018376	2
0	69493	11217.94251017055	1
0	69497	11218.269745568088	2
0	69498	11218.552389307893	1
0	69502	11218.642689243497	2
0	69503	11219.530723622502	1
0	69506	11220.061452547102	0
0	69510	11220.195716392316	1
0	69512	11220.221520712275	2
0	69513	11220.873298451178	1
0	69517	11221.404747808211	2
0	69518	11221.48594651475	1
0	69521	11222.345035218274	0
0	69530	11223.215689862828	1
0	69531	11223.908621234264	0
0	69540	11226.295923139824	1
0	69542	11226.354786636516	2
0	69543	11226.402904709679	1
0	69547	11226.619122751736	2
0	69548	11227.222061818763	1
0	69551	11227.81417135924	0
0	69565	11229.702823226396	1
0	69567	11230.058134642009	2
0	69568	11230.14280722879	1
0	69577	11231.191223399869	2
0	69578	11231.869079903068	1
0	69584	11232.333393281257	2
0	69588	11233.638903965263	1
0	69591	11234.371987496617	0
0	69605	11236.798873860559	1
0	69606	11237.021643098282	0
0	69610	11237.336497691475	1
0	69611	11237.674928566046	0
0	69630	11242.909601295364	1
0	69631	11243.425870608036	0
0	69635	11243.48634460966	1
0	69636	11244.27044512868	0
0	69640	11244.501564052224	1
0	69641	11245.058711661502	0
0	69680	11262.756511363583	1
0	69682	11263.203636750116	2
0	69683	11263.282728738126	1
0	69687	11263.504056015835	2
0	69688	11263.742242580394	1
0	69697	11264.431978801159	2
0	69698	11265.197982598164	1
0	69701	11265.615186845439	0
0	69710	11266.899395617516	1
0	69711	11267.416948536887	0
0	69715	11267.52168272417	1
0	69716	11267.900432848056	0
0	69720	11268.154253905096	1
0	69724	11268.377019397064	2
0	69731	11268.891909302079	3
0	69770	11274.492080763023	4
0	69802	11279.928787833462	3
0	69821	11282.867384728763	4
0	69852	11286.911358831181	3
0	69860	11288.410017166949	2
0	69868	11290.37059219611	1
0	69876	11291.873070823552	0
0	69880	11291.883077580454	1
0	69882	11292.10042005892	2
0	69884	11292.439584788194	3
0	69885	11292.487789567152	2
0	69888	11292.911423561314	1
0	69892	11293.011693132198	2
0	69893	11293.347347255574	1
0	69897	11293.439550080734	2
0	69898	11294.181781242333	1
0	69901	11294.982110108865	0
0	69915	11297.255859383105	1
0	69917	11297.85034145172	2
0	69918	11297.920101059521	1
0	69927	11298.62731994099	2
0	69928	11298.972324335775	1
0	69939	11299.911340396142	2
0	69946	11300.7081550363	3
0	69950	11301.525930835646	2
0	69953	11301.930270410249	1
0	69957	11302.287293559531	2
0	69969	11303.550473724084	3
0	69971	11303.860890364722	4
0	69972	11303.912828614902	3
0	69978	11303.92708902766	4
0	69982	11304.100956402464	5
0	69987	11305.247130954971	6
0	69991	11306.106166072855	5
0	69999	11306.989335517972	4
0	70003	11307.172783918933	5
0	70005	11307.641489030637	6
0	70006	11307.679564987696	5
0	70014	11308.878903780752	4
0	70020	11309.270480332807	5
0	70022	11309.375926155792	6
0	70027	11310.096026475802	7
0	70028	11310.812617358207	6
0	70039	11311.89893564836	7
0	70048	11313.994134158283	6
0	70051	11314.46435654514	5
0	70062	11315.603787334173	6
0	70067	11315.790469104027	7
0	70078	11317.730991546871	6
0	70086	11319.246225057185	5
0	70095	11320.675848786625	6
0	70096	11320.82385316665	5
0	70105	11322.338614301285	6
0	70106	11322.440166576968	5
0	70114	11323.881367491062	4
0	70120	11324.108676580847	5
0	70122	11324.29664133277	6
0	70124	11324.345152693991	7
0	70128	11325.504329285461	6
0	70141	11327.170446127902	5
0	70147	11327.559905109562	6
0	70157	11328.651741133653	7
0	70158	11329.240859244221	6
0	70167	11330.425658575683	7
0	70168	11330.717933714824	6
0	70171	11331.58373335769	5
0	70174	11332.421071884284	4
0	70178	11332.62417318634	5
0	70184	11333.97862332637	4
0	70193	11334.602909798965	5
0	70194	11335.498035353995	4
0	70203	11336.693888433692	5
0	70204	11337.054723109133	4
0	70213	11338.078906390128	5
0	70214	11338.898527647057	4
0	70217	11339.596570560816	3
0	70226	11340.258071200327	4
0	70228	11340.679475227599	5
0	70229	11340.926140758316	4
0	70237	11342.111837519347	3
0	70243	11342.844602010611	4
0	70248	11343.255232629922	5
0	70250	11343.554565009867	6
0	70251	11343.576546884715	5
0	70262	11344.898307484002	6
0	70267	11345.607325148925	7
0	70268	11345.899830561378	6
0	70271	11346.315501395906	5
0	70280	11347.428580102772	6
0	70281	11347.691798491463	5
0	70284	11348.682768110897	4
0	70287	11349.220723998466	3
0	70296	11350.451901146578	4
0	70297	11350.481941639039	3
0	70301	11350.869320513597	4
0	70302	11351.0157985062	3
0	70305	11351.824371154433	2
0	70313	11353.208537886445	1
0	70317	11353.423264801546	2
0	70319	11353.605243354274	3
0	70321	11353.782860149257	4
0	70322	11353.986489249966	3
0	70326	11354.333252688126	4
0	70327	11354.501179573	3
0	70330	11354.940123764439	2
0	70333	11355.803107450357	1
0	70336	11356.227986594396	0
0	70345	11358.178391752908	1
0	70346	11358.437952535415	0
0	70350	11358.775437027907	1
0	70352	11359.08709325487	2
0	70353	11359.184784829898	1
0	70356	11359.635538394658	0
0	70360	11360.008547705552	1
0	70361	11360.47523091282	0
0	70365	11360.670736129737	1
0	70367	11360.994603025145	2
0	70368	11361.17623618562	1
0	70372	11361.647909439943	2
0	70374	11361.651078582177	3
0	70375	11361.908978633026	2
0	70378	11362.886092652196	1
0	70382	11363.261582709119	2
0	70384	11363.352881362203	3
0	70385	11363.579411838531	2
0	70389	11363.681649184901	3
0	70390	11364.525691890997	2
0	70399	11365.360197383044	3
0	70401	11365.762200346271	4
0	70402	11365.915117389244	3
0	70406	11366.060218252228	4
0	70407	11366.835032633274	3
0	70411	11367.134882304651	4
0	70412	11367.60608959729	3
0	70415	11368.336767314842	2
0	70418	11369.263654437896	1
0	70426	11370.57661910034	0
0	70445	11386.138726171992	1
0	70446	11386.681590353298	0
0	70450	11386.786206972989	1
0	70451	11387.426974017565	0
0	70455	11387.979975794653	1
0	70456	11388.073987156172	0
0	70480	11393.413702449529	1
0	70481	11393.762123196976	0
0	70485	11393.971577345183	1
0	70486	11394.544239170974	0
0	70490	11394.599039412409	1
0	70492	11394.992198673865	2
0	70493	11395.287844036691	1
0	70496	11395.940764091196	0
0	70505	11398.395636056321	1
0	70506	11398.62032940836	0
0	70510	11399.28759633041	1
0	70511	11399.311367496628	0
0	70530	11402.112929678192	1
0	70532	11402.19258881309	2
0	70533	11402.489323381278	1
0	70539	11402.671277705342	2
0	70544	11403.051338719703	3
0	70545	11403.385210740882	2
0	70554	11404.27883203609	3
0	70555	11404.889274766612	2
0	70561	11405.242762157643	3
0	70565	11406.133186923563	2
0	70568	11406.612936885086	1
0	70577	11407.44072405527	2
0	70578	11407.528271116399	1
0	70581	11407.982284247259	0
0	70590	11409.320672168412	1
0	70591	11409.758700854582	0
0	70635	11425.644032132119	1
0	70636	11426.449379575594	0
0	70645	11428.837724112461	1
0	70646	11429.139500030234	0
0	70667	11433.950222977017	1
0	70672	11434.262835706408	2
0	70673	11434.825227969374	1
0	70681	11436.133802706005	0
0	70687	11436.531762848207	1
0	70691	11437.271459749622	0
0	70697	11438.180715084788	1
0	70702	11438.806282216334	2
0	70703	11438.882863757435	1
0	70706	11439.561630592078	0
0	70720	11442.884955086714	1
0	70722	11443.265826643028	2
0	70723	11443.441596542922	1
0	70726	11444.243878413429	0
0	70730	11444.290973327996	1
0	70731	11444.688161673089	0
0	70737	11444.952659826494	1
0	70739	11445.197781186747	2
0	70744	11445.648050833415	3
0	70746	11445.918003535679	4
0	70747	11446.260240366282	3
0	70756	11447.404669560319	4
0	70757	11447.669009467838	3
0	70766	11448.259543581	4
0	70767	11448.592504670723	3
0	70776	11449.74305859203	4
0	70777	11450.035778832222	3
0	70785	11451.435657531275	2
0	70791	11451.723291529682	3
0	70795	11452.599425897533	2
0	70801	11452.714268988485	3
0	70803	11453.385552089765	4
0	70807	11453.999369044761	3
0	70810	11454.49229354227	2
0	70813	11454.99091442057	1
0	70817	11455.704152383948	2
0	70819	11455.709622297221	3
0	70820	11455.987096930268	2
0	70824	11456.556946681877	3
0	70825	11456.894092532686	2
0	70829	11457.081440806523	3
0	70830	11457.803052158068	2
0	70834	11458.293921322784	3
0	70835	11458.393057642059	2
0	70839	11458.818776578949	3
0	70840	11459.274510096546	2
0	70844	11459.53910772887	3
0	70846	11460.132344959675	4
0	70847	11460.237143419377	3
0	70850	11461.003220959167	2
0	70854	11461.142381046139	3
0	70856	11461.247403613963	4
0	70858	11461.379503910682	5
0	70859	11461.791245572801	4
0	70862	11462.257094888176	3
0	70866	11462.652056119846	4
0	70867	11462.785067486364	3
0	70870	11463.3855539988	2
0	70873	11464.23387184513	1
0	70876	11465.197666439574	0
0	70890	11468.178182453999	1
0	70892	11468.365273270111	2
0	70893	11468.415172985798	1
0	70897	11468.467266571578	2
0	70901	11469.008163302123	3
0	70906	11469.41121080449	4
0	70907	11470.067565905904	3
0	70915	11471.619044677863	2
0	70921	11471.842350171151	3
0	70923	11472.167827302271	4
0	70927	11472.931661096678	3
0	70931	11473.111248869407	4
0	70932	11473.559471630116	3
0	70936	11473.752891775845	4
0	70937	11473.996900796468	3
0	70940	11474.713952939442	2
0	70944	11475.162554092066	3
0	70945	11475.553825514015	2
0	70949	11475.907265773544	3
0	70950	11475.972486514129	2
0	70953	11476.569418046573	1
0	70956	11477.074979664428	0
0	70960	11477.193783157967	1
0	70962	11477.605633270912	2
0	70963	11477.780457675686	1
0	70967	11478.574775423565	2
0	70968	11478.669388604859	1
0	70972	11479.13130974099	2
0	70973	11479.231992782369	1
0	70976	11479.849362223917	0
0	70985	11481.291560848334	1
0	70986	11481.395098990587	0
0	70997	11482.68713297416	1
0	71021	11486.222554706887	0
0	71032	11487.360465880449	1
0	71041	11488.914808054699	0
0	71057	11491.171602459818	1
0	71061	11491.969004105462	0
0	71105	11500.530115553042	1
0	71106	11500.700212140843	0
0	71115	11501.729498355655	1
0	71116	11502.182835424641	0
0	71125	11503.892726467937	1
0	71126	11504.029425627734	0
0	71135	11504.733868702541	1
0	71136	11505.20351774748	0
0	71155	11510.015350360543	1
0	71156	11510.301972337352	0
0	71195	11517.083806064511	1
0	71217	11520.457166115351	2
0	71263	11527.854617208013	1
0	71272	11528.94426088484	2
0	71273	11529.195031864339	1
0	71281	11530.794146111285	0
0	71290	11531.870921186726	1
0	71292	11531.94766084757	2
0	71294	11532.150420715468	3
0	71295	11532.231931272432	2
0	71303	11533.983769936304	1
0	71311	11535.669328580567	0
0	71332	11538.613232479023	1
0	71344	11539.742547563531	2
0	71358	11541.65387042928	1
0	71374	11543.27150178371	2
0	71383	11545.232818179666	1
0	71394	11546.3895389007	2
0	71398	11547.394801843441	1
0	71404	11547.591604916148	2
0	71416	11549.29150851767	3
0	71420	11550.09323296933	2
0	71429	11550.806609654532	3
0	71430	11551.527353519244	2
0	71438	11552.982839247255	1
0	71447	11554.040523521832	2
0	71448	11554.894592505225	1
0	71451	11555.359774555868	0
0	71552	11570.289357186467	1
0	71586	11576.077633673415	0
0	71597	11577.151483438765	1
0	71619	11579.977382891121	2
0	71633	11582.940239050563	1
0	71636	11583.768187535831	0
0	71650	11588.175406382155	1
0	71657	11589.013992141771	2
0	71658	11589.398255095733	1
0	71667	11590.59359369926	2
0	71668	11590.855388845885	1
0	71671	11591.69609267964	0
0	71685	11593.273405452865	1
0	71686	11593.824278751473	0
0	71700	11595.91972090345	1
0	71702	11596.367898325	2
0	71703	11596.40799775855	1
0	71711	11597.678812634668	0
0	71730	11600.501036862215	1
0	71731	11601.013464170252	0
0	71775	11613.310958931748	1
0	71776	11613.445340030031	0
0	71780	11613.479830762896	1
0	71786	11614.801027629427	0
0	71792	11615.530269245825	1
0	71797	11615.685487233226	2
0	71798	11616.328662907421	1
0	71811	11617.159638188411	2
0	71826	11619.576087183365	3
0	71830	11620.542075682799	2
0	71838	11621.472139377654	1
0	71844	11621.989325754415	2
0	71849	11622.4801477263	3
0	71850	11623.021518766037	2
0	71858	11624.064433735139	1
0	71861	11624.640520260199	0
0	71865	11624.680815389731	1
0	71867	11624.806192326468	2
0	71868	11625.522932627001	1
0	71872	11626.161389931229	2
0	71873	11626.501298615844	1
0	71876	11627.280937153236	0
0	71885	11630.081692143418	1
0	71887	11630.23817193139	2
0	71888	11630.30640664884	1
0	71892	11630.349073281853	2
0	71894	11631.043696837537	3
0	71896	11631.055635192536	4
0	71897	11631.228679940581	3
0	71900	11631.817282512748	2
0	71903	11632.290723227441	1
0	71907	11632.806274494061	2
0	71908	11633.221832547022	1
0	71911	11634.016459563293	0
0	71920	11635.508927253209	1
0	71922	11635.564438203914	2
0	71923	11635.813442116293	1
0	71926	11636.292789784183	0
0	71930	11636.987618510949	1
0	71931	11637.001792297296	0
0	71937	11637.730476132277	1
0	71941	11638.65057508407	0
0	71945	11638.729589747538	1
0	71946	11639.195079603669	0
0	71957	11640.234793191209	1
0	71961	11641.502867853225	0
0	71965	11642.013486680764	1
0	71966	11642.459236927612	0
0	71975	11645.371940642749	1
0	71976	11645.670242344755	0
0	72000	11654.671702521785	1
0	72001	11655.050475251145	0
0	72010	11655.851882347946	1
0	72011	11656.231924430776	0
0	72020	11657.287318786503	1
0	72021	11657.410554082348	0
0	72030	11658.299197237246	1
0	72032	11658.310501796187	2
0	72033	11658.733328855113	1
0	72041	11660.352284840337	0
0	72110	11678.229582747837	1
0	72111	11678.960829613567	0
0	72140	11688.859262282042	1
0	72141	11689.356377417007	0
0	72150	11690.764156588876	1
0	72151	11691.102961764875	0
0	72165	11692.131826404706	1
0	72172	11692.862808861945	2
0	72189	11695.445510348899	3
0	72195	11696.602266111849	2
0	72213	11699.621200046939	1
0	72216	11700.043652041321	0
0	72220	11700.150382777033	1
0	72221	11700.681551506016	0
0	72230	11701.647662740688	1
0	72231	11701.856200999383	0
0	72250	11705.131695025534	1
0	72251	11705.806931116203	0
0	72255	11706.024815523046	1
0	72256	11706.645454223085	0
0	72260	11707.098197370846	1
0	72261	11707.306300503624	0
0	72290	11714.529382529815	1
0	72291	11715.094148530346	0
0	72295	11715.446098606218	1
0	72302	11716.255168808388	2
0	72303	11716.926170658274	1
0	72306	11717.334606922279	0
0	72310	11717.575545060612	1
0	72319	11718.275595655205	2
0	72323	11719.519796033204	1
0	72331	11720.443013600773	0
0	72340	11721.291735763751	1
0	72341	11721.818392205844	0
0	72350	11723.330904809536	1
0	72352	11723.498544350028	2
0	72353	11723.53344302387	1
0	72362	11724.489374596075	2
0	72364	11724.592173258631	3
0	72365	11724.928605132271	2
0	72368	11725.40281555811	1
0	72376	11726.675759674982	0
0	72385	11727.523584728307	1
0	72386	11727.976310683787	0
0	72390	11728.191508581078	1
0	72394	11728.626024651456	2
0	72398	11729.850449655065	1
0	72402	11730.25051942926	2
0	72403	11730.579539404716	1
0	72407	11730.710261698452	2
0	72409	11730.757393520364	3
0	72410	11731.171754483133	2
0	72414	11731.616451518237	3
0	72415	11731.838868131162	2
0	72421	11732.145952051914	3
0	72426	11733.233128890069	4
0	72427	11733.23832139261	3
0	72431	11733.249797915219	4
0	72433	11733.553729269225	5
0	72439	11734.723913503065	4
0	72442	11735.168904051044	3
0	72445	11735.887638739263	2
0	72448	11736.477328043617	1
0	72452	11736.885359137166	2
0	72453	11737.183121194038	1
0	72457	11737.193421411483	2
0	72458	11738.103481068555	1
0	72462	11738.595695424799	2
0	72463	11738.61118932967	1
0	72466	11739.237069741869	0
0	72475	11740.487569305794	1
0	72477	11740.668020404005	2
0	72478	11740.832694839066	1
0	72482	11740.948207771043	2
0	72483	11741.545267286603	1
0	72487	11741.916372931583	2
0	72489	11742.074005014423	3
0	72490	11742.24754172944	2
0	72494	11742.376388539556	3
0	72496	11742.606468302081	4
0	72497	11742.753247034489	3
0	72501	11743.497023355266	4
0	72502	11743.565864534243	3
0	72505	11744.474287872328	2
0	72508	11744.915499525875	1
0	72512	11745.175900724863	2
0	72513	11745.38125657773	1
0	72517	11745.455715854945	2
0	72518	11745.889245854163	1
0	72521	11746.669973322315	0
0	72530	11748.922994765083	1
0	72531	11749.492550016213	0
0	72535	11749.689066948488	1
0	72536	11750.151469823457	0
0	72562	11755.229379419516	1
0	72572	11756.380204912534	2
0	72588	11759.089303415476	1
0	72596	11760.291281811775	0
0	72600	11760.482485088639	1
0	72607	11761.060329418601	2
0	72609	11761.587502881427	3
0	72611	11761.635047149243	4
0	72612	11761.887707660928	3
0	72631	11764.335999280768	4
0	72632	11764.848080698608	3
0	72641	11765.459430790492	4
0	72643	11765.5239184649	5
0	72655	11767.200162396338	6
0	72686	11772.475091557179	5
0	72695	11773.551541217882	6
0	72696	11773.614261890549	5
0	72700	11773.814339037353	6
0	72701	11774.064392615363	5
0	72709	11775.442821599377	4
0	72718	11776.344197309666	5
0	72719	11777.109498335115	4
0	72722	11777.565459575757	3
0	72731	11778.448008034239	4
0	72740	11779.013835307059	5
0	72800	11788.23252328018	6
0	72801	11788.269300616926	5
0	72809	11789.62269151143	4
0	72815	11790.098480519894	5
0	72820	11791.147855794307	6
0	72821	11791.260926969184	5
0	72829	11793.034749924506	4
0	72837	11793.84969106299	5
0	72842	11794.614013871218	6
0	72846	11795.378178726065	5
0	72854	11796.301013491138	4
0	72862	11798.073755840886	3
0	72870	11798.486285029867	4
0	72877	11800.187588109983	3
0	72890	11802.503204864426	2
0	72898	11803.086324531957	3
0	72903	11803.264127126799	4
0	72907	11804.397795549477	3
0	72911	11804.470371284702	4
0	72918	11804.834434659083	5
0	72919	11805.788058047392	4
0	72928	11806.486607101007	5
0	72929	11806.888686330406	4
0	72937	11808.219926585791	3
0	72945	11809.324482359712	2
0	72949	11809.381623650865	3
0	72950	11809.76862605789	2
0	72954	11809.848694067297	3
0	72961	11811.241554905776	4
0	72962	11811.608335585169	3
0	72970	11813.118519125109	2
0	72979	11814.435372721219	3
0	72980	11814.534518947381	2
0	72983	11815.444498943047	1
0	72989	11815.705609057558	2
0	72991	11816.298826361314	3
0	72996	11816.889462016034	4
0	72997	11817.151534226	3
0	73000	11817.688113534892	2
0	73004	11817.693534402444	3
0	73005	11818.603208959544	2
0	73009	11818.855642434921	3
0	73010	11819.04249128017	2
0	73013	11820.009757892903	1
0	73017	11820.701295010693	2
0	73018	11820.979919455595	1
0	73021	11821.536309633752	0
0	73055	11829.481749051062	1
0	73056	11829.492604998645	0
0	73065	11830.63810286373	1
0	73067	11830.756106652474	2
0	73068	11831.091713149181	1
0	73076	11832.530343507636	0
0	73085	11833.301669358177	1
0	73102	11835.803238500371	2
0	73103	11836.084873984927	1
0	73119	11837.953497697842	2
0	73138	11841.395956489012	1
0	73147	11842.158427457942	2
0	73154	11843.159398288246	3
0	73155	11843.630260179784	2
0	73164	11844.7101188846	3
0	73165	11844.988368641432	2
0	73171	11845.122257324975	3
0	73176	11845.858967197855	4
0	73178	11846.304925300167	5
0	73179	11846.537439701646	4
0	73188	11847.798414675187	5
0	73189	11848.133928637193	4
0	73198	11849.100990190049	5
0	73199	11849.965231589447	4
0	73208	11851.400559667	5
0	73209	11851.403592621288	4
0	73212	11852.285091738668	3
0	73215	11853.248759602369	2
0	73219	11853.399242914277	3
0	73220	11853.806710637161	2
0	73224	11854.643184961193	3
0	73225	11854.723983286866	2
0	73228	11855.244701466882	1
0	73232	11855.319995254632	2
0	73233	11855.729021113771	1
0	73237	11856.134013313963	2
0	73238	11856.175501383687	1
0	73242	11856.668885820457	2
0	73243	11856.772127710222	1
0	73249	11857.380085774878	2
0	73253	11858.442153493208	1
0	73259	11858.743333924238	2
0	73266	11859.680409750953	3
0	73273	11860.356184616349	4
0	73292	11863.733276774488	3
0	73298	11863.989166330405	4
0	73308	11864.872537869521	5
0	73315	11865.528380088484	6
0	73326	11867.722944325242	5
0	73335	11868.659643070254	6
0	73351	11872.126399260932	5
0	73359	11873.659958519261	4
0	73362	11874.280431842558	3
0	73365	11875.138051857134	2
0	73369	11875.223138234144	3
0	73371	11875.456989559896	4
0	73372	11876.073816904133	3
0	73376	11876.114890177158	4
0	73378	11876.325562710295	5
0	73379	11876.906443929286	4
0	73383	11876.95970816903	5
0	73384	11877.307568960903	4
0	73392	11878.444460012983	3
0	73401	11879.14228612982	4
0	73402	11879.716211596118	3
0	73408	11879.946811833297	4
0	73413	11881.037345158331	5
0	73414	11881.628343276899	4
0	73417	11882.269202903598	3
0	73421	11882.533364299683	4
0	73422	11882.883396148808	3
0	73425	11883.396114832243	2
0	73429	11883.722203075755	3
0	73430	11884.181735000001	2
0	73433	11884.825957102036	1
0	73436	11885.316278880868	0
0	73450	11888.405952304571	1
0	73451	11888.591236973205	0
0	73475	11892.550276331686	1
0	73476	11892.609060319377	0
0	73482	11892.836764442464	1
0	73486	11893.741599347771	0
0	73492	11893.837742375047	1
0	73494	11893.869289864156	2
0	73496	11894.005268772872	3
0	73501	11894.635849036299	4
0	73502	11894.772134889199	3
0	73511	11896.182600858931	4
0	73512	11896.639757141427	3
0	73526	11898.440086493573	4
0	73532	11899.357283672834	3
0	73540	11900.447475093886	2
0	73543	11900.933515318766	1
0	73547	11901.039658430039	2
0	73549	11901.350170021445	3
0	73550	11901.557233448749	2
0	73553	11901.995572831951	1
0	73561	11903.15932268063	0
0	73625	11926.139812875458	1
0	73626	11926.506645423729	0
0	73652	11929.125796416438	1
0	73659	11930.672298063849	2
0	73688	11935.985113724549	1
0	73697	11936.811840244131	2
0	73699	11936.836256000408	3
0	73705	11938.009938438278	2
0	73716	11938.591206753694	3
0	73725	11940.310050977668	2
0	73741	11941.873443301988	3
0	73755	11943.901723435889	2
0	73758	11944.556844366104	1
0	73762	11944.610370302541	2
0	73773	11945.619730560747	3
0	73778	11946.332502751594	4
0	73792	11949.078491612285	3
0	73803	11949.872206433134	4
0	73815	11951.083698710665	5
0	73839	11955.773412957688	4
0	73862	11958.714741950769	5
0	73939	11970.345154798023	4
0	73947	11971.414320779211	3
0	73953	11972.109228920725	4
0	73957	11972.995168772192	3
0	73961	11973.128504458866	4
0	73967	11974.763838803061	3
0	73975	11976.281178757586	2
0	73998	11980.133384671472	1
0	74011	11982.549952975232	0
0	74024	11983.125528108222	1
0	74061	11989.848004709757	2
0	74103	11995.74077337807	1
0	74112	11996.950465111969	2
0	74113	11997.315916441977	1
0	74122	11998.207305022148	2
0	74123	11998.498470265921	1
0	74126	11999.224899871358	0
0	74140	12001.690612650461	1
0	74141	12001.914379181285	0
0	74160	12005.809800372936	1
0	74161	12006.236834136792	0
0	74165	12006.437143589239	1
0	74166	12006.665938489814	0
0	74170	12007.142306472864	1
0	74171	12007.421079603559	0
0	74237	12017.230449607806	1
0	74256	12020.295213746475	0
0	74315	12041.652294047035	1
0	74316	12042.07352401343	0
0	74320	12042.631964086996	1
0	74321	12043.047291591706	0
0	74335	12046.061417906299	1
0	74336	12046.51714854191	0
0	74347	12047.289471100716	1
0	74356	12048.977205264215	0
0	74415	12058.861461983954	1
0	74416	12059.002365309587	0
0	74420	12059.005880526862	1
0	74421	12059.948034541197	0
0	74430	12061.885016475781	1
0	74431	12062.0411801977	0
0	74437	12062.734903659492	1
0	74442	12062.957960686839	2
0	74444	12062.959256460869	3
0	74445	12063.586859135787	2
0	74448	12064.163569226666	1
0	74451	12064.886786144591	0
0	74455	12065.16947016307	1
0	74457	12065.292620958993	2
0	74458	12065.865033265893	1
0	74461	12066.862510369337	0
0	74480	12069.468816667093	1
0	74481	12070.355052497679	0
0	74485	12070.42693977705	1
0	74492	12071.168474801816	2
0	74493	12071.499418371752	1
0	74502	12072.184388104754	2
0	74519	12074.650803344221	3
0	74521	12074.978465827225	4
0	74522	12075.196533934888	3
0	74531	12076.376945111323	4
0	74532	12076.947639736276	3
0	74541	12077.773855348055	4
0	74542	12078.099151847766	3
0	74550	12079.283617112341	2
0	74554	12079.403084724299	3
0	74561	12079.790765039107	4
0	74562	12080.694659397632	3
0	74570	12081.988937296786	2
0	74579	12083.036438380965	3
0	74580	12083.398915817983	2
0	74584	12083.97807121146	3
0	74585	12084.269690850446	2
0	74589	12084.312696154421	3
0	74595	12085.585288165719	2
0	74599	12085.665503274549	3
0	74606	12086.556255828009	4
0	74607	12086.811345694051	3
0	74610	12087.551552599226	2
0	74614	12088.274635367407	3
0	74620	12089.506483249203	2
0	74624	12089.861898685971	3
0	74631	12090.352328047723	4
0	74633	12090.455530390296	5
0	74634	12090.735407823999	4
0	74642	12092.337984785041	3
0	74650	12093.527568844217	2
0	74656	12094.179264965582	3
0	74668	12095.983883960393	4
0	74677	12097.69642830987	3
0	74688	12098.679075291349	4
0	74692	12100.227480353765	3
0	74701	12101.450148065887	4
0	74702	12101.571808138467	3
0	74723	12103.97483624872	4
0	74742	12106.87161568997	3
0	74751	12107.604744650628	4
0	74753	12107.737171662311	5
0	74759	12108.993077379395	4
0	74767	12109.513931447137	5
0	74772	12109.971721864345	6
0	74801	12113.704678460174	7
0	74844	12120.2982748823	8
0	74865	12123.288199926609	7
0	74874	12124.694720138496	8
0	74875	12124.884128874889	7
0	74883	12126.480404850025	6
0	74887	12126.690179972217	7
0	74894	12127.622649299612	8
0	74895	12128.342222407017	7
0	74903	12129.483259128429	6
0	74911	12130.684522057208	5
0	74919	12132.366600829479	4
0	74923	12132.476761949501	5
0	74927	12133.09733827632	6
0	74932	12133.55841620815	7
0	74934	12133.641668240657	8
0	74935	12133.730429487978	7
0	74946	12134.751213225741	8
0	74958	12136.172114716391	9
0	74960	12136.76178147625	10
0	74969	12138.322738775867	9
0	74989	12140.527105168756	10
0	75019	12144.833549206867	9
0	75030	12145.811458507385	10
0	75032	12145.9800246696	11
0	75041	12147.032618073223	12
0	75046	12147.126677935039	13
0	75110	12156.619041289969	12
0	75118	12157.694630819487	11
0	75121	12158.397564524852	10
0	75130	12159.484146549037	11
0	75132	12159.702527469902	12
0	75133	12159.877579526484	11
0	75137	12159.987016970716	12
0	75143	12161.124164868353	11
0	75146	12162.031413242009	10
0	75149	12162.472406790892	9
0	75152	12163.157035542067	8
0	75156	12163.216818665397	9
0	75157	12163.608521091167	8
0	75161	12163.876803146557	9
0	75163	12164.078932407669	10
0	75164	12164.168720187873	9
0	75167	12164.750451702459	8
0	75170	12165.482534048029	7
0	75173	12166.429450704085	6
0	75177	12166.562817272288	7
0	75178	12166.960723423792	6
0	75181	12167.435312637474	5
0	75187	12167.72550698976	6
0	75189	12167.755355534278	7
0	75191	12167.786145648056	8
0	75196	12168.479946141353	9
0	75197	12168.650686429414	8
0	75201	12169.116989311629	9
0	75203	12169.398664500249	10
0	75204	12169.565947470834	9
0	75213	12170.307392921146	10
0	75214	12170.674189353055	9
0	75220	12171.199762486458	10
0	75224	12172.474573525899	9
0	75227	12173.244170754376	8
0	75236	12174.310468753042	9
0	75237	12174.578836907047	8
0	75245	12175.823931493071	7
0	75249	12176.067902324633	8
0	75251	12176.197125172737	9
0	75252	12176.477302593432	8
0	75255	12177.239944189109	7
0	75259	12177.704632556583	8
0	75260	12178.004664141938	7
0	75263	12179.002353703996	6
0	75266	12179.69569210347	5
0	75270	12179.842851408767	6
0	75272	12179.845708912191	7
0	75273	12180.431611645755	6
0	75277	12180.492707754528	7
0	75283	12181.639998154828	6
0	75286	12182.285788505917	5
0	75290	12182.313966514983	6
0	75292	12182.463987971396	7
0	75294	12182.519133978692	8
0	75296	12182.634688287379	9
0	75297	12182.965955396808	8
0	75300	12183.699865896927	7
0	75303	12184.277491670215	6
0	75307	12184.894980169401	7
0	75308	12185.168070552937	6
0	75311	12185.604816888665	5
0	75315	12185.688818261378	6
0	75322	12186.48266902988	7
0	75323	12187.302825336597	6
0	75329	12187.556398676398	7
0	75333	12188.341250607717	6
0	75337	12188.851338919798	7
0	75338	12188.975135717468	6
0	75342	12189.226602414711	7
0	75344	12189.444530002036	8
0	75345	12189.55687434829	7
0	75348	12189.982853645339	6
0	75357	12190.807483016255	7
0	75359	12190.994980770698	8
0	75361	12191.316992809807	9
0	75362	12191.404270924927	8
0	75366	12191.623085084165	9
0	75367	12192.121900637049	8
0	75376	12193.422721854959	9
0	75377	12193.524587663283	8
0	75386	12194.148428958959	9
0	75387	12194.508078672338	8
0	75390	12194.913623235069	7
0	75393	12195.805223554253	6
0	75399	12196.477597662902	7
0	75403	12197.114238047713	6
0	75412	12197.717114081545	7
0	75413	12198.132191377386	6
0	75422	12198.883449469526	7
0	75428	12200.119419645585	6
0	75436	12201.496640275578	5
0	75444	12202.727379178834	4
0	75450	12202.883640526065	5
0	75452	12202.890818990815	6
0	75457	12203.892556618673	7
0	75458	12204.502282591509	6
0	75464	12204.796662473433	7
0	75469	12205.832943568194	8
0	75470	12206.068326477725	7
0	75484	12207.672561703978	8
0	75485	12208.181720372587	7
0	75489	12208.315736140641	8
0	75495	12209.984653307283	7
0	75499	12210.33942756793	8
0	75506	12210.777940509748	9
0	75507	12211.339449342638	8
0	75510	12211.998731121113	7
0	75514	12212.250775697876	8
0	75518	12212.706845005345	9
0	75522	12213.259628003016	8
0	75530	12214.191736651882	7
0	75539	12215.318966458205	8
0	75540	12215.806106239622	7
0	75549	12216.937686888738	8
0	75550	12217.03328372335	7
0	75559	12217.968130266974	8
0	75561	12218.206658749387	9
0	75562	12218.447132584284	8
0	75571	12219.754263700841	9
0	75572	12219.81710501939	8
0	75581	12220.440221797632	9
0	75582	12221.015290756355	8
0	75585	12221.447204326157	7
0	75589	12221.493682481945	8
0	75590	12222.350414426549	7
0	75593	12223.205351831036	6
0	75602	12224.312652975328	7
0	75603	12224.900609964475	6
0	75612	12225.544662037036	7
0	75613	12226.357515809842	6
0	75621	12228.240852329106	5
0	75629	12229.675264313183	4
0	75638	12230.385761776053	5
0	75639	12230.968582707801	4
0	75643	12230.973122927105	5
0	75649	12232.66171865819	4
0	75652	12233.336881597172	3
0	75656	12233.485339943227	4
0	75657	12234.162434140844	3
0	75665	12235.318030089345	2
0	75671	12235.758431015028	3
0	75675	12236.397226385325	2
0	75683	12237.678196283448	1
0	75686	12238.538059062995	0
0	75690	12238.80168505825	1
0	75691	12239.260516931973	0
0	75702	12240.866329746022	1
0	75706	12242.058185212584	0
0	75710	12242.400371009269	1
0	75717	12242.85967775163	2
0	75718	12243.189115876415	1
0	75724	12243.663915512589	2
0	75726	12243.84007781855	3
0	75728	12243.905252243332	4
0	75732	12244.910817451718	3
0	75736	12244.935045464985	4
0	75738	12245.311058870789	5
0	75744	12246.605490082538	4
0	75747	12247.094454957674	3
0	75753	12247.265269834665	4
0	75758	12248.451106031295	5
0	75759	12248.561760732521	4
0	75763	12248.978330824605	5
0	75769	12250.09196696164	4
0	75775	12250.599186050871	5
0	75777	12250.873476219698	6
0	75781	12251.767035647518	5
0	75784	12252.17907088994	4
0	75787	12252.750134371211	3
0	75798	12253.539169482698	4
0	75800	12253.83558055533	5
0	75804	12254.919924685209	4
0	75812	12256.582188790514	3
0	75816	12257.04137046032	4
0	75822	12257.868789979619	3
0	75830	12259.037312272739	2
0	75838	12260.712627626432	1
0	75841	12261.40242730499	0
0	75845	12261.586196440154	1
0	75854	12262.462179516523	2
0	75868	12264.745377030165	1
0	75874	12265.170781236424	2
0	75878	12265.372285188684	3
0	75883	12266.268971214028	4
0	75892	12267.677072912768	3
0	75895	12268.10728013314	2
0	75901	12268.325965624016	3
0	75906	12269.182767057661	4
0	75917	12270.485440195898	3
0	75926	12271.550191068784	4
0	75927	12272.309875311177	3
0	75936	12273.231288776577	4
0	75937	12273.679902944049	3
0	75946	12274.324409609362	4
0	75948	12274.522327400744	5
0	75949	12274.821162320661	4
0	75957	12276.182807079038	3
0	75965	12277.333811417209	2
0	75969	12277.427003341396	3
0	75975	12278.974023701144	2
0	75978	12279.599939715476	1
0	75981	12280.437086746595	0
0	75985	12280.613702513996	1
0	75986	12280.844428988532	0
0	75990	12280.846671160705	1
0	76002	12282.921346125243	2
0	76003	12283.368425907274	1
0	76006	12283.914973616353	0
0	76020	12285.598417282265	1
0	76022	12285.717276544223	2
0	76023	12286.192859076727	1
0	76026	12287.192697753729	0
0	76050	12294.840358747996	1
0	76051	12295.469120358288	0
0	76065	12300.469861113488	1
0	76067	12301.066182029873	2
0	76068	12301.143366959988	1
0	76072	12301.238985096055	2
0	76074	12301.441679845614	3
0	76075	12302.027827126318	2
0	76078	12302.526198620647	1
0	76081	12303.226680131787	0
0	76085	12303.248831866231	1
0	76086	12303.965786710446	0
0	76090	12304.280576866513	1
0	76091	12304.848339233705	0
0	76095	12304.912795305092	1
0	76097	12305.23102072277	2
0	76099	12305.388049888997	3
0	76100	12305.478881020629	2
0	76103	12306.385978223867	1
0	76106	12306.879191182059	0
0	76115	12308.740113980406	1
0	76116	12309.111008138874	0
0	76140	12315.872847395743	1
0	76141	12316.025168794821	0
0	76145	12316.319113660008	1
0	76147	12316.636026924928	2
0	76148	12316.704491915842	1
0	76151	12317.293204571316	0
0	76155	12317.747283759397	1
0	76156	12318.277154129334	0
0	76165	12318.977054925804	1
0	76166	12319.457405093648	0
0	76170	12319.566167331743	1
0	76171	12320.377345402781	0
0	76175	12320.802119117072	1
0	76181	12321.797358869351	0
0	76215	12327.08670053002	1
0	76216	12327.458370706592	0
0	76225	12328.576677462364	1
[...]
9	133200	21116.347605646487	1
9	133203	21116.77440059757	2
9	133205	21116.955419808197	1
9	133211	21117.845790684913	2
9	133215	21118.185004384054	1
9	133223	21118.770322828825	2
9	133237	21119.861560701846	1
9	133239	21120.122820111712	0
9	133306	21128.629904469047	1
9	133308	21128.732553804759	0
9	133311	21129.477045048438	1
9	133313	21130.22200770239	0
9	133316	21130.261564481482	1
9	133318	21130.277595147078	0
9	133321	21130.807013440402	1
9	133323	21130.830034887814	0
9	133419	21144.869326703614	1
9	133421	21145.070153387839	0
9	133432	21146.821189099914	1
9	133434	21147.647446170814	0
9	133445	21148.958522689381	1
9	133447	21149.128656678286	0
9	133455	21150.323530261164	1
9	133457	21150.42795608791	0
9	133503	21156.284220620237	1
9	133508	21156.884084551471	0
9	133542	21160.820817145185	1
9	133545	21161.372477508142	2
9	133548	21161.799016090614	3
9	133550	21162.04312219327	2
9	133552	21162.348690042285	1
9	133554	21162.49238836524	0
9	133599	21167.990226778148	1
9	133601	21168.130216986413	0
9	133875	21209.665231717884	1
9	133877	21209.935986905404	0
9	135034	21386.003196854613	1
9	135036	21386.095832936492	0
9	135073	21390.150891152866	1
9	135082	21391.513768427682	0
9	135123	21397.12437039968	1
9	135125	21397.914148555959	0
9	135180	21405.032033917405	1
9	135182	21405.119018574874	0
9	135611	21476.225736281252	1
9	135613	21476.242429306278	0
9	135881	21515.186846450423	1
9	135886	21515.731023168492	0
9	135899	21517.205830249828	1
9	135908	21518.362862327314	0
9	136074	21542.462030728374	1
9	136076	21542.9025534139	0
9	136141	21550.878625276525	1
9	136143	21551.019384475007	0
9	136154	21552.455680401836	1
9	136164	21553.402952947308	2
9	136166	21553.546921692285	1
9	136168	21553.576672913994	0
9	136179	21555.480447341156	1
9	136186	21556.901712585886	0
9	136862	21715.908947530579	1
9	136864	21716.179773981581	0
9	137319	21835.705399831207	1
9	137321	21835.961173120899	0
9	138457	22007.174294066815	1
9	138459	22007.261942290415	0
9	139436	22215.085366170767	1
9	139438	22215.140591873	0
9	139441	22215.526804928209	1
9	139443	22215.554736336894	0
9	139471	22219.945255493332	1
9	139473	22220.273136145694	0
9	139476	22220.847240194544	1
9	139481	22221.512290635666	0
9	139721	22257.806121849329	1
9	139723	22258.115616278325	0
9	139755	22262.434293761072	1
9	139760	22263.679776548961	0
9	140086	22310.912928867878	1
9	140094	22312.368729597603	0
9	140118	22314.797855913246	1
9	140120	22315.087292707566	0
9	140196	22326.242456222817	1
9	140198	22326.326628694658	0
9	140234	22332.141286156213	1
9	140239	22332.701790242814	0
9	140363	22348.524850067102	1
9	140365	22348.545232509288	0
9	140398	22352.59147429655	1
9	140405	22353.24356692841	2
9	140407	22353.594948779788	1
9	140409	22353.848865867966	0
9	140457	22359.718876985767	1
9	140460	22360.177822568947	2
9	140465	22361.039451016622	1
9	140469	22361.41140669193	0
9	140499	22365.18313530323	1
9	140501	22365.581329080936	0
9	140504	22365.951455301213	1
9	140507	22366.616475032902	2
9	140509	22366.820778739568	1
9	140518	22367.097057816802	0
9	140546	22371.514098057457	1
9	140548	22371.805814370886	0
9	140561	22373.573676537004	1
9	140563	22373.623640603993	0
9	140622	22380.448681664633	1
9	140624	22380.576003476203	0
9	140694	22390.696253967358	1
9	140699	22391.589999589154	0
9	140771	22401.439077095668	1
9	140773	22401.863651306391	0
9	140799	22405.046730076129	1
9	140801	22405.410316800489	0
9	140814	22407.012258367453	1
9	140816	22407.469809536638	0
9	140848	22411.538877130511	1
9	140850	22411.749111165616	0
9	140866	22413.954480734446	1
9	140868	22413.968640045142	0
9	141411	22489.746764351268	1
9	141413	22489.753179310017	0
9	141440	22493.314420216138	1
9	141442	22493.79132896971	0
9	141750	22544.955171991898	1
9	141755	22545.484489722312	0
9	142247	22612.199781836069	1
9	142249	22612.480917335996	0
9	142264	22613.966919854761	1
9	142266	22614.014415377516	0
9	142294	22618.196097328294	1
9	142296	22618.281378274613	0
9	142330	22622.81828584989	1
9	142332	22623.071820837734	0
9	142380	22629.919121393947	1
9	142382	22629.929360282575	0
9	143423	22776.363385451081	1
9	143426	22776.86784734452	2
9	143428	22777.147194842967	1
9	143430	22777.595026772354	0
9	143500	22786.514239929577	1
9	143502	22786.538988620501	0
9	143513	22788.752547614004	1
9	143515	22788.911623509545	0
9	143564	22796.894338788612	1
9	143566	22796.897579017019	0
9	144063	22865.721603692796	1
9	144069	22866.185125961448	0
9	145072	23010.125849227955	1
9	145074	23010.359215574292	0
9	145491	23069.614960505783	1
9	145493	23069.89437091525	0
9	145713	23104.590920481621	1
9	145718	23105.265543035614	0
9	145754	23110.714078495907	1
9	145756	23111.364047732752	0
9	145807	23118.834417782884	1
9	145811	23119.548196220743	0
9	146411	23223.713682704185	1
9	146413	23224.308243160772	0
9	146496	23237.158824932065	1
9	146498	23237.379711627964	0
9	146705	23288.669262651651	1
9	146706	23288.679366098064	0
9	146761	23296.777622022899	1
9	146766	23297.964900584071	0
9	146791	23301.30492089009	1
9	146793	23301.613900468053	0
9	147545	23411.820474304079	1
9	147546	23412.12578826921	0
9	147919	23477.312707228318	1
9	147923	23477.670672910603	0
9	147948	23481.827035364009	1
9	147950	23482.566748572808	0
9	147963	23484.460556142743	1
9	147965	23484.505066220262	0
9	147993	23488.223680028145	1
9	147998	23489.382918038671	0
9	148018	23491.356446709123	1
9	148020	23491.818234431286	0
9	148989	23663.24225318613	1
9	148991	23663.847005662254	0
9	149065	23676.078746617346	1
9	149066	23677.232622291342	0
9	149070	23677.636937426411	1
9	149071	23678.08173132655	0
9	149097	23681.820100020103	1
9	149099	23681.894554271583	0
9	149340	23728.972995540972	1
9	149341	23729.337038588893	0
9	149350	23730.966091267994	1
9	149351	23731.454245938977	0
9	149567	23775.562716997939	1
9	149572	23776.810048063723	0
9	154036	24473.08470778462	1
9	154038	24473.234497692271	0
9	154260	24503.479360948981	1
9	154262	24503.652108541767	0
9	154384	24519.431659975195	1
9	154386	24519.512198915918	0
9	154997	24613.662278709588	1
9	154999	24613.72854605406	0
9	155025	24617.39008738122	1
9	155030	24618.684559511817	0
9	155287	24652.917645944217	1
9	155289	24653.010120336565	0
9	155447	24676.510570302633	1
9	155449	24676.64354335085	0
9	155472	24679.842009671899	1
9	155474	24679.966188451311	0
9	155886	24736.306476773671	1
9	155888	24736.882581855866	0
9	155891	24737.135925107193	1
9	155893	24737.375145327341	0
9	155955	24746.539635266434	1
9	155958	24746.973897176306	2
9	155960	24747.002745001813	1
9	155962	24747.430777484186	0
9	155973	24749.470407254179	1
9	155975	24749.518915566105	0
9	156263	24788.640235498242	1
9	156275	24790.317362932038	0
9	156303	24793.670154966202	1
9	156305	24793.862207143176	0
9	157349	24953.075035446729	1
9	157354	24953.913720271579	0
9	157679	25003.562267831478	1
9	157683	25003.851541553615	0
9	157686	25004.184943701418	1
9	157688	25004.424800917279	0
9	157691	25004.755181016771	1
9	157693	25004.896347431674	0
9	157704	25006.559944562286	1
9	157706	25006.90080590469	0
9	157731	25010.085401887911	1
9	157733	25010.536298015328	0
9	157748	25011.961553744271	1
9	157750	25012.208842089669	0
9	157753	25012.86335084955	1
9	157755	25013.444781908928	0
9	157758	25013.613663865251	1
9	157762	25013.852537609221	0
9	157799	25018.279006766573	1
9	157801	25018.360559955713	0
9	157818	25020.141586911864	1
9	157820	25020.275997243443	0
9	157823	25020.787298863381	1
9	157827	25021.180894787708	0
9	157844	25022.941399266337	1
9	157846	25022.94178035692	0
9	157879	25028.439662563938	1
9	157881	25028.490278118829	0
9	157884	25029.099978398809	1
9	157886	25029.332106414124	0
9	157911	25032.75825321758	1
9	157913	25033.003609946838	0
9	157916	25033.379144599892	1
9	157919	25033.986170657256	2
9	157921	25034.45379295532	1
9	157923	25034.528780465897	0
9	157941	25036.753122558722	1
9	157943	25036.809784887598	0
9	158024	25049.283176357856	1
9	158026	25049.538341203951	0
9	158029	25049.908487435568	1
9	158031	25050.580989683469	0
9	158034	25050.642907931328	1
9	158037	25051.264438021647	2
9	158039	25051.367823358499	1
9	158042	25052.230173849918	2
9	158045	25052.834958408678	3
9	158047	25052.956052980931	2
9	158049	25053.352335447462	1
9	158054	25053.476218596787	0
9	159215	25231.097947177613	1
9	159217	25231.502881698302	0
9	159272	25238.467490356458	1
9	159274	25239.023860460228	0
9	159287	25240.597139140215	1
9	159289	25241.112516790183	0
9	159872	25362.180112445232	1
9	159876	25362.914491782701	0
9	159899	25365.568980998864	1
9	159901	25365.878084215331	0
9	159947	25372.009029915082	1
9	159949	25372.205951711809	0
9	159962	25373.78071443745	1
9	159964	25374.179721958395	0
9	159992	25378.647940690807	1
9	159996	25379.215950241128	0
9	160759	25562.799299023139	1
9	160761	25563.344849733189	0
9	160764	25563.468938257058	1
9	160766	25563.893001225728	0
9	160769	25564.155256446755	1
9	160771	25564.255984500083	0
9	160774	25564.954144695193	1
9	160776	25565.247270735824	0
9	160779	25565.722168082908	1
9	160782	25566.302441711981	2
9	160786	25567.054062201943	1
9	160791	25567.203898028355	2
9	160793	25567.316484777036	1
9	160798	25567.7536318796	2
9	160800	25567.799567122917	1
9	160802	25567.966416388742	0
9	161893	25722.961428164558	1
9	161901	25723.168479080822	0
9	163384	25933.70971813328	1
9	163389	25934.928212654321	0
9	163776	25987.69706305652	1
9	163778	25988.064611007483	0
9	163949	26009.416702556702	1
9	163954	26010.065049539691	2
9	163958	26010.571877732412	1
9	163960	26010.729271633837	0
9	164044	26022.224034579467	1
9	164046	26022.643703310986	0
9	164064	26025.094370124113	1
9	164066	26025.266170428156	0
9	164079	26027.097615363259	1
9	164088	26027.955497323637	0
9	164380	26069.778839200825	1
9	164382	26069.810029525055	0
9	164400	26072.812275235306	1
9	164403	26073.552305221416	2
9	164405	26074.144517772662	1
9	164407	26074.215224590403	0
9	164460	26081.374293866751	1
9	164462	26081.53019738051	0
9	164477	26083.875068091459	1
9	164482	26084.685035345608	2
9	164485	26085.54957452514	3
9	164490	26086.803141807958	2
9	164498	26087.471207299174	3
9	164500	26087.528250064495	2
9	164506	26088.365360228854	3
9	164508	26088.507933640446	2
9	164510	26088.547420664605	1
9	164512	26088.65188729667	0
9	164542	26092.412767009667	1
9	164545	26092.963469393316	2
9	164547	26093.230826185468	1
9	164549	26093.503215672055	0
9	164620	26104.979057402627	1
9	164622	26105.341650425305	0
9	164702	26115.586352894637	1
9	164704	26115.703466841705	0
9	164714	26116.73637994411	1
9	164716	26116.902948224412	0
9	164734	26119.008379502172	1
9	164736	26119.310700427378	0
9	164751	26121.263026319348	1
9	164753	26122.148509226375	0
9	164756	26122.214303361854	1
9	164760	26122.442657559635	0
9	164973	26153.008226121538	1
9	164975	26153.46344582702	0
9	165167	26180.378479547513	1
9	165169	26180.585302856073	0
9	165860	26279.147085801228	1
9	165862	26279.487022993177	0
9	165913	26286.551854697752	1
9	165920	26287.584094053443	0
9	165923	26287.960271430106	1
9	165925	26288.034685552713	0
9	166247	26335.496376351853	1
9	166249	26335.878976764724	0
9	167699	26615.39997357642	1
9	167701	26615.661471920463	0
9	167707	26616.699251977072	1
9	167709	26616.709586220032	0
9	167776	26625.006905518469	1
9	167778	26625.075198249695	0
9	167818	26630.442732496231	1
9	167825	26630.955488969989	0
9	167884	26639.703853299187	1
9	167886	26639.968053242103	0
9	168003	26655.482360839937	1
9	168005	26655.95327604941	0
9	168016	26657.109808260762	1
9	168018	26657.290240804638	0
9	168043	26660.703060737533	1
9	168045	26660.762200957538	0
9	168048	26661.30300216349	1
9	168050	26661.439402934313	0
9	168922	26786.229928242707	1
9	168925	26786.676305856382	2
9	168927	26787.172613006788	1
9	168932	26787.300464022888	0
9	168935	26787.644666110597	1
9	168938	26788.117460691196	2
9	168940	26788.211366852784	1
9	168944	26788.58328213039	0
9	169021	26799.198073697567	1
9	169023	26799.306447189492	0
9	169031	26800.48466795372	1
9	169033	26800.655022721408	0
9	169090	26808.768003528668	1
9	169092	26808.887624888686	0
9	169107	26810.861543057216	1
9	169110	26811.815603553606	2
9	169112	26811.840035243922	1
9	169114	26811.886012932372	0
9	169122	26813.582431861861	1
9	169124	26813.774346847708	0
9	169127	26814.086931317682	1
9	169129	26814.158504347424	0
9	169132	26814.591592117455	1
9	169134	26814.648807173347	0
9	169144	26816.420557608931	1
9	169149	26817.18957333908	0
9	169177	26821.945867667589	1
9	169181	26822.278696651303	0
9	169227	26829.361896049985	1
9	169231	26829.720139257822	0
9	169464	26863.203915315826	1
9	169466	26863.251776257476	0
9	169474	26864.105311799754	1
9	169476	26864.198648141927	0
9	169491	26866.167734017788	1
9	169493	26866.244100977526	0
9	169518	26869.395590076601	1
9	169520	26869.826503897996	0
9	169609	26881.090795159765	1
9	169611	26881.134226004883	0
9	169664	26887.474734332977	1
9	169671	26888.842492353176	0
9	169699	26892.817321555509	1
9	169709	26893.745274920419	0
9	169768	26901.57555296473	1
9	169771	26902.140884220281	2
9	169773	26902.189657297417	1
9	169775	26902.369217420402	0
9	169982	26933.698512354639	1
9	169987	26934.78244002143	0
9	170965	27068.627486942858	1
9	170970	27069.555007737441	0
9	171005	27074.387499154554	1
9	171007	27074.829869889256	0
9	171852	27225.998670600785	1
9	171854	27226.333513502268	0
9	171917	27235.617656489981	1
9	171919	27236.011460752561	0
9	171959	27241.239402313603	1
9	171966	27242.202658685974	0
9	171972	27243.716555800129	1
9	171974	27243.989656515872	0
9	171991	27245.842233242913	1
9	171993	27246.442670880089	0
9	171999	27247.230899915312	1
9	172001	27247.312343830385	0
9	172028	27250.890756505802	1
9	172030	27250.891833942088	0
9	172524	27341.994204649403	1
9	172526	27342.047751155249	0
9	172534	27343.309381167012	1
9	172536	27343.437569688593	0
9	172554	27346.270766658967	1
9	172556	27346.398912531656	0
9	172704	27366.126990028541	1
9	172708	27366.433887263553	0
9	173770	27533.55287370886	1
9	173774	27533.981786638529	0
9	173780	27534.453271713521	1
9	173782	27534.476192872675	0
9	173834	27540.838107212021	1
9	173836	27540.994984495666	0
9	173962	27560.366761423919	1
9	173964	27560.528794424329	0
9	174217	27598.569660201569	1
9	174219	27598.726774197087	0
9	174239	27601.777298617962	1
9	174241	27602.079216515683	0
9	175615	27829.673297264455	1
9	175616	27830.159784147485	0
9	175620	27830.980353637568	1
9	175626	27833.686251805445	0
9	175769	27857.97748401149	1
9	175771	27858.077442052735	0
9	177001	28110.257950230879	1
9	177003	28110.628492196873	0
9	177173	28133.605494260887	1
9	177175	28133.676150154137	0
9	177202	28136.919097387097	1
9	177204	28137.481002569952	0
9	177207	28137.874339052201	1
9	177209	28137.988228846474	0
9	177280	28147.467848065129	1
9	177282	28147.551752732734	0
9	177290	28148.598311520979	1
9	177292	28148.694947353212	0
9	177300	28149.831498540385	1
9	177302	28150.07361404507	0
9	177777	28217.674029761886	1
9	177779	28218.195273921941	0
9	178064	28260.22097834019	1
9	178066	28260.339890303599	0
9	178475	28321.808599496876	1
9	178477	28322.332992022606	0
9	178480	28322.578207122545	1
9	178482	28322.877119948098	0
9	178570	28336.454033298244	1
9	178572	28336.454048815888	0
9	178615	28342.390024279722	1
9	178617	28342.531711898971	0
9	178620	28343.063951820054	1
9	178622	28343.336669393511	0
9	178625	28343.874839619093	1
9	178629	28344.66647204671	0
9	179633	28526.805274540241	1
9	179635	28527.172132083699	0
9	179686	28533.359162033032	1
9	179693	28534.479888931854	0
9	179696	28534.550299359029	1
9	179698	28534.700492781337	0
9	179771	28545.762184126358	1
9	179773	28546.341298006537	0
9	179776	28546.585621825894	1
9	179778	28546.656290972066	0
9	179812	28550.189638081574	1
9	179814	28550.619987589628	0
9	179817	28550.911245634555	1
9	179820	28551.351845198087	2
9	179822	28551.463887305023	1
9	179825	28551.848842642838	2
9	179830	28552.575415273858	3
9	179832	28552.65771988813	2
9	179835	28553.295176782794	3
9	179837	28553.88683241858	2
9	179843	28554.461689564501	3
9	179845	28554.64280356931	2
9	179850	28554.945054358457	1
9	179852	28555.374835251762	0
9	179990	28575.709186877224	1
9	179992	28576.149476259033	0
9	180018	28580.268705644558	1
9	180020	28580.932478393988	0
9	180071	28586.987455477385	1
9	180073	28587.175136278341	0
9	180076	28587.743870118778	1
9	180078	28587.818055581567	0
9	180093	28589.992326046486	1
9	180095	28590.120292636012	0
9	180101	28591.530028753501	1
9	180103	28592.202242487156	0
9	180106	28592.251215621276	1
9	180108	28592.76743193615	0
9	180111	28592.870289604418	1
9	180113	28593.206429868338	0
9	180116	28593.852564918907	1
9	180118	28594.622048678379	0
9	180121	28594.845729806698	1
9	180123	28594.877901265278	0
9	180146	28597.942381371563	1
9	180148	28598.075709228039	0
9	180156	28599.238616565946	1
9	180158	28599.433642071656	0
9	180161	28599.699259026167	1
9	180163	28599.712252520996	0
9	180171	28600.913942553294	1
9	180175	28601.428056536057	0
9	180178	28601.613146503694	1
9	180180	28601.685281835458	0
9	180280	28617.30497866185	1
9	180287	28617.955393872709	0
9	181565	28799.501682462388	1
9	181567	28799.854151966909	0
9	181580	28801.568680638805	1
9	181582	28801.605715749045	0
9	181597	28803.390089402239	1
9	181601	28803.654750602237	0
9	181671	28812.917116601749	1
9	181673	28813.292247429808	0
9	181713	28818.987604923251	1
9	181715	28819.159961548642	0
9	181728	28821.506466985711	1
9	181732	28821.760706274032	0
9	181779	28828.378060890345	1
9	181781	28828.763421478085	0
9	181808	28832.327393936023	1
9	181810	28832.385986264465	0
9	181828	28835.133400381852	1
9	181830	28835.360476609507	0
9	181833	28836.093495867385	1
9	181835	28836.122363179829	0
9	181848	28838.076720589104	1
9	181850	28838.370356473181	0
9	181863	28840.295633623594	1
9	181868	28840.821392963246	0
9	181892	28843.327049848468	1
9	181894	28843.418216082961	0
9	181915	28846.272437389644	1
9	181917	28846.39004963261	0
9	181930	28848.528741030797	1
9	181932	28848.689812364137	0
9	182018	28859.79454157984	1
9	182030	28861.54267458956	0
9	182063	28866.120226803684	1
9	182065	28866.148611467083	0
9	182526	28931.474565391507	1
9	182533	28932.340379765708	2
9	182535	28932.601057993078	1
9	182538	28933.256190747567	2
9	182541	28933.680284325671	3
9	182544	28934.668928716597	4
9	182546	28934.69835197244	3
9	182554	28935.606739817965	4
9	182556	28935.676321348144	3
9	182563	28936.615923360813	2
9	182567	28937.042469355395	1
9	182572	28937.322296150233	0
9	182596	28941.078017089595	1
9	182598	28941.507748036774	0
9	182688	28953.748453077939	1
9	182690	28953.937522896601	0
9	182897	28983.597836712408	1
9	182899	28983.690019047225	0
9	183649	29091.624736064698	1
9	183651	29091.633259458948	0
9	183705	29097.963199940211	1
9	183707	29097.985323249529	0
9	183800	29110.159936135848	1
9	183805	29110.631825541033	2
9	183807	29110.969668693838	1
9	183810	29111.389337271292	2
9	183816	29112.770623962375	3
9	183821	29113.741461033026	2
9	183823	29113.785970063018	1
9	183825	29113.922579986138	0
9	183852	29117.174713784158	1
9	183854	29117.36789434181	0
9	183877	29120.91865674912	1
9	183879	29120.924612665736	0
9	184137	29159.092340528665	1
9	184139	29159.508396592381	0
9	184298	29181.749408454659	1
9	184302	29182.180967768935	0
9	185310	29324.748355165013	1
9	185312	29324.817857084221	0
9	185335	29327.982797381917	1
9	185337	29328.055994315794	0
9	185370	29332.944788422885	1
9	185372	29333.323585420526	0
9	185843	29401.081402575667	1
9	185845	29401.492729558537	0
9	185848	29401.666144492128	1
9	185850	29401.734035045866	0
9	185853	29402.284426042321	1
9	185855	29402.329047116167	0
9	185883	29406.127482101905	1
9	185885	29406.316853450396	0
9	185895	29407.646102775332	1
9	185897	29407.853639355366	0
9	186397	29493.758860484731	1
9	186399	29494.344658533468	0
9	186432	29498.304524221305	1
9	186434	29498.387808736401	0
9	187459	29712.285222490803	1
9	187461	29712.74643141173	0
9	187958	29798.071462455605	1
9	187960	29798.428504327892	0
9	187963	29798.482762109469	1
9	187965	29798.555979803329	0
9	188697	29921.059592152435	1
9	188699	29921.211259122667	0
9	188911	29977.46898574719	1
9	188913	29977.937218243476	0

