version 2
run First_exit_9-19-20191023-00:19:58-5201
attr configname First_exit_9
attr datetime 20191023-00:19:58
attr experiment First_exit_9
attr inifile omnetpp.ini
attr iterationvars ""
attr iterationvarsf ""
attr measurement ""
attr network ResponseTimeNetwork
attr processid 5201
attr repetition 19
attr replication #19
attr resultdir results
attr runnumber 19
attr seedset 19
param **.Source.interArrivalTime exponential(4s)
param **.jobPriority bernoulli(0.4)
param **.PS.serviceTimeU1 "uniform(0.4s, 1.0s)"
param **.PS.serviceTimeU2 "uniform(1s, 1.2s)"
param **.SS1.serviceTime exponential(0.4s)
param **.SS2.serviceTime exponential(0.8s)
param **.PS.exitProbability bernoulli(0.9)

vector 0 ResponseTimeNetwork.SS1 queueLength:vector ETV
attr interpolationmode sample-hold
attr title "queue length, vector"
vector 1 ResponseTimeNetwork.SS2 queueLength:vector ETV
attr interpolationmode sample-hold
attr title "queue length, vector"
vector 2 ResponseTimeNetwork.QueueU1 queueLength:vector ETV
attr interpolationmode sample-hold
attr title "queue length, vector"
vector 3 ResponseTimeNetwork.QueueU2 queueLength:vector ETV
attr interpolationmode sample-hold
attr title "queue length, vector"
vector 4 ResponseTimeNetwork.sink lifeTimeU1:vector ETV
attr interpolationmode none
attr title "lifetime of arrived jobs U1, vector"
attr unit s
vector 5 ResponseTimeNetwork.sink lifeTime:vector ETV
attr interpolationmode none
attr title "lifetime of arrived jobs, vector"
attr unit s
vector 6 ResponseTimeNetwork.sink lifeTimeU2:vector ETV
attr interpolationmode none
attr title "lifetime of arrived jobs U2, vector"
attr unit s
2	0	0	0
2	20	3.136400927035	1
2	21	3.970342490666	0
2	40	7.165772824609	1
2	43	7.46463260172	0
2	47	7.741618977792	1
2	48	8.223106185264	0
2	55	9.030419623375	1
2	57	9.11054112756	2
2	58	9.574921897064	1
2	63	10.198678189154	0
2	70	11.367373938351	1
2	71	11.700952194363	0
2	75	11.742006314289	1
2	76	12.18698923384	0
2	90	13.655224466155	1
2	95	14.187597886251	0
2	104	14.807569994955	1
2	107	15.26385506495	0
2	116	16.010277520285	1
2	117	16.58960156507	0
2	126	17.434310666555	1
2	127	17.98297797382	0
2	149	20.456438456366	1
2	150	21.051069725921	0
2	164	22.178487273216	1
2	167	22.988636847969	0
2	174	24.051291957106	1
2	175	24.440858786098	0
2	184	25.511711590581	1
2	185	25.802089837484	0
2	192	26.695838982801	1
2	195	27.521319165697	0
2	202	28.452464363895	1
2	203	29.122768553451	0
2	210	30.056501147226	1
2	213	30.343560865113	0
2	224	31.547903271748	1
2	225	31.673052222572	0
2	239	33.397624762644	1
2	240	33.763798667828	0
2	244	33.929517773736	1
2	245	34.733459139813	0
2	249	34.937900738314	1
2	252	35.564639465103	0
2	256	35.72797611193	1
2	257	36.391079067124	0
2	261	36.596041369566	1
2	262	37.3657850274	0
2	269	38.345782480533	1
2	270	38.884258523688	0
2	279	39.532187854576	1
2	280	40.225105127145	0
2	289	41.228724395425	1
2	290	41.663208405545	0
2	294	41.788542864534	1
2	301	42.411093341757	0
2	308	43.299383698486	1
2	310	43.335033756947	2
2	312	43.371102242034	3
2	313	43.941087513614	2
2	318	44.83108187901	1
2	322	44.993125364176	2
2	323	45.825840731255	1
2	327	45.897349155637	2
2	328	46.815902202494	1
2	331	47.626233934482	0
2	335	48.095524596362	1
2	336	48.543177100375	0
2	340	48.989351818549	1
2	341	49.15171173854	0
2	345	49.403006242336	1
2	347	49.486551243956	2
2	348	49.635945246846	1
2	352	49.80720414962	2
2	353	50.351675529883	1
2	356	50.862578029942	0
2	360	50.954167145726	1
2	361	51.762414055422	0
2	365	51.823688776271	1
2	366	52.442578562779	0
2	370	53.2828337862	1
2	371	53.356943244172	0
2	377	53.854785393001	1
2	378	54.214317513222	0
2	382	54.652072520204	1
2	383	55.091799984325	0
2	387	55.351149145196	1
2	388	55.883219329372	0
2	395	56.599259471736	1
2	397	56.635911689333	2
2	398	57.25616725852	1
2	401	57.816406845546	0
2	405	57.839693046378	1
2	408	58.410983236286	0
2	415	59.203812073125	1
2	416	59.612737934536	0
2	423	60.058671397458	1
2	424	60.819004528423	0
2	431	61.349546369425	1
2	434	62.049188489898	0
2	446	63.892844437493	1
2	447	64.363226559537	0
2	456	65.169458562827	1
2	457	65.26991772434	0
2	470	66.182615381553	1
2	471	66.290459620685	0
2	482	66.947762059619	1
2	485	67.441899926087	0
2	494	68.043683493607	1
2	495	68.383456138347	0
2	499	68.712976305657	1
2	500	69.075273574575	0
2	504	69.092611614964	1
2	505	69.918976022176	0
2	509	70.062494376553	1
2	510	70.361023576384	0
2	514	70.721303665663	1
2	515	70.830552516238	0
2	519	70.90637006788	1
2	520	71.738750265318	0
2	524	72.025811206296	1
2	525	72.410817608901	0
2	529	72.714860560556	1
2	530	72.951044014341	0
2	534	73.078435647856	1
2	535	73.394110614772	0
2	539	73.809415484832	1
2	540	74.249095556106	0
2	544	74.369340222433	1
2	545	75.240126804042	0
2	555	76.267995280047	1
2	557	76.52774191831	2
2	560	76.910290284328	1
2	563	77.712121890452	0
2	567	78.575282585067	1
2	569	78.59198905911	2
2	570	78.620352797782	1
2	576	78.856014032873	2
2	578	79.231434875961	3
2	579	79.49094054486	2
2	583	79.579804377371	3
2	584	80.109866135487	2
2	588	80.151271482147	3
2	590	80.435993750128	4
2	591	80.922326082423	3
2	594	81.392281780591	2
2	597	82.04728350785	1
2	601	82.072792751162	2
2	602	82.463767313784	1
2	606	82.614991301405	2
2	608	82.622067246182	3
2	609	83.072690834677	2
2	613	83.49368741783	3
2	614	83.608397820605	2
2	618	83.749499491203	3
2	620	83.850995620432	4
2	621	84.058006854508	3
2	625	84.148882972794	4
2	626	84.912628531702	3
2	630	85.000570563814	4
2	631	85.780935737411	3
2	635	86.119640874797	4
2	636	86.380985976257	3
2	640	86.483043899438	4
2	641	86.976363535146	3
2	644	87.465180946621	2
2	648	87.747987899527	3
2	650	88.123729338924	4
2	651	88.250212580585	3
2	657	88.507776138915	4
2	658	88.765779981916	3
2	662	88.832682178513	4
2	665	89.245677895625	3
2	669	89.353702632686	4
2	670	89.784954118603	3
2	674	90.33359565213	4
2	675	90.647818285567	3
2	679	90.816693794231	4
2	680	91.341973636034	3
2	684	91.606778882583	4
2	685	91.916093407446	3
2	689	92.124338021588	4
2	690	92.371551722163	3
2	693	93.244517615499	2
2	697	93.491562111018	3
2	698	94.119670273192	2
2	702	94.440178816541	3
2	703	94.915453500921	2
2	707	95.176524028357	3
2	708	95.608304899667	2
2	712	95.976631292175	3
2	713	96.214524286302	2
2	718	96.619427066125	1
2	722	96.824034968062	2
2	724	97.1295490804	3
2	725	97.442826585952	2
2	729	97.543511517215	3
2	730	98.100701333597	2
2	734	98.144160255015	3
2	735	98.960794199878	2
2	738	99.777484266335	1
2	742	100.119731910712	2
2	744	100.138911173735	3
2	745	100.427807486538	2
2	749	100.984851368338	3
2	750	101.273786611032	2
2	754	101.518597932689	3
2	755	101.881993053263	2
2	758	102.520974853976	1
2	762	102.960093244696	2
2	763	103.043295471013	1
2	767	103.455412422152	2
2	768	103.481373949597	1
2	771	104.13490753329	0
2	777	104.585949022075	1
2	778	105.017627388394	0
2	782	105.057244173421	1
2	784	105.425523432828	2
2	786	105.74198432236	3
2	787	105.956584445728	2
2	791	105.959402269543	3
2	792	106.562493827814	2
2	796	106.960224681431	3
2	797	107.399564402845	2
2	802	108.337703839891	1
2	806	108.684205124914	2
2	808	108.91574921483	3
2	809	109.106655774281	2
2	815	109.236330597373	3
2	818	109.914292552431	2
2	822	110.367913464022	3
2	823	110.748862611285	2
2	827	110.854152100926	3
2	828	111.642868692164	2
2	832	111.737033520847	3
2	833	112.556367549502	2
2	837	113.082689850658	3
2	838	113.124529625351	2
2	842	113.174264923606	3
2	843	113.646114710268	2
2	847	113.948439277853	3
2	848	114.54827178043	2
2	852	114.596696020123	3
2	853	115.441950378257	2
2	859	115.794150265876	3
2	860	116.177501663582	2
2	864	116.280978760877	3
2	865	116.581150374205	2
2	869	116.689917077581	3
2	870	117.289003853562	2
2	874	117.405988092575	3
2	875	118.140476605777	2
2	879	118.899074434332	3
2	880	119.05519632545	2
2	884	119.207039793075	3
2	885	119.658053550233	2
2	889	119.662398330463	3
2	890	120.336562245727	2
2	894	120.789942048373	3
2	896	121.143642543653	4
2	897	121.227179494096	3
2	901	121.731656383481	4
2	902	122.090411916483	3
2	905	122.784336508266	2
2	909	123.052256646006	3
2	910	123.487408045368	2
2	914	123.856414736496	3
2	915	124.091028360152	2
2	919	124.231230614013	3
2	920	125.085767205633	2
2	924	125.130227969684	3
2	925	125.914687492108	2
2	929	125.921041624777	3
2	930	126.574082992194	2
2	934	126.690475776353	3
2	935	126.98530451722	2
2	939	127.010625986572	3
2	940	127.917199262898	2
2	944	128.080922016439	3
2	945	128.793110837103	2
2	948	129.399614415378	1
2	952	129.860395760467	2
2	953	130.27621635009	1
2	956	130.748663708534	0
2	960	130.758074196607	1
2	961	131.405652475603	0
2	965	131.825515428742	1
2	966	132.307007909207	0
2	970	132.7530741195	1
2	971	133.245222458443	0
2	975	133.277088730691	1
2	976	133.716728698476	0
2	980	134.297272767547	1
2	981	134.604330900837	0
2	985	134.917542887578	1
2	986	135.175513364202	0
2	993	135.812311523276	1
2	994	136.175956753981	0
2	998	136.344498178998	1
2	1001	136.870900519113	0
2	1005	136.904819181219	1
2	1006	137.392530887262	0
2	1010	137.39462343304	1
2	1011	138.223940518373	0
2	1015	138.329716821834	1
2	1017	138.64268382638	2
2	1018	139.093571743896	1
2	1023	139.934379107147	0
2	1027	139.963567165173	1
2	1029	140.734540328983	2
2	1030	140.795556084035	1
2	1034	140.865000252931	2
2	1035	141.664936755752	1
2	1038	142.225615290753	0
2	1045	143.603392273345	1
2	1046	143.621989757209	0
2	1050	143.63745430153	1
2	1051	144.3862805545	0
2	1057	144.894492547742	1
2	1059	145.095786486237	2
2	1060	145.252772298096	1
2	1064	145.313870104064	2
2	1065	146.204971717358	1
2	1069	146.451937134508	2
2	1070	146.808429097863	1
2	1074	147.351304824632	2
2	1075	147.51256177748	1
2	1079	147.515188313366	2
2	1080	148.175790913789	1
2	1083	148.829996788981	0
2	1087	148.889758675866	1
2	1088	149.274287976944	0
2	1092	149.34514831738	1
2	1094	149.469225135707	2
2	1095	149.863210372781	1
2	1098	150.855055870363	0
2	1107	152.175434970828	1
2	1108	152.572499762397	0
2	1115	153.48617798647	1
2	1117	153.523806916044	2
2	1118	153.661725731395	1
2	1122	154.422041283434	2
2	1125	154.498998354995	1
2	1129	155.062053720359	2
2	1132	155.296431131768	1
2	1136	155.379927550514	2
2	1137	155.827513274099	1
2	1141	155.966744470923	2
2	1142	156.342198841661	1
2	1146	156.534701987999	2
2	1147	156.784875895517	1
2	1151	157.096275649069	2
2	1152	157.407742306931	1
2	1156	157.649515910986	2
2	1157	158.10602527686	1
2	1160	158.757779066792	0
2	1164	159.213725911607	1
2	1165	159.377583233841	0
2	1169	159.400232113184	1
2	1170	160.157198788753	0
2	1177	161.303367845224	1
2	1178	161.719599207087	0
2	1182	161.818999599856	1
2	1185	162.240584050926	0
2	1189	162.544576185163	1
2	1190	162.958378203555	0
2	1197	164.00729646573	1
2	1198	164.431588019306	0
2	1205	164.953390175753	1
2	1206	165.777157354277	0
2	1217	166.835755059098	1
2	1218	167.336717827633	0
2	1227	168.827253374879	1
2	1228	169.130304680174	0
2	1237	170.332599291521	1
2	1238	170.546251178734	0
2	1242	170.997830490332	1
2	1247	171.52985836716	0
2	1254	172.644197813883	1
2	1255	172.667505459502	0
2	1259	172.723281678364	1
2	1260	173.41683523228	0
2	1264	173.851304465022	1
2	1265	174.197508812478	0
2	1269	174.234855417201	1
2	1270	174.833979296653	0
2	1274	174.95584405058	1
2	1275	175.364334040523	0
2	1279	175.816835809395	1
2	1280	176.357454428232	0
2	1286	176.566795241187	1
2	1287	177.020041791971	0
2	1294	177.879777078669	1
2	1295	177.974440757108	0
2	1299	178.557611475953	1
2	1300	178.900359337141	0
2	1304	179.295747533012	1
2	1307	179.62793687076	0
2	1311	179.670877765162	1
2	1312	180.123789074846	0
2	1316	180.367609940156	1
2	1317	181.014905075092	0
2	1321	181.260008053528	1
2	1322	181.568590598056	0
2	1332	182.886280645028	1
2	1334	183.05297716345	2
2	1335	183.1990181273	1
2	1339	183.287929465867	2
2	1340	183.794917497659	1
2	1344	184.04729382553	2
2	1345	184.473152223943	1
2	1350	185.209773251057	0
2	1357	185.956602635582	1
2	1359	186.157302995786	2
2	1361	186.387541129287	3
2	1362	186.842351562033	2
2	1367	187.830891229461	1
2	1373	188.139983158637	2
2	1374	188.487828463192	1
2	1377	188.918806770739	0
2	1381	189.000501443636	1
2	1383	189.106512789462	2
2	1386	189.540958599343	1
2	1390	189.742471171165	2
2	1391	190.305407453763	1
2	1395	190.480565107074	2
2	1396	190.780076660138	1
2	1400	190.993466802296	2
2	1401	191.631462696536	1
2	1405	191.66531239738	2
2	1406	192.594201980314	1
2	1410	192.912729754455	2
2	1411	193.452505761214	1
2	1415	193.472545366092	2
2	1416	194.11954675784	1
2	1419	194.635187558519	0
2	1426	195.449469604772	1
2	1428	195.627991558927	2
2	1429	195.925187496065	1
2	1432	196.706099830304	0
2	1436	196.900426247812	1
2	1439	197.612941233503	0
2	1443	197.713095990711	1
2	1444	198.021888260652	0
2	1448	198.249765287807	1
2	1449	198.705730393544	0
2	1455	199.281661984118	1
2	1456	199.316465230301	0
2	1463	199.867863294218	1
2	1464	200.18816691117	0
2	1471	200.93301759597	1
2	1472	201.364572870932	0
2	1481	202.396433967083	1
2	1482	203.319699461027	0
2	1493	204.309411028853	1
2	1496	204.664336100561	0
2	1503	205.273953439928	1
2	1506	206.0267289146	0
2	1515	207.358214419843	1
2	1517	207.370135523075	2
2	1518	207.702458230374	1
2	1523	208.282239666968	0
2	1530	208.971113985315	1
2	1531	209.245351494723	0
2	1535	209.626196281365	1
2	1537	209.746790562528	2
2	1538	209.921341080605	1
2	1544	210.286764573776	2
2	1545	210.326255903686	1
2	1549	210.529631652145	2
2	1551	210.830875624138	3
2	1552	211.277354917922	2
2	1556	211.572676512939	3
2	1558	211.765422073576	4
2	1559	212.009517813581	3
2	1564	212.988854639712	2
2	1568	213.545401452716	3
2	1569	213.633149114172	2
2	1573	214.003360297928	3
2	1574	214.190723893573	2
2	1578	214.498317665327	3
2	1579	214.887881294047	2
2	1582	215.382959105834	1
2	1586	215.689084939642	2
2	1587	216.160661416469	1
2	1591	216.578530109297	2
2	1592	216.984940909423	1
2	1596	217.270555764338	2
2	1597	217.433616720807	1
2	1601	217.931632148017	2
2	1603	218.019067810704	3
2	1604	218.123360794239	2
2	1607	218.789586215621	1
2	1611	219.103991857167	2
2	1613	219.702957353735	3
2	1614	219.750984315124	2
2	1619	220.231591541801	1
2	1623	220.275355250666	2
2	1624	220.81085084939	1
2	1628	220.820451227882	2
2	1630	220.841544920596	3
2	1632	220.993911285382	4
2	1633	221.568469956299	3
2	1637	221.606957716555	4
2	1640	222.374270538022	3
2	1644	222.384947336045	4
2	1646	222.448552544522	5
2	1648	222.634741858688	6
2	1649	223.089226124217	5
2	1652	223.605804439089	4
2	1656	223.944435651454	5
2	1657	224.152946978309	4
2	1661	224.378907669017	5
2	1663	224.548966349997	6
2	1664	225.040267200176	5
2	1668	225.208050064753	6
2	1670	225.329817238655	7
2	1671	225.999639240433	6
2	1675	226.075714035972	7
2	1677	226.160791922383	8
2	1678	226.818224897901	7
2	1682	226.820980559325	8
2	1683	227.263421282093	7
2	1686	227.836544798934	6
2	1692	228.097564368247	7
2	1694	228.340305625778	8
2	1695	228.465297456891	7
2	1699	228.573883370694	8
2	1700	229.1136398642	7
2	1703	229.892734557451	6
2	1707	230.393116265891	7
2	1708	230.399975046623	6
2	1712	230.556411877615	7
2	1713	231.144779529344	6
2	1717	231.151025148302	7
2	1718	231.675515703173	6
2	1721	232.160590780122	5
2	1725	232.352909724431	6
2	1727	232.417845014884	7
2	1728	233.031562818182	6
2	1732	233.109310025829	7
2	1733	233.834922295357	6
2	1736	234.479867197261	5
2	1740	235.073871530228	6
2	1741	235.134872581824	5
2	1745	235.552761437379	6
2	1746	235.655912830602	5
2	1749	236.189235533602	4
2	1753	236.643352019409	5
2	1754	237.046737348396	4
2	1758	237.063820847563	5
2	1760	237.324070122693	6
2	1761	237.847248330354	5
2	1764	238.458139907164	4
2	1768	238.535062661521	5
2	1770	238.797058018755	6
2	1772	238.929866488637	7
2	1773	238.9369469789	6
2	1776	239.412504543518	5
2	1779	239.813606953775	4
2	1783	240.114022224797	5
2	1784	240.411464379183	4
2	1787	241.12509593816	3
2	1791	241.152044223965	4
2	1792	241.843399844193	3
2	1796	241.920960725284	4
2	1798	242.323572225955	5
2	1799	242.769725007159	4
2	1803	243.138872321978	5
2	1804	243.315343966303	4
2	1807	243.772850509282	3
2	1810	244.210915133977	2
2	1814	244.436563737804	3
2	1816	244.718926592388	4
2	1817	244.863757859837	3
2	1821	244.881528469583	4
2	1823	245.441176754256	5
2	1824	245.558545293115	4
2	1828	245.790957189898	5
2	1831	246.230768641239	4
2	1834	246.648964163676	3
2	1840	246.888136753863	4
2	1842	247.469611156607	5
2	1843	247.581204363486	4
2	1847	247.814562844089	5
2	1849	248.311839814984	6
2	1850	248.420429208471	5
2	1855	248.841369572996	4
2	1859	248.874727711191	5
2	1861	249.18973987436	6
2	1862	249.430164841345	5
2	1866	249.983019137726	6
2	1867	250.059759198144	5
2	1871	250.089807055799	6
2	1872	250.747456233544	5
2	1876	250.939365027737	6
2	1878	251.026424221456	7
2	1879	251.610977660041	6
2	1883	251.706993141035	7
2	1884	252.281945117438	6
2	1888	252.328140430655	7
2	1889	253.05604195885	6
2	1893	253.534350349624	7
2	1894	253.76250741907	6
2	1898	254.425010478241	7
2	1899	254.4802068066	6
2	1903	254.665564460449	7
2	1904	255.317260044362	6
2	1909	255.808092795467	5
2	1913	255.931110106612	6
2	1915	256.199779513306	7
2	1916	256.373855086477	6
2	1920	256.42409410426	7
2	1921	257.268172564419	6
2	1925	257.383620153671	7
2	1926	258.107319050623	6
2	1930	258.358041429707	7
2	1931	258.77952493128	6
2	1935	259.037394794564	7
2	1936	259.197189052232	6
2	1940	259.47342621505	7
2	1941	259.777405409716	6
2	1945	260.103831637483	7
2	1946	260.383524613051	6
2	1950	260.71449971423	7
2	1951	261.312603196424	6
2	1955	261.72334294209	7
2	1956	261.736748700837	6
2	1960	261.766058852542	7
2	1961	262.299445922502	6
2	1965	262.864595165915	7
2	1966	262.922256784669	6
2	1970	263.032862484431	7
2	1971	263.831833938944	6
2	1974	264.352936281	5
2	1977	265.006484072578	4
2	1981	265.317081634809	5
2	1982	265.97529302702	4
2	1986	266.075064127842	5
2	1987	266.731454571958	4
2	1991	267.218389855906	5
2	1992	267.667177393164	4
2	1996	267.792336594547	5
2	1997	268.247560888452	4
2	2001	268.423483226633	5
2	2002	269.060587637282	4
2	2006	269.200210399222	5
2	2007	270.025616360239	4
2	2010	270.427945012196	3
2	2014	270.509166536491	4
2	2015	271.367711887944	3
2	2018	272.269039449764	2
2	2022	273.00314637393	3
2	2023	273.145415231229	2
2	2026	273.613687741959	1
2	2030	274.058987266926	2
2	2031	274.381443453038	1
2	2035	274.493884835454	2
2	2037	274.747887746169	3
2	2038	274.888513469526	2
2	2042	275.163819477495	3
2	2043	275.624104300809	2
2	2046	276.321655273826	1
2	2050	277.151163644295	2
2	2051	277.295252701284	1
2	2054	278.186376100795	0
2	2058	278.224695686372	1
2	2059	278.836757506493	0
2	2063	278.960369566854	1
2	2065	279.156177603089	2
2	2067	279.162636079534	3
2	2069	279.227735474346	4
2	2070	279.517329230316	3
2	2073	280.084126193792	2
2	2077	280.232729107025	3
2	2078	280.776985837397	2
2	2081	281.178856198181	1
2	2085	281.198239613525	2
2	2087	281.548875564191	3
2	2088	281.85809865442	2
2	2092	282.039911930772	3
2	2093	282.7456465278	2
2	2097	282.796317890171	3
2	2098	283.712189843756	2
2	2102	284.061761943984	3
2	2103	284.523608999018	2
2	2106	285.478771686338	1
2	2111	285.927103292214	0
2	2118	287.30628218321	1
2	2119	287.590689953992	0
2	2123	288.129698398953	1
2	2125	288.331883051516	2
2	2126	288.470453801162	1
2	2132	288.620322149718	2
2	2133	288.956772871984	1
2	2137	288.975477256979	2
2	2138	289.912403820332	1
2	2142	290.040170554169	2
2	2143	290.470349968335	1
2	2146	291.239843110198	0
2	2150	291.730974581429	1
2	2152	291.926707801696	2
2	2153	292.174455534171	1
2	2157	292.358752444299	2
2	2158	293.015032141253	1
2	2162	293.406579449503	2
2	2163	293.633961920457	1
2	2167	294.294218301789	2
2	2168	294.629673266754	1
2	2172	294.720875155849	2
2	2173	295.153160817659	1
2	2177	295.671234494622	2
2	2179	296.099697411326	3
2	2180	296.118015626323	2
2	2184	296.211364813181	3
2	2185	296.737229806155	2
2	2189	296.997656680661	3
2	2190	297.682452647219	2
2	2194	298.331810179485	3
2	2195	298.466060527059	2
2	2199	298.874592204952	3
2	2200	299.380335450004	2
2	2204	299.699803601608	3
2	2205	299.800433077029	2
2	2209	300.008284668051	3
2	2210	300.264113121497	2
2	2214	300.356208890009	3
2	2215	300.728366335312	2
2	2218	301.153917512966	1
2	2222	301.360474824502	2
2	2223	301.565624796383	1
2	2227	301.575997265505	2
2	2229	301.701817083108	3
2	2230	302.431451623857	2
2	2236	302.61602783651	3
2	2237	303.28916362088	2
2	2241	303.357543702039	3
2	2242	304.23886676437	2
2	2246	304.71742776972	3
2	2247	304.97251792114	2
2	2251	305.065412245601	3
2	2252	305.625825262598	2
2	2255	306.350004146404	1
2	2259	306.514594074085	2
2	2260	307.308880219671	1
2	2264	307.333258320043	2
2	2265	307.918024835053	1
2	2269	307.936255323487	2
2	2270	308.319879627849	1
2	2276	308.792270400205	2
2	2277	308.853509336772	1
2	2281	309.349292897385	2
2	2282	309.847555307594	1
2	2286	310.087245902768	2
2	2287	310.294965585709	1
2	2291	310.537277638086	2
2	2292	311.206050089762	1
2	2295	312.093681309155	0
2	2299	312.109766939258	1
2	2301	312.821604649104	2
2	2302	313.091743920107	1
2	2305	313.68952508249	0
2	2312	314.509766155383	1
2	2313	315.254237562899	0
2	2551	349.916389684271	1
2	2552	350.228971638499	0
2	2563	351.868992477853	1
2	2564	351.902943964178	0
2	2582	353.774159756539	1
2	2587	354.342112602588	0
2	2591	354.378303080967	1
2	2594	354.857745876597	0
2	2598	355.226796207752	1
2	2601	355.689135509046	0
2	2605	356.112639830322	1
2	2606	356.314562043563	0
2	2610	356.378902224007	1
2	2613	357.253951804216	0
2	2619	357.416103055227	1
2	2620	357.828472533884	0
2	2624	357.863294322477	1
2	2625	358.378741531369	0
2	2631	358.687667735902	1
2	2632	358.79480379421	0
2	2636	359.135694340584	1
2	2637	359.596267748268	0
2	2643	359.766617725166	1
2	2645	359.83605559183	2
2	2646	360.046538938133	1
2	2650	360.522831861525	2
2	2651	360.631575388385	1
2	2655	360.645975386639	2
2	2660	361.559715200977	1
2	2664	361.578044998342	2
2	2667	362.187114181572	1
2	2673	362.631749987029	2
2	2674	362.691469731291	1
2	2677	363.126354962231	0
2	2681	363.442902148591	1
2	2682	363.547253979805	0
2	2686	363.85873530226	1
2	2687	364.321972658548	0
2	2691	364.358084694848	1
2	2692	364.938069305166	0
2	2696	365.514200590485	1
2	2697	365.738239607045	0
2	2711	367.648253295493	1
2	2712	367.734131137671	0
2	2716	367.95740662415	1
2	2717	368.364708221767	0
2	2721	368.569583913744	1
2	2722	369.09345668868	0
2	2731	370.165259032391	1
2	2732	370.301582800661	0
2	2741	371.553598788485	1
2	2742	371.643630310258	0
2	2749	372.527229519446	1
2	2751	372.733463016774	2
2	2752	372.835338197153	1
2	2759	373.508828894624	0
2	2768	374.758368574236	1
2	2769	375.237234647728	0
2	2773	375.391958366124	1
2	2776	375.8381573287	0
2	2780	376.061913583013	1
2	2781	376.305868433805	0
2	2785	376.826527784717	1
2	2786	377.297159122599	0
2	2790	377.888903290615	1
2	2791	378.056165143911	0
2	2798	379.243787811879	1
2	2799	379.538152361538	0
2	2808	380.545974032573	1
2	2809	380.998978700599	0
2	2818	381.98216395039	1
2	2819	382.430638352938	0
2	2828	383.585549990849	1
2	2829	383.751726455445	0
2	2838	385.009505865635	1
2	2839	385.428030720324	0
2	2846	386.224697300969	1
2	2849	386.853040543821	0
2	2858	387.688406698111	1
2	2859	388.290408312034	0
2	2868	388.99974086017	1
2	2871	389.519765610544	0
2	2878	390.781029734126	1
2	2879	390.785175248765	0
2	2886	391.543818367493	1
2	2889	392.138109155203	0
2	2898	393.108570139864	1
2	2899	393.37919711789	0
2	2910	394.070364281237	1
2	2912	394.214728530435	2
2	2913	394.904963598465	1
2	2918	395.407055596234	0
2	2922	395.706128236175	1
2	2923	395.978473910568	0
2	2927	396.137512356289	1
2	2930	396.729181108316	0
2	2947	398.816514045187	1
2	2948	399.402868655995	0
2	2957	401.210302651416	1
2	2958	401.261163997995	0
2	2967	402.165281491021	1
2	2968	402.370278755687	0
2	2972	402.774198799659	1
2	2975	403.124807142112	0
2	2979	403.270159563507	1
2	2982	403.891638826737	0
2	2988	404.218942920729	1
2	2989	404.5911142484	0
2	2993	405.046839091961	1
2	2994	405.355692713027	0
2	2998	405.791882076602	1
2	2999	405.810202089296	0
2	3003	405.920049611485	1
2	3005	406.378429515991	2
2	3006	406.397782106436	1
2	3012	406.910275393039	2
2	3013	407.240158488619	1
2	3017	407.345610361134	2
2	3018	408.180525758694	1
2	3022	408.221771328552	2
2	3023	408.746028914367	1
2	3027	408.86367979367	2
2	3028	409.525683335186	1
2	3032	410.20221854505	2
2	3034	410.337375557919	3
2	3035	410.518699443637	2
2	3041	411.092478174975	3
2	3042	411.372190759861	2
2	3046	411.48291469944	3
2	3049	412.134068637173	2
2	3053	412.406653965417	3
2	3054	413.028095821728	2
2	3058	413.16022897696	3
2	3059	413.605956941395	2
2	3063	413.689601030077	3
2	3064	414.283930720453	2
2	3068	414.301533568299	3
2	3070	414.669319732808	4
2	3071	415.106428054831	3
2	3074	415.647973344912	2
2	3079	416.326467658737	1
2	3083	416.709388628876	2
2	3085	416.745139774233	3
2	3086	417.171745117911	2
2	3090	417.284360108698	3
2	3092	417.6120331453	4
2	3094	417.640334733246	5
2	3095	418.001858504739	4
2	3099	418.049037077574	5
2	3100	418.528097728145	4
2	3104	418.91877170015	5
2	3105	419.206264990446	4
2	3109	419.361987731938	5
2	3110	419.665212959255	4
2	3114	420.377676640736	5
2	3115	420.623121598846	4
2	3119	420.77779879036	5
2	3120	421.024260433781	4
2	3123	421.853655575327	3
2	3127	422.252418356424	4
2	3128	422.790250566387	3
2	3131	423.391048577027	2
2	3135	423.415160891276	3
2	3137	423.567879829517	4
2	3139	423.683391121011	5
2	3140	423.882319587115	4
2	3144	424.021008680214	5
2	3145	424.56992654779	4
2	3149	424.624889854628	5
2	3150	425.329997932604	4
2	3153	425.789914450441	3
2	3157	425.925919419115	4
2	3160	426.427458534874	3
2	3164	426.468440988033	4
2	3166	426.607735805722	5
2	3169	427.422232576804	4
2	3172	428.157606661292	3
2	3176	428.612346213793	4
2	3177	428.658830442531	3
2	3181	429.026977478116	4
2	3182	429.404467444234	3
2	3186	429.716879547725	4
2	3189	429.860761979521	3
2	3195	430.238589639036	4
2	3196	430.482998434893	3
2	3200	431.151334144764	4
2	3201	431.159358558311	3
2	3205	431.412942220788	4
2	3208	431.645840460314	3
2	3211	432.260066413945	2
2	3215	432.657973970811	3
2	3216	432.720741040558	2
2	3219	433.305684299413	1
2	3224	433.94501382729	0
2	3228	434.283288732633	1
2	3230	434.492971510543	2
2	3232	434.508956240049	3
2	3233	434.891468702368	2
2	3237	435.171650377236	3
2	3238	435.790903155477	2
2	3241	436.535467096296	1
2	3245	436.765625266371	2
2	3247	436.959566479924	3
2	3248	437.248197085195	2
2	3252	437.541858546856	3
2	3253	437.793704224163	2
2	3257	437.897171157693	3
2	3258	438.267021985556	2
2	3262	438.30130126846	3
2	3263	439.231478723668	2
2	3267	439.509500935789	3
2	3268	439.977365811186	2
2	3271	440.638176682375	1
2	3275	440.768041825622	2
2	3276	441.112499674938	1
2	3280	441.330056677157	2
2	3281	441.985844011761	1
2	3285	442.356117654506	2
2	3286	442.473875385819	1
2	3290	442.525713341751	2
2	3291	443.193464798916	1
2	3294	443.917141527932	0
2	3298	444.112965248484	1
2	3299	444.893373166973	0
2	3303	444.975989879141	1
2	3304	445.568799287936	0
2	3308	446.032914688693	1
2	3309	446.42235604978	0
2	3315	446.485812781884	1
2	3318	447.059209766442	0
2	3325	447.571225040892	1
2	3326	448.283772127812	0
2	3335	449.490155095952	1
2	3336	449.492213697887	0
2	3340	449.803082145417	1
2	3341	450.213811962462	0
2	3345	450.254298650309	1
2	3348	451.169200813367	0
2	3352	451.17715539433	1
2	3353	451.651948674598	0
2	3357	452.272163923923	1
2	3358	452.328678367303	0
2	3365	453.444844263979	1
2	3367	453.529931927992	2
2	3368	453.91137857299	1
2	3373	454.507805502291	0
2	3377	454.881567363646	1
2	3378	455.187780204524	0
2	3385	455.786503723993	1
2	3387	455.799476086746	2
2	3388	456.607956347351	1
2	3391	457.022691993524	0
2	3395	457.249820831737	1
2	3396	457.508823664688	0
2	3400	457.732557588046	1
2	3401	458.362482094268	0
2	3405	458.705107499066	1
2	3406	458.800498171678	0
2	3413	459.86498832147	1
2	3414	460.458935717881	0
2	3423	461.469057524939	1
2	3424	462.073636460226	0
2	3431	462.661624473724	1
2	3432	463.641821423002	0
2	3446	465.301826371539	1
2	3447	465.580627248544	0
2	3458	466.347551173107	1
2	3459	466.747169020181	0
2	3468	467.757438214097	1
2	3469	468.194950669552	0
2	3480	469.207796622945	1
2	3481	469.604485810003	0
2	3488	470.217989922189	1
2	3489	470.509070697255	0
2	3500	471.161461778757	1
2	3501	471.867753992757	0
2	3508	472.708644996695	1
2	3513	473.672651664415	0
2	3520	474.385382875484	1
2	3521	474.833071261426	0
2	3530	476.078646166223	1
2	3531	476.42293044684	0
2	3538	477.404428270165	1
2	3540	477.688817486986	2
2	3541	477.756255404619	1
2	3548	478.218916005423	0
2	3557	478.987893674906	1
2	3559	479.027503961524	2
2	3560	479.204394777087	1
2	3563	479.606513855621	0
2	3569	480.053232073711	1
2	3570	480.49944624879	0
2	3574	480.766249210614	1
2	3577	481.248795893943	0
2	3581	481.299201622282	1
2	3582	481.778901312515	0
2	3586	482.015527337721	1
2	3587	482.225546392301	0
2	3591	482.63107460354	1
2	3592	483.108619134609	0
2	3596	483.714692711558	1
2	3597	484.108338956364	0
2	3601	484.315849459495	1
2	3602	485.039978604267	0
2	3609	485.854866816679	1
2	3610	486.545680217647	0
2	3671	495.542874190851	1
2	3674	495.862169612119	0
2	3688	497.288742943162	1
2	3691	497.919454703353	0
2	3705	499.722158262524	1
2	3706	500.512005405048	0
2	3715	501.55306658942	1
2	3716	502.168083409326	0
2	3725	503.157877305438	1
2	3726	503.368440521335	0
2	3735	503.982689174231	1
2	3737	503.995117327305	2
2	3738	504.417480068714	1
2	3743	504.899488504291	0
2	3750	505.448195152066	1
2	3752	505.55379737532	2
2	3753	505.844602462709	1
2	3758	506.80338845245	0
2	3762	506.859013259109	1
2	3763	507.709902637046	0
2	3767	507.732228310716	1
2	3768	508.414761513019	0
2	3772	508.460984496932	1
2	3773	508.951624148957	0
2	3780	509.364491486621	1
2	3782	509.521775893729	2
2	3783	510.029593815155	1
2	3788	510.769441613894	0
2	3795	511.486622285043	1
2	3797	511.827174853441	2
2	3798	512.176620266227	1
2	3803	512.868342772791	0
2	3807	513.317790800919	1
2	3810	513.554233980937	0
2	3814	513.564205092522	1
2	3815	514.46003422785	0
2	3824	515.420100741022	1
2	3826	515.832641406058	2
2	3827	516.172334015569	1
2	3832	517.111273435843	0
2	3836	517.263931046703	1
2	3837	517.916133296317	0
2	3849	519.536524511576	1
2	3852	520.057676265822	0
2	3861	521.353164208247	1
2	3862	521.397533971784	0
2	3941	533.870582182578	1
2	3942	534.015742394528	0
2	3949	534.872276111267	1
2	3950	535.566269676866	0
2	3972	537.788551216174	1
2	3973	537.850208120294	0
2	3985	539.196222596146	1
2	3988	539.582063350188	0
2	3992	540.10299920883	1
2	3993	540.464953518579	0
2	3997	540.624161459928	1
2	3998	541.015060504213	0
2	4002	541.248669542117	1
2	4003	541.560152160762	0
2	4014	542.630550328263	1
2	4017	543.41247214653	0
2	4026	543.844544997634	1
2	4027	544.494999727667	0
2	4033	544.638244063508	1
2	4034	545.32328622296	0
2	4041	545.898151688185	1
2	4042	546.507493830766	0
2	4046	546.573027576386	1
2	4050	546.761769482081	2
2	4051	547.434802650861	1
2	4055	547.56989980047	2
2	4056	547.860609314652	1
2	4059	548.390669885712	0
2	4071	550.262747690579	1
2	4072	550.287633437259	0
2	4089	552.563873783807	1
2	4096	553.07921155227	0
2	4107	554.269722798434	1
2	4108	554.487055398446	0
2	4117	555.407604430849	1
2	4118	555.997370135007	0
2	4127	556.895853984001	1
2	4128	557.497522462593	0
2	4158	562.69630974902	1
2	4159	562.731342432011	0
2	4172	563.522905090603	1
2	4175	564.056332279431	0
2	4192	566.400146626221	1
2	4193	567.053526196597	0
2	4293	581.147779585768	1
2	4294	581.490704942835	0
2	4298	581.878079955455	1
2	4303	582.315460160622	0
2	4307	582.612058785106	1
2	4309	582.995802595551	2
2	4310	583.00719584242	1
2	4314	583.418259985839	2
2	4315	583.982104508407	1
2	4318	584.553180758949	0
2	4322	584.773379754945	1
2	4324	585.226792921203	2
2	4325	585.511709250757	1
2	4329	585.523458734507	2
2	4332	586.225424518544	1
2	4335	587.002297977559	0
2	4344	587.691730981629	1
2	4346	587.692721638884	2
2	4347	588.567865664107	1
2	4350	589.266395255053	0
2	4359	590.24103667485	1
2	4360	590.799839269757	0
2	4369	591.907485309029	1
2	4370	592.324933345118	0
2	4377	592.859172020986	1
2	4380	593.237045939141	0
2	4384	593.268700999414	1
2	4389	594.215328030861	0
2	4396	594.867947117903	1
2	4397	595.758715144419	0
2	4401	595.948425277451	1
2	4402	596.750474656667	0
2	4406	597.064776742272	1
2	4409	597.235098424149	0
2	4413	597.58981993488	1
2	4414	598.099306393615	0
2	4418	598.134716765505	1
2	4419	599.034607117684	0
2	4426	600.064374385262	1
2	4428	600.274343719388	2
2	4429	600.724591954719	1
2	4434	601.339688530206	0
2	4438	601.985794957535	1
2	4439	602.230607167785	0
2	4446	602.874090472057	1
2	4447	603.274537078212	0
2	4451	603.298102578257	1
2	4452	603.774165540901	0
2	4458	604.292040019345	1
2	4460	604.324153869359	2
2	4461	604.720366151505	1
2	4465	604.745274334152	2
2	4467	605.074224811629	3
2	4470	605.150145497792	2
2	4474	605.19560892057	3
2	4475	605.607231949423	2
2	4479	605.756923918557	3
2	4480	606.397994129513	2
2	4484	606.411463824429	3
2	4485	606.896308366363	2
2	4489	607.129028449769	3
2	4490	607.651150158155	2
2	4494	607.835742430731	3
2	4495	608.586147285779	2
2	4499	608.6199912812	3
2	4502	609.329879315025	2
2	4505	609.912203379175	1
2	4508	610.501880860295	0
2	4515	611.127208922903	1
2	4517	611.549684006009	2
2	4518	611.961366665236	1
2	4522	611.995600999485	2
2	4524	612.117131448796	3
2	4525	612.620925250476	2
2	4529	613.044543002942	3
2	4530	613.478848213017	2
2	4536	613.699436192908	3
2	4537	614.142758801546	2
2	4541	614.288003796352	3
2	4542	614.983492971225	2
2	4546	615.249995673396	3
2	4547	615.55852035467	2
2	4551	616.14610834355	3
2	4552	616.239859432647	2
2	4556	616.618365784055	3
2	4557	616.851015090536	2
2	4561	616.90340549632	3
2	4564	617.849884488726	2
2	4569	618.73128898322	1
2	4572	619.133294866107	0
2	4576	619.235149521663	1
2	4577	619.839863540804	0
2	4581	619.974620690125	1
2	4582	620.749310222095	0
2	4586	621.326225003451	1
2	4588	621.613169498605	2
2	4589	621.685769017846	1
2	4593	622.342072978865	2
2	4594	622.353963713036	1
2	4598	622.562684597751	2
2	4600	622.753283064445	3
2	4601	622.92414276131	2
2	4605	623.325182287466	3
2	4606	623.909282811652	2
2	4610	624.014783919957	3
2	4611	624.642262311992	2
2	4615	624.647633463106	3
2	4616	625.525187473153	2
2	4620	625.752174661021	3
2	4621	626.097200568593	2
2	4624	626.547357793492	1
2	4628	626.910348543264	2
2	4629	627.15481471267	1
2	4633	627.278130656975	2
2	4634	627.643558211126	1
2	4638	627.934138888934	2
2	4640	628.150556119799	3
2	4641	628.212772366837	2
2	4645	628.8815676007	3
2	4646	629.051055233846	2
2	4650	629.3211132184	3
2	4651	629.884779399554	2
2	4654	630.464618049902	1
2	4658	630.569844225289	2
2	4660	630.625819558694	3
2	4661	631.434214195949	2
2	4665	631.548600994629	3
2	4666	631.858746788944	2
2	4670	632.11176277748	3
2	4671	632.779313430623	2
2	4675	632.904385918987	3
2	4676	633.503351486022	2
2	4680	633.533311378577	3
2	4681	634.187092047152	2
2	4685	634.394043805332	3
2	4686	634.855504086767	2
2	4690	635.276467567265	3
2	4691	635.746392313265	2
2	4695	635.891832448639	3
2	4696	636.163408016893	2
2	4700	636.679410571645	3
2	4701	637.014368348163	2
2	4705	637.660495510135	3
2	4706	637.748488861755	2
2	4710	638.050590911518	3
2	4712	638.403256132885	4
2	4713	638.488096569678	3
2	4717	638.683388738436	4
2	4718	639.368436135132	3
2	4722	640.12333678024	4
2	4723	640.363005149704	3
2	4727	640.589436086983	4
2	4728	640.860202161143	3
2	4732	641.217191415394	4
2	4733	641.584432446691	3
2	4737	641.618633933011	4
2	4738	642.239903146182	3
2	4741	642.989945149808	2
2	4745	643.206397503857	3
2	4747	643.346073888046	4
2	4748	643.538112530499	3
2	4752	644.151006291348	4
2	4753	644.445876972485	3
2	4757	644.616094020497	4
2	4758	644.917846254553	3
2	4762	645.227658678615	4
2	4763	645.816753424905	3
2	4767	645.991241536506	4
2	4768	646.248016976999	3
2	4772	646.36055566983	4
2	4773	647.132354431148	3
2	4777	647.298224145096	4
2	4778	647.925392195969	3
2	4782	648.301393412796	4
2	4783	648.526275994829	3
2	4787	648.736008915091	4
2	4789	648.954904694265	5
2	4790	649.261121930708	4
2	4794	649.324130602304	5
2	4796	649.479267684341	6
2	4798	649.528113850348	7
2	4799	650.02702141792	6
2	4802	650.74471709087	5
2	4805	651.636452553435	4
2	4809	651.686988173651	5
2	4810	652.56495554998	4
2	4813	653.186550201629	3
2	4817	653.31391832137	4
2	4819	653.448822176973	5
2	4820	653.930105424686	4
2	4823	654.878919020961	3
2	4827	654.992333807381	4
2	4828	655.333470214405	3
2	4832	655.370990166029	4
2	4833	656.288105406486	3
2	4837	656.342520851611	4
2	4838	656.963096319059	3
2	4842	656.972952886238	4
2	4843	657.603726071924	3
2	4847	657.936464133688	4
2	4848	658.579998929812	3
2	4851	659.194454208402	2
2	4855	659.471464595986	3
2	4857	659.662641356463	4
2	4858	660.130488156214	3
2	4862	660.255788415866	4
2	4864	660.758876549204	5
2	4865	660.845100962663	4
2	4869	661.354854008783	5
2	4870	661.772445322307	4
2	4874	661.866886786253	5
2	4875	662.601132346703	4
2	4878	663.151262435517	3
2	4882	663.198040422998	4
2	4883	663.685910018035	3
2	4887	663.887311555782	4
2	4889	664.106575776453	5
2	4890	664.577472855025	4
2	4894	664.82939827379	5
2	4895	665.122958552386	4
2	4899	665.177733365952	5
2	4900	665.752378383433	4
2	4903	666.334751294521	3
2	4907	666.756216723818	4
2	4908	666.778987949542	3
2	4912	667.275026610172	4
2	4913	667.735287298509	3
2	4917	668.01646053841	4
2	4919	668.180937141706	5
2	4920	668.58709123299	4
2	4924	669.158327376905	5
2	4925	669.35441195291	4
2	4931	669.559881343988	5
2	4932	670.030202510501	4
2	4936	670.086200856084	5
2	4937	670.849121787972	4
2	4940	671.726617366136	3
2	4944	671.821045316799	4
2	4946	671.85921440945	5
2	4947	672.669967039456	4
2	4951	672.978088028718	5
2	4952	673.256084337659	4
2	4956	673.455547612292	5
2	4957	673.942549783146	4
2	4961	674.531644685481	5
2	4962	674.818201580379	4
2	4966	675.418473532398	5
2	4967	675.716954753516	4
2	4971	675.901026488242	5
2	4972	676.480224945551	4
2	4975	677.145840025801	3
2	4979	677.154379032244	4
2	4980	677.657344835313	3
2	4984	677.796170323045	4
2	4986	677.883770986934	5
2	4987	678.113032425256	4
2	4993	678.401271608597	5
2	4995	678.735614158077	6
2	4996	678.89769888666	5
2	5000	678.936159056044	6
2	5001	679.425876860055	5
2	5005	679.614647142729	6
2	5006	680.151208982537	5
2	5009	680.927407805216	4
2	5013	681.170664537334	5
2	5014	681.885062571209	4
2	5018	681.980046692859	5
2	5019	682.782567788627	4
2	5023	683.130068891624	5
2	5024	683.352622272739	4
2	5028	683.447387399192	5
2	5030	683.793498455388	6
2	5031	684.240267665092	5
2	5035	684.339461862626	6
2	5036	685.015703719076	5
2	5039	685.915123249464	4
2	5043	686.242959874794	5
2	5044	686.34906166146	4
2	5048	686.541204217221	5
2	5049	686.92896527477	4
2	5053	687.271025306128	5
2	5054	687.905151771534	4
2	5058	688.27853774714	5
2	5059	688.366697358493	4
2	5063	688.372996997411	5
2	5064	689.320619351477	4
2	5067	689.775727171185	3
2	5071	689.990936184941	4
2	5072	690.534514656025	3
2	5076	690.827714126712	4
2	5078	690.925653447818	5
2	5081	691.496614786857	4
2	5084	692.27717592536	3
2	5088	692.305019678186	4
2	5089	692.710486511993	3
2	5093	693.440304643594	4
2	5094	693.658546473332	3
2	5098	693.677952321859	4
2	5099	694.26518460602	3
2	5104	695.219697646112	2
2	5110	695.417233157965	3
2	5111	695.63953729562	2
2	5115	695.718702733641	3
2	5117	695.722087207538	4
2	5118	696.058061948433	3
2	5121	696.518373570885	2
2	5125	696.716037775396	3
2	5127	696.744896432297	4
2	5128	697.414918090743	3
2	5131	698.364111653496	2
2	5135	698.945529331048	3
2	5136	699.302033987934	2
2	5140	699.53478381674	3
2	5141	699.970640688729	2
2	5145	700.060157537459	3
2	5148	700.710344870402	2
2	5151	701.12799340297	1
2	5155	701.848946333669	2
2	5156	701.877647059611	1
2	5160	702.25435265044	2
2	5162	702.263025760445	3
2	5163	702.39441209828	2
2	5167	702.84452479165	3
2	5169	702.882810738327	4
2	5170	703.133771422193	3
2	5174	703.637757818444	4
2	5175	703.942541817962	3
2	5179	704.383610052686	4
2	5180	704.498136725337	3
2	5184	704.822923358656	4
2	5189	705.382760051838	3
2	5193	706.025947795774	4
2	5194	706.07763618004	3
2	5198	706.369865712815	4
2	5199	706.821068456922	3
2	5203	706.963238800366	4
2	5204	707.46042509369	3
2	5208	707.511091585927	4
2	5209	708.319102604095	3
2	5213	708.366108615982	4
2	5214	708.813808912052	3
2	5218	708.893083492581	4
2	5219	709.730803570351	3
2	5223	709.921790229211	4
2	5224	710.246209419579	3
2	5229	711.243946868148	2
2	5233	711.719954672148	3
2	5234	711.858959521506	2
2	5238	712.380196010243	3
2	5239	712.832942661656	2
2	5243	712.906157304315	3
2	5244	713.646841968143	2
2	5248	713.886998303936	3
2	5249	714.178830188898	2
2	5252	714.899597331475	1
2	5256	714.998690700616	2
2	5257	715.376851263096	1
2	5261	715.427903761332	2
2	5262	715.989064506919	1
2	5266	716.693558581131	2
2	5267	716.733602162788	1
2	5271	717.024133734542	2
2	5272	717.600436357979	1
2	5276	717.814358695702	2
2	5277	718.087787673867	1
2	5280	718.799245223229	0
2	5284	719.022958499375	1
2	5286	719.068152861077	2
2	5288	719.481363142612	3
2	5290	719.656871944237	4
2	5291	719.769252519787	3
2	5295	720.013241879528	4
2	5296	720.427753632108	3
2	5300	720.629309306483	4
2	5301	721.075118529296	3
2	5305	721.436965024168	4
2	5306	721.760263982194	3
2	5310	721.783617465469	4
2	5311	722.390741613053	3
2	5315	722.793879310401	4
2	5316	723.389218673913	3
2	5320	723.513370467759	4
2	5322	723.948625683104	5
2	5323	724.279020638868	4
2	5327	725.065512278696	5
2	5328	725.167029108863	4
2	5332	725.179262296263	5
2	5333	725.96730613975	4
2	5337	726.378845270087	5
2	5338	726.415107563847	4
2	5344	727.036325897315	5
2	5345	727.156084437772	4
2	5349	727.35768765805	5
2	5351	727.492392570051	6
2	5352	728.134152949519	5
2	5356	728.507600255538	6
2	5357	729.127253214234	5
2	5360	729.706173183267	4
2	5364	730.22661012886	5
2	5365	730.691896119677	4
2	5369	731.17445049331	5
2	5371	731.190862800098	6
2	5372	731.477617772026	5
2	5375	732.131043716157	4
2	5379	732.159355937137	5
2	5380	733.067172196331	4
2	5384	733.352693755945	5
2	5385	733.599323232202	4
2	5389	734.05337836811	5
2	5390	734.498278832073	4
2	5394	734.661362442183	5
2	5397	735.00468328368	4
2	5401	735.326216174118	5
2	5402	735.453663349627	4
2	5405	735.864849396572	3
2	5408	736.859857725688	2
2	5412	737.163470520363	3
2	5413	737.526826302112	2
2	5417	737.639795468811	3
2	5418	738.148044019156	2
2	5422	738.946661116102	3
2	5423	738.950655092682	2
2	5429	739.501111943573	3
2	5430	739.753929304249	2
2	5433	740.207029131205	1
2	5436	741.106876906437	0
2	5440	741.506987074827	1
2	5441	741.596223313092	0
2	5445	742.073132705923	1
2	5447	742.209007479077	2
2	5449	742.258684281677	3
2	5450	742.45933524129	2
2	5453	743.051292807944	1
2	5456	743.700473008687	0
2	5460	743.860904021708	1
2	5462	743.917238357557	2
2	5464	744.190260232364	3
2	5465	744.194666842334	2
2	5469	744.40124612846	3
2	5471	744.87576314653	4
2	5472	745.100074312007	3
2	5475	745.598213578863	2
2	5479	746.056473062428	3
2	5480	746.384378940109	2
2	5484	746.415891601865	3
2	5485	747.04018388601	2
2	5489	747.240370635131	3
2	5490	747.629445267245	2
2	5493	748.513739491449	1
2	5496	749.300993838775	0
2	5500	749.321748735522	1
2	5503	749.711511697163	0
2	5510	750.446896211296	1
2	5512	750.526548820573	2
2	5514	750.730511293308	3
2	5515	750.910191324642	2
2	5521	751.085392113535	3
2	5522	751.52635537154	2
2	5525	752.306092899069	1
2	5529	752.689488289394	2
2	5530	753.251714798072	1
2	5533	754.037662230674	0
2	5537	754.05200484363	1
2	5538	754.771767058093	0
2	5545	755.585429842662	1
2	5547	755.760183836379	2
2	5548	755.930028487705	1
2	5551	756.477912278856	0
2	5555	756.501573300186	1
2	5558	757.146683500065	0
2	5562	757.29917852886	1
2	5564	757.47561322206	2
2	5565	757.885161958877	1
2	5568	758.550533656739	0
2	5572	758.695635727246	1
2	5573	759.237560936166	0
2	5577	759.733763476188	1
2	5578	759.780854780236	0
2	5829	794.717973556779	1
2	5830	795.096358656799	0
2	5839	796.329004822276	1
2	5840	796.635998686226	0
2	5851	798.189734749084	1
2	5852	798.265793628813	0
2	5856	798.34440256304	1
2	5859	799.141805343152	0
2	5863	799.193672889785	1
2	5864	799.553647364545	0
2	5868	799.964332076452	1
2	5869	800.240082907732	0
2	5873	800.250079898248	1
2	5874	801.193408234799	0
2	5878	801.351547358709	1
2	5879	801.860794454915	0
2	5883	802.273655994235	1
2	5884	802.311545968484	0
2	5888	802.396048867452	1
2	5889	802.768965109167	0
2	5893	802.84815254261	1
2	5895	802.848198049931	2
2	5896	803.711099619846	1
2	5900	803.717885270338	2
2	5901	804.498751208753	1
2	5905	804.499568097521	2
2	5906	804.971770826549	1
2	5910	804.972234176429	2
2	5911	805.402571704852	1
2	5915	805.407396514786	2
2	5916	805.860974646135	1
2	5919	806.613920001601	0
2	5923	806.699791608539	1
2	5924	807.178438283791	0
2	5928	807.476905133564	1
2	5929	807.591104019814	0
2	5933	807.785880559458	1
2	5934	808.041055990764	0
2	5941	808.879541642384	1
2	5942	809.101661467746	0
2	5953	810.345402106515	1
2	5954	810.517381548051	0
2	5963	811.496154132944	1
2	5964	811.816244477321	0
2	5971	812.75551783241	1
2	5972	813.248909716782	0
2	5987	815.321004899609	1
2	5988	816.074226190811	0
2	5999	817.684693279149	1
2	6000	817.740579056656	0
2	6011	818.615091553233	1
2	6012	818.944358104244	0
2	6021	820.480521453865	1
2	6022	820.649429003671	0
2	6031	821.872954999894	1
2	6032	821.945864553061	0
2	6039	822.444447044894	1
2	6040	822.87513663793	0
2	6049	823.806843833216	1
2	6050	824.012048707074	0
2	6059	824.734095898704	1
2	6060	825.037842086619	0
2	6067	825.718288275708	1
2	6069	825.723188743442	2
2	6070	826.303474817435	1
2	6073	826.975120612477	0
2	6077	827.208854804563	1
2	6080	827.51290294394	0
2	6084	827.986531640486	1
2	6085	828.493659228469	0
2	6089	829.110830415324	1
2	6090	829.15510966667	0
2	6097	829.875898858766	1
2	6099	830.244518529829	2
2	6100	830.475868415144	1
2	6107	831.117127370798	0
2	6111	831.739362187442	1
2	6112	832.083278168376	0
2	6116	832.252351246788	1
2	6117	832.939512372866	0
2	6132	835.495661366996	1
2	6133	835.512838663684	0
2	6142	836.411415668726	1
2	6147	837.155813939181	0
2	6154	837.871526579361	1
2	6155	838.579544579062	0
2	6164	839.423115145817	1
2	6167	839.771887160149	0
2	6176	840.937942157811	1
2	6177	841.03112397302	0
2	6184	841.761146090854	1
2	6185	842.014293161836	0
2	6196	842.733570703276	1
2	6197	843.148603521624	0
2	6203	843.252600547962	1
2	6206	843.819744877947	0
2	6210	844.248529459626	1
2	6211	844.526798665907	0
2	6215	844.619729194453	1
2	6218	845.266999136574	0
2	6222	845.315447866278	1
2	6223	845.82727144655	0
2	6230	846.327907357868	1
2	6232	846.492527191393	2
2	6234	846.556286793902	3
2	6236	846.563021169943	4
2	6237	846.932627602398	3
2	6242	847.803011409251	2
2	6246	848.282042007483	3
2	6247	848.496802014636	2
2	6251	848.512936057077	3
2	6252	849.232449652033	2
2	6255	849.898240192199	1
2	6258	850.378600633854	0
2	6262	850.747363911793	1
2	6263	850.858432808017	0
2	6267	851.055036969272	1
2	6269	851.279801692487	2
2	6270	851.851787787174	1
2	6274	852.168874019288	2
2	6275	852.590318898588	1
2	6278	853.286543250328	0
2	6284	853.380889142602	1
2	6286	853.44767443063	2
2	6287	854.111309579445	1
2	6291	854.206203888175	2
2	6292	854.938601743953	1
2	6295	855.386365407716	0
2	6299	855.837746105755	1
2	6301	856.09024713216	2
2	6302	856.213276101473	1
2	6306	857.103354292957	2
2	6307	857.122447384299	1
2	6311	857.291535130084	2
2	6312	857.802463125448	1
2	6316	858.333635880279	2
2	6317	858.455592178517	1
2	6320	859.303672438544	0
2	6324	859.347985118356	1
2	6326	859.502842380099	2
2	6327	860.115153900684	1
2	6333	860.593985646195	2
2	6334	861.106722296878	1
2	6338	861.480568150456	2
2	6339	861.823741446725	1
2	6343	861.846648739078	2
2	6344	862.448460221021	1
2	6348	863.139717369368	2
2	6349	863.168624692886	1
2	6352	863.693196968092	0
2	6356	863.766111343443	1
2	6357	864.254588574367	0
2	6361	864.363900007258	1
2	6363	864.697077308802	2
2	6364	864.723149206173	1
2	6370	865.009931543388	2
2	6371	865.490155522582	1
2	6375	865.592638017108	2
2	6377	865.598861019514	3
2	6378	866.0941417446	2
2	6381	866.589666203699	1
2	6385	866.89140245062	2
2	6386	867.096676219591	1
2	6390	867.279027011211	2
2	6392	867.460301013589	3
2	6393	867.914590784871	2
2	6397	868.157948676624	3
2	6399	868.233628464589	4
2	6400	868.726722513801	3
2	6404	868.873779134772	4
2	6407	869.612275564354	3
2	6410	870.433436284969	2
2	6415	871.017436177805	1
2	6419	871.055335095985	2
2	6421	871.21780205237	3
2	6423	871.378915480564	4
2	6424	871.441632371359	3
2	6427	872.067763736062	2
2	6431	872.110427099789	3
2	6432	872.661189971408	2
2	6436	872.899386234318	3
2	6437	873.615029823557	2
2	6441	873.913437878186	3
2	6442	874.268932439955	2
2	6446	874.604139882096	3
2	6447	874.944718002211	2
2	6450	875.846843220023	1
2	6454	875.878275035528	2
2	6457	876.487379567194	1
2	6461	876.776866897638	2
2	6464	876.961380608062	1
2	6468	877.261761111498	2
2	6471	877.756773500479	1
2	6477	877.786077163758	2
2	6480	878.753184936577	1
2	6484	879.171549447417	2
2	6485	879.317880760189	1
2	6489	879.676779075304	2
2	6490	880.311657164255	1
2	6493	881.136895240014	0
2	6497	881.466682095202	1
2	6499	881.572674162281	2
2	6500	881.982230892507	1
2	6504	882.234046526524	2
2	6505	882.700215532547	1
2	6510	883.416321630785	0
2	6514	883.641917344529	1
2	6515	884.3342836951	0
2	6522	885.061889445849	1
2	6524	885.341715248066	2
2	6525	885.792694855258	1
2	6530	886.39422540959	0
2	6534	886.502736413556	1
2	6535	887.176294521345	0
2	6539	887.40813308326	1
2	6540	887.762546584625	0
2	6544	888.091063205304	1
2	6545	888.339976359401	0
2	6549	888.89698693144	1
2	6550	889.000799870361	0
2	6554	889.48004759003	1
2	6555	889.763055620911	0
2	6573	891.797456660023	1
2	6574	892.387610543668	0
2	6583	893.243176527351	1
2	6585	893.340126288427	2
2	6586	893.49192918866	1
2	6591	894.452922174857	0
2	6597	894.601080802417	1
2	6598	895.177368700375	0
2	6604	895.334875902124	1
2	6605	895.715410840242	0
2	6609	896.126801240363	1
2	6610	896.4864996879	0
2	6617	897.360344130803	1
2	6618	898.09935018533	0
2	6625	899.115216281414	1
2	6628	899.653256752352	0
2	6639	900.94133636517	1
2	6640	900.972212317922	0
2	6647	901.775981075307	1
2	6650	902.231930336273	0
2	6659	903.640221205731	1
2	6660	903.82177908552	0
2	6669	904.696620382956	1
2	6670	904.939689893566	0
2	6679	905.765653952212	1
2	6680	906.355445518309	0
2	6693	907.410835522967	1
2	6694	908.166098189178	0
2	6703	908.694156303255	1
2	6704	909.086524887393	0
2	6713	910.110891432792	1
2	6714	910.523457375551	0
2	6721	911.213054073877	1
2	6724	911.751081186962	0
2	6731	912.43483355965	1
2	6734	912.976914953543	0
2	6743	913.96559942335	1
2	6744	914.235299959555	0
2	6753	915.134098333444	1
2	6754	915.86478865548	0
2	6763	916.434551407023	1
2	6764	917.222146128918	0
2	6773	918.127480050907	1
2	6774	918.789745409003	0
2	6822	926.808208566821	1
2	6827	927.071720807401	0
2	6842	928.693477886605	1
2	6843	928.750744013728	0
2	6862	931.329970710573	1
2	6865	931.951793490496	0
2	6874	932.983631603121	1
2	6877	933.410745127505	0
2	6886	934.713586181648	1
2	6887	935.046254041564	0
2	7161	974.680514682547	1
2	7162	974.774695967935	0
2	7173	975.40127594893	1
2	7176	975.755844679154	0
2	7183	976.700355234869	1
2	7190	977.503184334147	0
2	7203	978.407999473013	1
2	7208	978.889406586397	0
2	7222	980.147896008053	1
2	7224	980.511216347243	2
2	7227	980.765430956944	1
2	7236	981.732961744075	0
2	7242	982.022297665275	1
2	7243	982.55005775183	0
2	7249	983.205780835097	1
2	7250	983.350302487663	0
2	7257	984.313626093153	1
2	7259	984.665373338754	2
2	7260	984.681444609682	1
2	7265	985.221852758252	0
2	7269	985.399035431373	1
2	7270	986.195628585857	0
2	7274	986.418899940271	1
2	7275	987.015364054083	0
2	7279	987.213835134269	1
2	7280	987.484023542614	0
2	7284	987.81702491745	1
2	7285	988.0831880712	0
2	7289	988.375030888763	1
2	7290	988.623501975886	0
2	7294	988.64364375755	1
2	7296	988.995839814545	2
2	7297	989.211160569876	1
2	7301	989.32972321069	2
2	7302	990.209213641664	1
2	7306	990.361489877912	2
2	7309	991.150052798219	1
2	7313	991.268585362914	2
2	7314	991.796697986364	1
2	7318	991.963341734266	2
2	7319	992.395030711224	1
2	7323	992.854495435407	2
2	7324	993.226656814903	1
2	7328	993.228312281348	2
2	7329	993.871821664931	1
2	7333	994.261496772534	2
2	7336	994.826927811984	1
2	7340	994.892579690829	2
2	7341	995.565134530194	1
2	7345	995.845413584967	2
2	7346	995.965201445581	1
2	7350	996.543825822073	2
2	7351	996.675528104096	1
2	7355	997.096900234404	2
2	7356	997.472605076344	1
2	7360	997.700575502609	2
2	7361	998.142050491604	1
2	7365	998.174929548932	2
2	7366	998.563074092898	1
2	7370	998.970530947449	2
2	7373	999.554998331895	1
2	7377	999.954221050474	2
2	7378	1000.299114113726	1
2	7382	1000.596394645698	2
2	7383	1000.848490745301	1
2	7387	1001.099366581528	2
2	7388	1001.638370481	1
2	7392	1002.112614909991	2
2	7393	1002.128289236833	1
2	7396	1002.912662780617	0
2	7400	1002.998574160728	1
2	7403	1003.809702736471	0
2	7410	1004.863466469706	1
2	7411	1005.184192026506	0
2	7420	1006.2473468925	1
2	7423	1006.851312247065	0
2	7430	1007.516078607762	1
2	7431	1008.254610567174	0
2	7518	1021.765513817093	1
2	7519	1022.15110207331	0
2	7532	1023.371302027188	1
2	7533	1023.941637993423	0
2	7542	1024.719404997572	1
2	7545	1025.342206676217	0
2	7552	1026.59200372182	1
2	7553	1026.775261095684	0
2	7562	1027.273114637523	1
2	7565	1027.902040795056	0
2	7576	1028.886596363156	1
2	7581	1029.382946403936	0
2	7590	1030.595333597053	1
2	7591	1030.980557158316	0
2	7600	1032.097569084587	1
2	7601	1032.26987034544	0
2	7612	1032.948103677361	1
2	7615	1033.321459911397	0
2	7624	1034.096180885331	1
2	7625	1034.7311254473	0
2	7634	1035.748969981676	1
2	7635	1035.898811127857	0
2	7646	1036.599416148687	1
2	7647	1036.857814836788	0
2	7654	1037.341537485378	1
2	7655	1037.969601114753	0
2	7662	1038.588141579238	1
2	7665	1039.450453967096	0
2	7672	1040.279874624545	1
2	7675	1040.927589575162	0
2	7682	1041.506387305123	1
2	7685	1042.187606474857	0
2	7696	1043.051418371895	1
2	7697	1043.206513892959	0
2	7704	1043.865406485627	1
2	7706	1043.915045316511	2
2	7709	1044.401509696624	1
2	7712	1045.129222101073	0
2	7719	1045.640526146087	1
2	7721	1046.294450374772	2
2	7722	1046.517328515889	1
2	7725	1046.922319014843	0
2	7732	1047.931681037027	1
2	7736	1048.2462808835	2
2	7737	1048.625375285566	1
2	7742	1049.310210881297	0
2	7746	1049.418833871603	1
2	7747	1050.20550087612	0
2	7751	1050.330035347172	1
2	7752	1050.72816218064	0
2	7756	1050.797785054184	1
2	7757	1051.371424737487	0
2	7761	1051.659997805802	1
2	7762	1052.172383537011	0
2	7769	1052.661471724093	1
2	7770	1053.447233937409	0
2	7774	1053.488336765154	1
2	7777	1054.326533517389	0
2	7781	1054.66671843221	1
2	7782	1054.99738065075	0
2	7791	1055.869594074539	1
2	7793	1055.90399635365	2
2	7794	1056.303255554157	1
2	7799	1056.886413905591	0
2	7809	1058.217841233043	1
2	7811	1058.618756008082	2
2	7812	1058.685144637207	1
2	7815	1059.175932026849	0
2	7822	1060.117927873328	1
2	7823	1060.450378248802	0
2	7836	1061.483653071127	1
2	7837	1061.680382783486	0
2	7844	1062.325947167047	1
2	7845	1062.686268442132	0
2	7852	1063.712778980484	1
2	7853	1064.039087993007	0
2	7866	1065.305511230271	1
2	7867	1065.407966269281	0
2	7874	1066.093630738938	1
2	7876	1066.167641735713	2
2	7881	1066.81171611497	1
2	7886	1067.583102262028	0
2	7890	1067.921705264277	1
2	7892	1068.081000894831	2
2	7893	1068.18021721524	1
2	7897	1068.443234508798	2
2	7898	1068.913704024542	1
2	7902	1069.348659123411	2
2	7903	1069.572964168347	1
2	7907	1069.615762824088	2
2	7909	1069.667010504588	3
2	7910	1070.206370028534	2
2	7914	1070.214712725781	3
2	7915	1070.678491309012	2
2	7918	1071.453690828901	1
2	7921	1072.161497033347	0
2	7927	1072.462148122013	1
2	7928	1073.093274975109	0
2	7932	1073.34711164291	1
2	7934	1073.518264460958	2
2	7935	1073.995902826597	1
2	7939	1074.096031552465	2
2	7940	1074.509448273999	1
2	7944	1074.613787411145	2
2	7945	1075.203315460363	1
2	7949	1075.705049787525	2
2	7950	1076.0749061558	1
2	7953	1076.820929818188	0
2	7957	1077.207808725346	1
2	7959	1077.243919144914	2
2	7960	1077.514789808967	1
2	7964	1078.067234466096	2
2	7965	1078.343360323093	1
2	7968	1079.322664026178	0
2	7972	1079.708735315389	1
2	7973	1080.047642580147	0
2	7980	1081.347478583715	1
2	7982	1081.470980548516	2
2	7983	1081.562262079872	1
2	7988	1082.383574451607	0
2	7992	1083.14529408732	1
2	7993	1083.3713564633	0
2	7999	1083.900726958946	1
2	8000	1084.019114733821	0
2	8004	1084.214889339828	1
2	8005	1085.010871826912	0
2	8019	1086.485071976752	1
2	8021	1086.753426200126	2
2	8022	1086.76085407744	1
2	8025	1087.730883331931	0
2	8031	1088.043239143392	1
2	8036	1088.728898027594	0
2	8042	1089.300970502457	1
2	8043	1089.347429968006	0
2	8047	1089.587443697861	1
2	8049	1089.888316449002	2
2	8050	1090.05108502359	1
2	8054	1090.407807840875	2
2	8055	1090.934450322677	1
2	8058	1091.525667418035	0
2	8062	1091.807196714315	1
2	8063	1092.175633526415	0
2	8069	1092.534807083123	1
2	8072	1092.728104805256	0
2	8076	1092.783979770424	1
2	8077	1093.701010245279	0
2	8081	1094.061369736078	1
2	8082	1094.295065333749	0
2	8086	1095.008436748651	1
2	8087	1095.183564876959	0
2	8094	1096.496529873143	1
2	8095	1096.950745693415	0
2	8104	1097.626581844828	1
2	8105	1098.481282503398	0
2	8114	1099.508023408793	1
2	8115	1099.960567492534	0
2	8122	1100.659841221098	1
2	8125	1101.01419439908	0
2	8132	1101.695393680266	1
2	8135	1102.223673655334	0
2	8206	1112.965965747479	1
2	8209	1113.233299890496	0
2	8216	1114.011647997093	1
2	8219	1114.507027573521	0
2	8235	1116.608109845251	1
2	8236	1116.628201859781	0
2	8263	1120.588392122223	1
2	8264	1120.816931428445	0
2	8273	1121.300425777167	1
2	8278	1122.215937911264	0
2	8292	1123.807039486737	1
2	8293	1124.789423079287	0
2	8305	1125.921781965984	1
2	8306	1126.220444408442	0
2	8480	1152.12537250879	1
2	8485	1152.740569481774	0
2	8494	1153.300593915374	1
2	8495	1153.737571040968	0
2	8504	1155.037404795163	1
2	8505	1155.155379609493	0
2	8525	1156.970685145084	1
2	8528	1157.487336835554	0
2	8535	1158.261576264297	1
2	8538	1158.957682713969	0
2	8547	1159.696495372632	1
2	8550	1160.462802974889	0
2	8560	1161.249314711053	1
2	8563	1161.387550855204	0
2	8567	1161.434688281385	1
2	8576	1162.185523228868	0
2	8580	1162.237095669275	1
2	8585	1162.926247747996	0
2	8589	1162.981011899222	1
2	8590	1163.34907409829	0
2	8594	1163.753709177524	1
2	8595	1163.966292973756	0
2	8599	1164.252156741234	1
2	8601	1164.318069818342	2
2	8602	1164.805101310377	1
2	8606	1164.983548001803	2
2	8607	1165.280936997718	1
2	8611	1165.298341872769	2
2	8614	1165.834454443267	1
2	8619	1166.563179351444	0
2	8623	1166.61276947949	1
2	8624	1167.011496373786	0
2	8628	1167.132392777802	1
2	8630	1167.224647911574	2
2	8631	1168.008081436817	1
2	8635	1168.29801546099	2
2	8636	1168.501496014845	1
2	8640	1168.892185375496	2
2	8641	1168.912718878182	1
2	8645	1169.401449814566	2
2	8646	1169.659814359954	1
2	8649	1170.147594225228	0
2	8653	1170.428471074372	1
2	8655	1170.539263376804	2
2	8658	1171.106438634878	1
2	8661	1171.550951200917	0
2	8665	1171.732200254788	1
2	8667	1171.738741087889	2
2	8668	1172.196005760606	1
2	8672	1172.272382739953	2
2	8674	1172.344773420782	3
2	8675	1172.629591011729	2
2	8678	1173.325432267886	1
2	8682	1173.41853536417	2
2	8684	1173.829423512464	3
2	8685	1174.244823446412	2
2	8689	1174.460803734243	3
2	8690	1175.145064469528	2
2	8694	1175.30515091124	3
2	8695	1175.831362053574	2
2	8699	1176.116831899332	3
2	8702	1176.807102479421	2
2	8706	1177.111524789056	3
2	8707	1177.463842941828	2
2	8710	1178.070171853395	1
2	8714	1178.345833566584	2
2	8715	1178.926459379781	1
2	8719	1179.373064482452	2
2	8720	1179.828783815874	1
2	8724	1179.977015762048	2
2	8725	1180.660152797828	1
2	8729	1180.804018257955	2
2	8731	1180.892128354495	3
2	8732	1181.40142842234	2
2	8736	1181.569175531871	3
2	8737	1181.860748567068	2
2	8741	1182.027987269142	3
2	8742	1182.448444281713	2
2	8745	1183.190631631258	1
2	8749	1183.647209680057	2
2	8750	1183.851711993626	1
2	8754	1184.199271710376	2
2	8756	1184.293035640469	3
2	8757	1184.430419564535	2
2	8761	1184.862372494722	3
2	8764	1185.210340858725	2
2	8768	1185.34367380752	3
2	8769	1186.096033715232	2
2	8773	1186.252561491378	3
2	8774	1186.844833179944	2
2	8778	1186.892749322686	3
2	8779	1187.726465000593	2
2	8782	1188.163537349327	1
2	8786	1188.283805022436	2
2	8788	1188.493902691234	3
2	8789	1188.772848208443	2
2	8793	1189.03464288708	3
2	8794	1189.212993159759	2
2	8798	1189.41703404859	3
2	8800	1189.689726211508	4
2	8801	1189.918355438727	3
2	8804	1190.326863693361	2
2	8808	1190.461544603625	3
2	8810	1190.478504395531	4
2	8811	1190.834733730237	3
2	8815	1190.891578834478	4
2	8817	1190.960774560677	5
2	8818	1191.360341753167	4
2	8822	1191.401176668732	5
2	8823	1192.037265026345	4
2	8827	1192.220702871172	5
2	8828	1192.691632411311	4
2	8832	1192.874476487027	5
2	8833	1193.624346259896	4
2	8837	1193.69166496984	5
2	8839	1193.90416002742	6
2	8840	1194.392527220266	5
2	8843	1195.268737940265	4
2	8847	1195.704235175394	5
2	8848	1196.134257801071	4
2	8851	1196.563092407266	3
2	8855	1196.857968585742	4
2	8857	1197.08025577307	5
2	8858	1197.122114323506	4
2	8862	1197.165415126513	5
2	8863	1197.691854268599	4
2	8867	1197.705375527232	5
2	8868	1198.345661063499	4
2	8874	1198.63507422314	5
2	8875	1199.297068533587	4
2	8878	1199.792432744668	3
2	8882	1199.958675177341	4
2	8884	1200.318640774611	5
2	8886	1200.322015739317	6
2	8887	1200.641913652566	5
2	8891	1201.078495187392	6
2	8892	1201.604504695401	5
2	8896	1201.628439201961	6
2	8897	1202.212013031967	5
2	8901	1202.350330683974	6
2	8902	1203.179098124528	5
2	8905	1203.632041328778	4
2	8909	1203.699509544468	5
2	8911	1203.764147392145	6
2	8912	1204.160163397813	5
2	8916	1204.167840482569	6
2	8917	1204.561871108744	5
2	8921	1204.716430992006	6
2	8923	1205.07628188036	7
2	8924	1205.557516103197	6
2	8928	1205.638057890968	7
2	8929	1206.53775033332	6
2	8933	1206.78731500847	7
2	8934	1207.456844633218	6
2	8937	1208.354869818227	5
2	8941	1208.487377729907	6
2	8943	1208.580078900595	7
2	8944	1209.291036563605	6
2	8948	1209.516974150686	7
2	8949	1209.886253536964	6
2	8954	1210.620969265705	5
2	8958	1210.841319679686	6
2	8959	1211.276290867064	5
2	8963	1211.585442822986	6
2	8966	1212.22982088286	5
2	8970	1212.495768852766	6
2	8971	1212.821912550466	5
2	8974	1213.323139126232	4
2	8978	1213.795510238609	5
2	8979	1214.102468660433	4
2	8982	1214.629274885642	3
2	8985	1215.363432844408	2
2	8989	1215.68264544031	3
2	8991	1215.70855045382	4
2	8993	1215.888159991346	5
2	8994	1216.262542189198	4
2	8998	1216.459006256972	5
2	8999	1216.855419359595	4
2	9002	1217.314873074839	3
2	9006	1217.569174231929	4
2	9008	1217.576345156058	5
2	9009	1217.843840624351	4
2	9015	1218.247461015241	5
2	9016	1218.431437540386	4
2	9019	1218.871689749748	3
2	9023	1218.933413296238	4
2	9025	1219.101316641989	5
2	9026	1219.369475022849	4
2	9030	1219.730299344366	5
2	9031	1220.24300728711	4
2	9037	1220.853301555287	5
2	9038	1221.099164155272	4
2	9042	1221.583395209558	5
2	9043	1222.060426926713	4
2	9047	1222.231066144346	5
2	9048	1222.541684225162	4
2	9051	1223.125455961057	3
2	9055	1223.286061320577	4
2	9057	1223.44409246659	5
2	9058	1224.007157374552	4
2	9062	1224.767875415175	5
2	9063	1224.874791577138	4
2	9066	1225.657788022008	3
2	9070	1225.691947887601	4
2	9071	1226.490665592306	3
2	9075	1226.494082464064	4
2	9076	1226.961693177472	3
2	9080	1227.711394188169	4
2	9081	1227.71650759299	3
2	9087	1227.763334656903	4
2	9088	1228.42420533477	3
2	9092	1228.792500355655	4
2	9093	1229.013382682676	3
2	9097	1229.520426836356	4
2	9098	1229.706535249349	3
2	9101	1230.179085557122	2
2	9105	1230.528990551177	3
2	9106	1231.156846497307	2
2	9109	1231.674391130923	1
2	9113	1231.80848480364	2
2	9115	1232.024679933766	3
2	9116	1232.125771517313	2
2	9119	1232.629016902816	1
2	9123	1232.718699987825	2
2	9125	1232.846650406258	3
2	9126	1233.08271411765	2
2	9129	1233.692762802733	1
2	9132	1234.600052961992	0
2	9136	1234.776406098765	1
2	9137	1235.134432458557	0
2	9147	1236.650247664643	1
2	9152	1237.414232145768	0
2	9161	1238.211213613383	1
2	9164	1238.935136547085	0
2	9275	1254.443325068792	1
2	9276	1254.656428225532	0
2	9280	1254.826970491928	1
2	9283	1255.397361521384	0
2	9289	1255.584389383338	1
2	9290	1256.230815062819	0
2	9294	1256.381619272932	1
2	9295	1256.907861993097	0
2	9299	1257.158642572087	1
2	9300	1257.618195306564	0
2	9304	1258.061048827363	1
2	9305	1258.265541193176	0
2	9309	1258.281660507888	1
2	9310	1258.722763282301	0
2	9330	1261.558505829176	1
2	9332	1261.561243332178	2
2	9335	1262.043701491885	1
2	9342	1262.710475350412	0
2	9349	1263.975310884626	1
2	9350	1264.36520384984	0
2	9362	1266.112605262503	1
2	9363	1266.563760525276	0
2	9416	1274.607768415546	1
2	9421	1275.295148020991	0
2	9428	1276.130123770345	1
2	9429	1276.484543391791	0
2	9440	1277.216424236466	1
2	9441	1277.973650951924	0
2	9448	1279.216616950088	1
2	9449	1279.406153428655	0
2	9458	1280.405053182804	1
2	9461	1280.693994608575	0
2	9470	1281.330595239511	1
2	9471	1281.973946933176	0
2	9475	1282.230470457487	1
2	9476	1282.622370241357	0
2	9480	1282.736927607233	1
2	9481	1283.585643285986	0
2	9485	1283.834891922396	1
2	9486	1284.199147689071	0
2	9490	1284.233793661927	1
2	9492	1284.775675119997	2
2	9495	1285.056243137045	1
2	9499	1285.140422753325	2
2	9500	1285.828184486002	1
2	9504	1286.082137353606	2
2	9505	1286.739355602635	1
2	9509	1287.01196378416	2
2	9510	1287.484443373008	1
2	9513	1288.140213760741	0
2	9519	1288.451953624321	1
2	9520	1288.786333779486	0
2	9524	1289.047181931773	1
2	9525	1289.252945671611	0
2	9532	1289.956107295135	1
2	9533	1290.502539430241	0
2	9540	1291.578871278079	1
2	9541	1292.059921783636	0
2	9552	1292.985507582812	1
2	9553	1293.539815130745	0
2	9564	1294.735604597187	1
2	9565	1294.946076346616	0
2	9579	1296.669000854309	1
2	9580	1297.261849627932	0
2	9591	1298.24294578967	1
2	9592	1298.814064545147	0
2	9599	1299.889674237257	1
2	9602	1300.401026156507	0
2	9611	1301.126442733051	1
2	9612	1301.65857049968	0
2	9616	1302.141279452149	1
2	9617	1302.528760318001	0
2	9629	1303.771376346901	1
2	9631	1303.793692147273	2
2	9632	1304.716829152879	1
2	9639	1305.492836124551	0
2	9643	1305.861252024968	1
2	9644	1306.458129165935	0
2	9648	1307.025195418103	1
2	9651	1307.23756393493	0
2	9655	1307.379149795619	1
2	9658	1308.099513946807	0
2	9662	1308.145570469605	1
2	9663	1308.826791404521	0
2	9667	1309.113520571692	1
2	9668	1309.539210192634	0
2	9672	1309.621928046853	1
2	9673	1310.210503513001	0
2	9677	1310.47878588614	1
2	9678	1310.96099271002	0
2	9682	1311.00891855952	1
2	9683	1311.949800208451	0
2	9687	1311.959622193819	1
2	9688	1312.690696278734	0
2	9692	1313.023064314328	1
2	9693	1313.242611384213	0
2	9700	1314.157630206985	1
2	9702	1314.369129258307	2
2	9703	1314.616923559884	1
2	9706	1315.319322748211	0
2	9712	1315.683010807223	1
2	9713	1315.943707841038	0
2	9717	1316.074669231349	1
2	9720	1316.612797756176	0
2	9724	1316.668357129535	1
2	9725	1317.164285937659	0
2	9729	1317.392466341675	1
2	9730	1317.776001164559	0
2	9734	1317.892613273111	1
2	9735	1318.580973110776	0
2	9739	1318.649877641838	1
2	9740	1319.019513623193	0
2	9744	1319.186234324535	1
2	9745	1319.608121538963	0
2	9749	1319.620785591626	1
2	9750	1320.064219221202	0
2	9754	1320.173741256191	1
2	9755	1321.028685493031	0
2	9764	1321.791522659135	1
2	9766	1322.40053718904	2
2	9767	1322.432570122936	1
2	9770	1323.041133354985	0
2	9774	1323.303572329001	1
2	9775	1323.82656588937	0
2	9779	1323.852724579787	1
2	9782	1324.539370087589	0
2	9786	1324.728538606661	1
2	9788	1325.033790274209	2
2	9789	1325.272983292359	1
2	9793	1325.559695169982	2
2	9795	1325.688954391728	3
2	9798	1326.218538457722	2
2	9802	1326.269130665867	3
2	9803	1326.647256733858	2
2	9806	1327.196723586702	1
2	9809	1327.776528904596	0
2	9813	1328.108411624117	1
2	9815	1328.297786243956	2
2	9816	1328.58284250196	1
2	9820	1328.652730375218	2
2	9821	1329.504162479759	1
2	9824	1330.147087784166	0
2	9828	1330.35276073817	1
2	9830	1330.479364936445	2
2	9831	1330.78954775269	1
2	9834	1331.77472768315	0
2	9838	1332.200714896668	1
2	9839	1332.46083310983	0
2	9843	1332.709606515402	1
2	9844	1333.380763934421	0
2	9848	1333.743888617795	1
2	9849	1333.801785287828	0
2	9853	1333.89700345297	1
2	9854	1334.517082199928	0
2	9861	1335.173817146249	1
2	9862	1335.436908058039	0
2	9866	1335.564923777423	1
2	9869	1336.01485240763	0
2	9873	1336.177775554914	1
2	9874	1336.523680490031	0
2	9878	1336.877146650471	1
2	9879	1337.211412294404	0
2	9886	1337.70068982183	1
2	9887	1338.539538943497	0
2	9896	1339.489639491173	1
2	9898	1339.91566395215	2
2	9899	1339.920966752162	1
2	9904	1340.635069502899	0
2	9913	1341.295155561323	1
2	9915	1341.510983556944	2
2	9916	1341.769956692271	1
2	9921	1342.286242673462	0
2	9925	1342.616246191969	1
2	9926	1342.920384079739	0
2	9930	1343.094948366663	1
2	9932	1343.099253577776	2
2	9933	1343.607614694638	1
2	9939	1343.862005563584	2
2	9940	1344.07329949351	1
2	9944	1344.450337733189	2
2	9945	1345.005029093763	1
2	9949	1345.517755274577	2
2	9950	1345.805811280022	1
2	9954	1346.00264945068	2
2	9955	1346.260164380456	1
2	9959	1346.408821870393	2
2	9960	1346.736880199621	1
2	9964	1347.053774717391	2
2	9965	1347.241466056938	1
2	9970	1348.046023136946	0
2	9974	1348.851892341481	1
2	9975	1348.939623495574	0
2	9985	1351.081472531168	1
2	9986	1351.167106252127	0
2	9990	1351.447771244288	1
2	9992	1351.485784452742	2
2	9993	1352.047895959588	1
2	10001	1352.33451426732	2
2	10003	1352.565579587023	3
2	10004	1352.729612305071	2
2	10007	1353.539357697367	1
2	10011	1353.719107589068	2
2	10015	1353.999404895019	3
2	10016	1354.171573921721	2
2	10020	1354.277052043067	3
2	10021	1354.914180414341	2
2	10024	1355.553607478933	1
2	10028	1356.011565253954	2
2	10029	1356.219242154955	1
2	10033	1356.615804828913	2
2	10034	1357.132827583104	1
2	10038	1357.528715338845	2
2	10039	1357.661706280531	1
2	10043	1357.799078923883	2
2	10044	1358.452231700075	1
2	10049	1358.955203589386	0
2	10053	1359.168411817401	1
2	10054	1359.399313832176	0
2	10058	1359.859785996765	1
2	10060	1360.246124923767	2
2	10061	1360.391346353347	1
2	10064	1360.929067091512	0
2	10074	1361.886339966611	1
2	10077	1362.359826900258	0
2	10081	1362.435034951169	1
2	10083	1362.695117699082	2
2	10085	1362.701986533398	3
2	10086	1362.947859192181	2
2	10092	1363.179546428527	3
2	10095	1363.708550040012	2
2	10099	1363.752134200432	3
2	10104	1364.385681264296	2
2	10108	1364.733582901932	3
2	10109	1365.126877379332	2
2	10113	1365.442364785167	3
2	10114	1366.07087661173	2
2	10120	1366.583980872038	3
2	10121	1367.034326219613	2
2	10125	1367.137770236224	3
2	10127	1367.248026733165	4
2	10130	1367.844307764767	3
2	10134	1367.868899966622	4
2	10135	1368.353169226142	3
2	10139	1368.48202242404	4
2	10140	1369.325164063609	3
2	10143	1369.906118070342	2
2	10147	1370.27027692877	3
2	10148	1370.66725173761	2
2	10152	1370.941100706457	3
2	10153	1371.520895597486	2
2	10156	1372.051226270626	1
2	10160	1372.577357510234	2
2	10161	1372.794593697282	1
2	10165	1373.07502379499	2
2	10166	1373.401802138433	1
2	10170	1373.490368777613	2
2	10171	1374.048839277363	1
2	10175	1374.335174645308	2
2	10176	1374.818948757889	1
2	10179	1375.684132773437	0
2	10183	1376.441825987444	1
2	10184	1376.527917579383	0
2	10188	1376.871197066554	1
2	10189	1377.045834267659	0
2	10196	1378.077373559781	1
2	10197	1378.320492331179	0
2	10207	1380.166023363641	1
2	10208	1380.324192857424	0
2	10219	1381.076628941449	1
2	10220	1381.697360214458	0
2	10229	1382.839219424021	1
2	10230	1383.276760460676	0
2	10237	1384.310938838119	1
2	10238	1384.431812381611	0
2	10245	1385.083361230374	1
2	10246	1385.802243443585	0
2	10258	1387.385846739507	1
2	10261	1387.963487974096	0
2	10265	1388.235858775643	1
2	10266	1388.829929940922	0
2	10274	1389.387726141587	1
2	10275	1389.665267836869	0
2	10279	1389.72859229128	1
2	10280	1390.083484472202	0
2	10286	1390.280546683128	1
2	10290	1390.599095114792	2
2	10291	1390.648825260911	1
2	10295	1390.776360603287	2
2	10296	1391.449137256907	1
2	10300	1391.782547940121	2
2	10301	1392.047069096153	1
2	10305	1392.219148440083	2
2	10306	1392.46018782431	1
2	10309	1393.126281249437	0
2	10313	1393.609712518939	1
2	10314	1393.624770003099	0
2	10318	1393.777635504384	1
2	10319	1394.126824675275	0
2	10330	1394.771128750772	1
2	10332	1395.045711727801	2
2	10334	1395.250283019329	3
2	10335	1395.323225975603	2
2	10341	1395.978234110562	3
2	10342	1396.301053558344	2
2	10347	1397.268857437659	1
2	10351	1397.558048613032	2
2	10352	1398.266164608773	1
2	10355	1398.766891928211	0
2	10359	1399.028576295471	1
2	10360	1399.38307411746	0
2	10364	1400.090937364449	1
2	10366	1400.257125273763	2
2	10367	1400.271336229992	1
2	10371	1400.359142691856	2
2	10373	1400.396361521881	3
2	10374	1401.122634438853	2
2	10377	1401.639217395763	1
2	10381	1401.766159555856	2
2	10383	1401.781601676241	3
2	10384	1402.600451937373	2
2	10388	1402.693884212649	3
2	10390	1402.955298844312	4
2	10391	1403.128698563026	3
2	10394	1403.826143617145	2
2	10398	1404.004519865858	3
2	10400	1404.161042254913	4
2	10402	1404.421967895787	5
2	10403	1404.435659831212	4
2	10406	1405.236383585547	3
2	10410	1405.256604710969	4
2	10411	1405.914554980685	3
2	10415	1405.91476305477	4
2	10417	1405.985374428547	5
2	10418	1406.433682404979	4
2	10422	1406.541937199994	5
2	10424	1406.832036136271	6
2	10425	1407.050265713557	5
2	10429	1407.650135527314	6
2	10430	1407.883059856397	5
2	10434	1408.690763107042	6
2	10435	1408.718472841763	5
2	10438	1409.257992962337	4
2	10441	1409.836948930387	3
2	10445	1410.441876089097	4
2	10447	1410.458221399223	5
2	10448	1410.481387144708	4
2	10452	1410.830476479535	5
2	10454	1410.885305153019	6
2	10456	1411.007455578431	7
2	10457	1411.064327564564	6
2	10461	1411.332981822531	7
2	10462	1411.939701564292	6
2	10465	1412.389783323983	5
2	10471	1412.486729691473	6
2	10473	1412.852584882359	7
2	10474	1412.93241044158	6
2	10478	1413.109141283441	7
2	10479	1413.373812768896	6
2	10482	1414.129441149914	5
2	10487	1415.0732098315	4
2	10491	1415.280963782797	5
2	10492	1415.53121587025	4
2	10496	1415.727811070226	5
2	10497	1416.384847837463	4
2	10501	1416.905028485874	5
2	10502	1417.060532274991	4
2	10506	1417.26130635799	5
2	10508	1417.295663013891	6
2	10510	1417.519427520301	7
2	10511	1418.003847468374	6
2	10515	1418.152777725733	7
2	10516	1418.720108784092	6
2	10520	1418.784472525163	7
2	10521	1419.253758061686	6
2	10525	1419.442247336787	7
2	10528	1420.242800629334	6
2	10532	1420.260367620012	7
2	10533	1421.239395697005	6
2	10537	1421.34498599418	7
2	10538	1421.927741679186	6
2	10542	1422.467711658188	7
2	10543	1422.767529629646	6
2	10546	1423.356103605414	5
2	10549	1424.013563457933	4
2	10553	1424.625590145225	5
2	10554	1424.969490648444	4
2	10560	1425.585019420432	5
2	10561	1425.773854446654	4
2	10565	1425.887404318503	5
2	10566	1426.386807572945	4
2	10570	1427.033437098435	5
2	10571	1427.1181921973	4
2	10575	1427.346879661549	5
2	10577	1427.469257897655	6
2	10579	1427.858470055436	7
2	10580	1427.957258823664	6
2	10584	1428.079593421313	7
2	10585	1428.743469574592	6
2	10588	1429.284496966713	5
2	10592	1429.37416746889	6
2	10593	1429.93925488215	5
2	10596	1430.358510049536	4
2	10600	1430.391083935906	5
2	10601	1431.167029586258	4
2	10604	1431.89756625929	3
2	10608	1432.098934600027	4
2	10611	1432.398693455719	3
2	10615	1432.474781057928	4
2	10616	1433.145552791479	3
2	10620	1433.67300022021	4
2	10621	1433.793286225303	3
2	10624	1434.341912426204	2
2	10628	1434.395216641036	3
2	10630	1434.875149691517	4
2	10631	1434.907930364842	3
2	10635	1434.965884636952	4
2	10636	1435.762318379023	3
2	10640	1436.376734223001	4
2	10643	1436.606420993908	3
2	10647	1436.754981426025	4
2	10648	1437.026312679668	3
2	10651	1437.436287528333	2
2	10655	1437.630525735401	3
2	10659	1437.772883346772	4
2	10660	1438.037735591327	3
2	10664	1438.050404188179	4
2	10666	1438.888071444066	5
2	10667	1438.997029084071	4
2	10671	1439.040407182183	5
2	10672	1439.982845350459	4
2	10676	1440.029751495377	5
2	10677	1440.734905246703	4
2	10680	1441.404154732183	3
2	10686	1441.567010825144	4
2	10687	1442.205333743861	3
2	10690	1442.930953480035	2
2	10694	1443.138074202968	3
2	10695	1443.438414072256	2
2	10699	1443.586399496276	3
2	10700	1444.096051001699	2
2	10704	1444.170542196575	3
2	10705	1444.602139326894	2
2	10709	1445.028864501622	3
2	10710	1445.23558879533	2
2	10714	1445.364370253686	3
2	10716	1445.775779937025	4
2	10719	1446.177076507929	3
2	10722	1446.840874119579	2
2	10726	1447.243684630465	3
2	10728	1447.311747585059	4
2	10729	1447.445454172195	3
2	10733	1447.516718626397	4
2	10734	1448.044058066011	3
2	10738	1448.293288231926	4
2	10740	1448.608180575123	5
2	10741	1448.74657378696	4
2	10745	1449.176013235487	5
2	10746	1449.412814626574	4
2	10750	1449.662031762514	5
2	10751	1450.400646781047	4
2	10755	1450.652996962986	5
2	10756	1451.134357562066	4
2	10760	1451.234368543081	5
2	10761	1451.988427498807	4
2	10765	1452.000075590231	5
2	10766	1452.436681669728	4
2	10770	1453.102789725409	5
2	10771	1453.181896195571	4
2	10776	1453.581935659248	3
2	10780	1453.803547242916	4
2	10782	1454.263345190437	5
2	10783	1454.278009795688	4
2	10787	1454.860724797877	5
2	10788	1455.225999567948	4
2	10791	1456.007120908715	3
2	10795	1456.213568498194	4
2	10796	1456.461206313234	3
2	10800	1456.543414235027	4
2	10801	1457.320743898826	3
2	10805	1457.438844228169	4
2	10807	1457.575508266065	5
2	10808	1457.808545809763	4
2	10811	1458.494205550395	3
2	10815	1459.331426279861	4
2	10816	1459.393894691404	3
2	10819	1460.084285714349	2
2	10822	1460.751734206278	1
2	10826	1461.063761388355	2
2	10827	1461.191327076277	1
2	10831	1461.267123185887	2
2	10833	1461.43124462077	3
2	10834	1462.067356900277	2
2	10837	1462.923548468819	1
2	10841	1463.029070684016	2
2	10842	1463.695264297223	1
2	10846	1463.868492503643	2
2	10847	1464.229088151699	1
2	10851	1464.338075764817	2
2	10852	1465.001870833768	1
2	10856	1465.089080815075	2
2	10857	1465.547996155836	1
2	10861	1466.159284567126	2
2	10862	1466.231345585931	1
2	10866	1466.489277648365	2
2	10867	1466.851840174535	1
2	10871	1466.999616813159	2
2	10872	1467.553928481286	1
2	10875	1468.282022316392	0
2	10879	1468.313305022717	1
2	10881	1468.680527402469	2
2	10882	1468.794914455629	1
2	10885	1469.359463998965	0
2	10889	1469.395789158714	1
2	10891	1469.439894691447	2
2	10892	1469.974207062378	1
2	10896	1470.36534581312	2
2	10897	1470.559638084296	1
2	10901	1471.055713583521	2
2	10902	1471.056434733432	1
2	10906	1471.109266506156	2
2	10907	1471.950487304537	1
2	10910	1472.538127146254	0
2	10914	1472.846614502632	1
2	10915	1473.390249027556	0
2	10921	1473.760991296827	1
2	10923	1473.915780242462	2
2	10924	1474.237777644081	1
2	10928	1474.388045237529	2
2	10929	1474.771547484176	1
2	10933	1474.910786798388	2
2	10934	1475.742657740984	1
2	10939	1476.589589167304	0
2	10943	1477.012448190243	1
2	10945	1477.107555322281	2
2	10947	1477.127610776876	3
2	10948	1477.274359665543	2
2	10952	1477.356912860204	3
2	10953	1477.997135201946	2
2	10957	1478.343646075954	3
2	10958	1478.806076784955	2
2	10961	1479.677797067688	1
2	10964	1480.227957797946	0
2	10971	1480.742935470729	1
2	10972	1481.519365433382	0
2	10984	1483.003305158438	1
2	10985	1483.109318520374	0
2	10999	1484.850690603458	1
2	11000	1485.563196545852	0
2	11012	1487.493508967311	1
2	11013	1487.629840273376	0
2	11030	1489.49898188278	1
2	11037	1490.120292205377	0
2	11044	1490.816126236324	1
2	11045	1491.177467915569	0
2	11054	1492.37980674929	1
2	11055	1492.800632754867	0
2	11067	1494.624255573616	1
2	11068	1495.423367153961	0
2	11319	1529.287125955961	1
2	11320	1529.87641297329	0
2	11333	1530.469774352891	1
2	11336	1531.263140256998	0
2	11346	1532.757270626624	1
2	11347	1533.255469800082	0
2	11358	1534.447368697984	1
2	11359	1535.05726731044	0
2	11371	1536.065193753696	1
2	11374	1536.787968559859	0
2	11385	1538.161467192449	1
2	11386	1538.287227183923	0
2	11397	1538.881749339939	1
2	11399	1539.093681304304	2
2	11400	1539.739889447594	1
2	11405	1540.511939124407	0
2	11409	1540.747029302754	1
2	11410	1541.206783203145	0
2	11414	1541.749846577121	1
2	11415	1542.114989044953	0
2	11422	1543.147257951138	1
2	11423	1543.54596981678	0
2	11427	1543.695760225566	1
2	11428	1544.277276021445	0
2	11436	1544.920810486915	1
2	11437	1545.057732747698	0
2	11441	1545.581838492402	1
2	11442	1545.58595705821	0
2	11446	1545.912056315092	1
2	11447	1546.32712529741	0
2	11451	1546.41688875674	1
2	11452	1547.257218022335	0
2	11459	1548.147418244612	1
2	11461	1548.223940819217	2
[...]
6	144292	19606.785398544085	3432.3144186964
6	144314	19610.990559832559	3395.8375930327
6	144340	19615.762312811608	3391.0581654696
6	144356	19618.629539295886	11438.081999447
6	144414	19625.957013059496	3264.8149008278
6	144464	19633.110888189772	6225.6651939837
6	144611	19651.582816651599	16244.491083422
6	144657	19657.488227386349	14836.058016634
6	145240	19733.978843799645	14889.230458143
6	145250	19735.465494710572	16281.725313245
6	145298	19743.050280002591	18003.106890853
6	145418	19758.506488105555	13372.409194415
6	145484	19768.201132275018	3275.6663039229
6	145497	19770.6662395711	13373.463713766
6	145559	19778.016511036729	11495.215465988
6	145825	19813.608141639545	17138.883012576
6	145830	19814.220863920679	18027.036332852
6	146207	19865.201132105848	3295.9571992554
6	146290	19878.484458111132	9952.929110199
6	146308	19881.91778353555	11542.578067786
6	146334	19885.975612389575	16354.99848155
6	146436	19899.03263595351	3304.5747624753
6	146485	19906.358780085389	9975.2077044126
6	146537	19912.461252940725	9977.2059523413
6	146567	19916.680290390271	11568.403194775
6	146603	19921.652645634207	17946.01710595
6	146631	19925.660413610795	9976.2730651837
6	146771	19946.070763465623	9955.5436334617
6	146890	19961.786253668975	15026.783374699
6	146980	19973.795478592538	6440.0412413916
6	147042	19982.510590535033	17968.781162522
6	147477	20046.08984464165	9995.9682745473
6	147869	20100.082672926648	10036.117424717
6	148653	20206.703846567412	13679.446697693
6	148713	20215.313751932288	11795.757378766
6	148723	20216.99494422973	13672.738447547
6	149511	20321.816101278838	3457.3755756087
6	149591	20331.754950254742	11868.21617057
6	151119	20537.806284194582	3636.2982271799
6	151339	20569.564728636856	13918.932718007
6	151408	20578.872543485511	16979.196522303
6	152055	20667.816381091204	10429.652242571
6	152118	20677.474643934375	12122.285864088
6	152201	20688.716439539703	13987.792090708
6	152338	20707.759228632365	18541.923205872
6	152428	20719.757587665691	12154.550333997
6	152439	20722.403337573958	12143.210081702
6	152457	20725.825269170896	12131.459866242
6	152624	20748.804217600123	6860.6308174654
6	152684	20757.747907248185	3761.3868968558
6	152701	20760.534769867592	18548.430538122
6	152706	20761.153574880351	6865.1483462362
6	152909	20789.607795944809	3771.0745188508
6	152930	20792.705483831279	3762.5178967838
6	152985	20799.951582279289	6844.3199427826
6	153022	20804.569910142896	20600.62828929
6	153256	20835.77689992687	6853.8885137291
6	153365	20851.941639763761	17192.264060675
6	153383	20854.659088247914	18098.825524981
6	153444	20863.023029344149	3761.7353053157
6	153504	20870.608532693321	3766.0546830803
6	153509	20871.150399131831	10531.269251876
6	153903	20923.235575822593	3783.0928196864
6	154053	20943.629615898283	12195.676985083
6	154081	20947.685180208079	6864.564683925
6	154864	21052.937040741078	10561.44984902
6	154908	21059.484158372495	3798.1162353834
6	155170	21091.298044160042	10540.344276205
6	155525	21138.762854086451	6982.7005195389
6	155593	21149.375344779232	6973.9524654079
6	155747	21170.34832498681	6975.9747303082
6	155943	21197.325890627441	10599.536894736
6	156131	21221.825511739668	6993.0905233341
6	156239	21238.367477165895	15706.888980181
6	156260	21241.893001484299	10586.900409536
6	156318	21249.385740301466	14291.205968561
6	156331	21251.221431968162	17543.228987663
6	156556	21282.549492722969	6999.6964366629
6	156677	21298.73483420851	7003.3972910557
6	157104	21360.648044810846	10637.946168917
6	157170	21369.137342993619	3946.7490210917
6	157224	21375.352435446141	3946.8777722682
6	157301	21386.666596329379	14316.055263972
6	157946	21471.197792198722	6969.9720948498
6	158200	21505.700961615966	15838.942060706
6	158919	21606.189724129515	7051.3485569656
6	158942	21609.663497055865	7052.0862079305
6	159093	21631.01503381332	19295.520766363
6	159147	21639.271569020474	17522.608915157
6	159185	21643.732875946664	14362.529468574
6	160241	21782.351331376226	12794.398819506
6	160262	21785.538098496467	12796.828256441
6	160436	21806.995598337929	10722.894681282
6	160447	21809.881552627254	21587.757442315
6	160450	21810.861089136023	19465.275340491
6	160456	21812.405528645441	4171.532650969
6	160496	21819.501205699463	4136.1641126491
6	160509	21821.474212739003	10715.090132159
6	160593	21832.346753055083	10619.77926112
6	160596	21833.116542626584	10616.359023467
6	160618	21836.11139884325	10593.283074703
6	160717	21849.396170552257	10504.709878454
6	160865	21868.089837954422	10463.090782386
6	160909	21875.72996997344	10466.085442656
6	160935	21878.4570232511	10463.115246172
6	160988	21886.088779926018	10453.36364631
6	161045	21894.067149427855	4107.5142430972
6	161057	21895.397211372336	10420.49256372
6	161340	21933.592289829064	10446.274112395
6	161474	21953.525254735111	4127.119538463
6	161477	21953.953726018912	10424.783686739
6	161485	21955.235780519519	7250.6046221097
6	161536	21962.421146465133	7245.001481756
6	161567	21966.618479241656	4098.3318730322
6	161572	21967.535143141813	10372.227977947
6	161652	21979.274427062218	17849.514657594
6	161678	21982.977169265869	4086.6402697756
6	161692	21984.439909628584	16214.870995163
6	161772	21993.089894904048	12969.804634049
6	161885	22009.783957343632	7237.3786475739
6	162105	22039.877232628116	7206.7233657047
6	162121	22042.634125480369	10381.806460449
6	162228	22057.293672003492	4113.840849504
6	162306	22070.30013986364	4104.8977900992
6	162317	22072.808406331427	10395.805994086
6	162444	22089.413179547286	4086.9931850825
6	162449	22090.402965023687	4086.7322728923
6	162458	22092.074805247125	17871.218083024
6	162471	22094.205339059972	14558.517207338
6	162479	22095.372957406746	10381.284065325
6	162803	22136.808911677441	4074.488091684
6	162966	22158.141436622936	10371.964140929
6	163078	22172.953457995546	4095.7279581242
6	163495	22230.212492589465	10327.087807504
6	164109	22314.467838475295	7300.8996008279
6	164319	22342.762522588206	10252.445833767
6	164497	22368.717935588166	10221.316079943
6	164658	22391.573589046674	10099.602902177
6	164715	22399.006511727909	4206.2208878679
6	164751	22404.039831801879	20978.659697682
6	164769	22406.266768460211	4200.7847015612
6	164774	22406.911536974462	18155.097319606
6	164818	22412.901952362528	4189.5542365679
6	164909	22425.214775789066	9999.6926582685
6	165046	22443.415937541846	4167.1182499321
6	165128	22454.18675014521	18117.072928158
6	165438	22497.534864220211	19386.51329883
6	165572	22515.509664933619	21377.773463682
6	165610	22521.025832502035	7284.089056137
6	165628	22523.715119143393	21904.994214189
6	165742	22537.389488883645	7287.5976055487
6	167581	22782.236216168576	13606.74144139
6	167616	22787.547375159063	4458.2584312569
6	167619	22788.097310244995	19655.166258871
6	167646	22791.574943235288	4442.7618034857
6	170749	23201.257990488458	21687.608275114
6	170780	23205.441801375617	22049.948604627
6	171131	23255.201645561356	7876.990824799
6	171164	23260.348787057355	4815.6723273041
6	171179	23263.073814826088	4814.6277039162
6	171258	23275.290848646501	22548.489423017
6	171498	23304.065741945714	14016.123754364
6	171532	23310.03817929882	21779.706414026
6	171588	23319.082385086225	14019.475502275
6	171721	23336.877997404854	10714.320404686
6	171724	23337.370827400456	18777.552542122
6	171747	23340.990450074807	18713.417491216
6	171920	23361.945799721405	10690.202810166
6	171982	23370.874893971671	7747.2057722805
6	172016	23376.51127499039	10594.258370162
6	172177	23397.365365206215	14015.680173063
6	172209	23400.871689362728	20207.070745563
6	172254	23407.083410843924	17324.486108997
6	172272	23410.249124351652	15688.654330469
6	172998	23504.828760664623	4690.798506395
6	173453	23565.263251088037	15801.600636603
6	173528	23575.887709517581	17454.036992117
6	173540	23578.068966039261	7873.5679083259
6	173865	23618.715078748427	10712.986665422
6	174106	23649.766186351689	17434.824401016
6	174998	23769.607510677144	4869.0029163391
6	175058	23779.051847885015	8012.0733428423
6	175068	23780.389418755217	8012.6927248387
6	175339	23818.077780501801	14259.559652522
6	175347	23819.694660830522	15912.356318473
6	175533	23842.703763395663	4888.0788234627
6	175602	23851.739695425262	14284.371480412
6	175641	23858.063642649607	4898.1077970199
6	175737	23870.736238446667	10889.55698429
6	175797	23880.505245760525	19106.203679729
6	175800	23881.232515600346	8073.4106661671
6	175812	23882.397205597371	14299.516176159
6	176102	23923.869766768137	4849.8717703151
6	176211	23938.341739496844	8100.6183030139
6	176261	23946.055349296446	4787.1913865342
6	176499	23974.699648713482	15953.318674414
6	176509	23976.506680073192	19196.164904173
6	176537	23981.240059211312	4736.2425233166
6	176553	23984.244129110149	10953.746588652
6	176604	23994.133447294843	10930.456939709
6	176645	23998.955813995491	4734.24829151
6	176893	24031.563880917871	10845.309977116
6	176968	24042.709674030425	17782.288109963
6	177003	24048.17235472945	14392.809627821
6	177082	24060.058169576643	10759.751765803
6	177101	24062.507890687767	4708.3528352819
6	177158	24070.638829189004	10754.069128029
6	178658	24274.162437891854	8335.8605760742
6	178686	24277.246568313367	8331.6982759011
6	178713	24280.246198337744	4835.4716927414
6	178726	24282.809548683171	8336.6617591957
6	178785	24291.522646271564	8310.1511611311
6	178815	24295.832213792471	16198.082461561
6	178834	24298.331736012162	16187.260271265
6	179068	24330.197743586155	8161.868014974
6	179340	24366.089722965268	8041.9934204914
6	179588	24400.289940887907	7995.3409240794
6	179685	24414.538095450246	21002.455433808
6	179706	24417.555259816472	4752.4772112347
6	179746	24423.280442921056	21773.363537069
6	179811	24431.561140115309	7983.3678230411
6	179860	24439.081303618691	7988.186657623
6	179877	24441.140163931886	14598.406781654
6	179905	24444.077785262495	14596.464347883
6	180193	24481.760456827686	14620.55551169
6	183544	24935.274381777717	23155.02555539
6	183903	24982.312115721664	8477.5334279586
6	183949	24989.386758729424	21484.549450262
6	183973	24991.72836466914	15095.069397273
6	184009	24997.631888068913	8479.5112549597
6	184064	25006.536115670695	5152.1390274593
6	184201	25023.735902608582	21494.802390518
6	184224	25026.474221197724	20123.244136832
6	184413	25050.782832399639	23063.231103787
6	184519	25065.26055239786	18620.152958139
6	184560	25070.706799133658	8437.4998034035
6	184579	25073.811878167815	8422.1817070637
6	184665	25087.280388885108	16722.432280239
6	186967	25394.906936784256	8672.3035339735
6	187041	25407.237763487855	23381.870094669
6	187138	25421.897359639763	20434.753872681
6	187174	25427.676690940775	20438.559639351
6	187196	25431.650068606931	11860.989963125
6	187221	25435.519259823561	17021.822194248
6	187264	25439.741037108731	15371.176693012
6	187272	25440.740530475583	5307.3479669916
6	187295	25444.331005006219	5301.1900530343
6	187473	25467.767908690343	5243.7911006501
6	187521	25474.705168691263	17054.294268608
6	187564	25479.862584822285	5231.1840493934
6	187578	25481.013956963676	8691.5088039969
6	187633	25488.558965696799	5236.7820798859
6	187852	25518.554054556539	21931.488763049
6	189335	25717.734937402035	12092.684581979
6	189378	25725.239151745556	12098.349948081
6	189587	25754.923549975629	19130.269017112
6	190000	25809.476663363808	5325.8196053443
6	190214	25839.527553947258	12084.520748687
6	190222	25840.971388534538	12080.018862372
6	190272	25847.923539632127	8935.4129163272
6	190300	25851.770145816622	23818.560460651
6	190356	25859.396848794665	5269.2053868528
6	190432	25869.806883853474	5250.0239846476
6	190444	25871.317170314384	15682.495989645
6	190467	25874.970659370147	17327.853115453
6	190540	25886.253245294779	17331.374783032
6	190740	25912.849002324354	12060.796469865
6	190756	25915.360847987125	12061.382462432
6	191031	25951.327102025487	12060.477950866
6	191102	25962.976619979255	12025.857874673
6	191152	25970.144439933477	24693.475888103
6	191236	25982.408342869978	23707.732679612
6	191865	26064.818895837135	23775.522055579
6	191879	26067.331204210438	20988.587267727
6	192031	26088.633204028273	15742.375311522
6	192063	26091.679596450675	15733.057839672
6	192100	26097.033687508835	8981.4159676131
6	192167	26106.962819147281	17372.822983702
6	192245	26119.755442444777	8985.369788941
6	192349	26131.770852646121	5199.0380664978
6	192785	26190.203502117035	12130.436838607
6	192826	26196.193369546376	12123.524638339
6	192951	26212.497654436836	20917.069778053
6	193009	26221.026875365831	5224.1496173646
6	193055	26227.668648552921	5223.8286151107
6	193088	26231.230804627741	9012.4819248959
6	193276	26257.053715452811	5242.859785963
6	193342	26265.805603353798	20934.631782867
6	193417	26276.595117700637	9038.8098953016
6	193549	26295.218552012067	5244.6944336467
6	193599	26301.764362322377	12181.480553076
6	193649	26309.423232280534	20948.146819869
6	193700	26316.225408815849	20943.344036469
6	193820	26332.765664906172	5243.4732311824
6	193852	26337.687196319854	5228.1645476149
6	193980	26353.719174205582	5202.8040853924
6	194062	26364.969378828466	15798.461266102
6	194079	26367.090912969945	12166.250961787
6	194084	26368.066971104708	5177.2132169209
6	194345	26402.64691689431	12164.011195266
6	194351	26404.032780664156	19478.27647532
6	194359	26405.144401751433	20870.096346008
6	194405	26409.979158736926	25324.574180973
6	194498	26423.178696006092	22666.898888486
6	194515	26425.158586727896	5161.4870146834
6	194589	26435.382267808468	9063.6737629517
6	194594	26435.984661341059	9063.7617812956
6	194657	26445.715889596259	5153.8988202307
6	194672	26447.702626194032	5153.9052865206
6	195549	26568.145770093586	9171.3620804486
6	195562	26569.98037756013	9169.1595764545
6	195755	26596.263876150989	22711.905263261
6	196601	26708.792431401754	19705.222272095
6	196695	26720.6301240801	12359.728029209
6	197203	26793.055359659212	19687.268773058
6	197385	26817.130200718722	15901.853596937
6	197429	26823.414869601286	12392.154005969
6	197461	26829.143251912348	5358.0575072206
6	197545	26837.880061660713	12331.500697208
6	198921	27021.234666413821	24177.825388651
6	199133	27047.670217788505	5533.8254978523
6	199141	27049.302275557868	21377.837538465
6	199149	27050.275480787647	24196.931332003
6	199197	27057.318619503458	19886.434343205
6	199275	27068.873051470895	18142.193453322
6	199311	27074.509535921462	19877.814526155
6	199352	27080.069767046677	5452.7906102551
6	199400	27086.989537361734	9526.755775553
6	199628	27115.848762608604	19806.270804124
6	199636	27117.354187172005	12530.921375444
6	199679	27123.52599210749	5441.3409486045
6	199697	27126.913254282769	5427.1163619153
6	199841	27148.308069951232	21443.009900265
6	199895	27155.600177067013	19785.339028708
6	199926	27159.648704539059	5376.1608945514
6	200293	27208.801215972337	5412.7339745164
6	200321	27213.80973366411	16146.671183989
6	200428	27229.68423990389	19783.900588934
6	200453	27232.764559253451	5428.2663235352
6	200525	27242.996321344569	9587.7747704307
6	200598	27253.229365823517	16140.282836957
6	200635	27258.457717307149	16116.621747444
6	200702	27268.546544353529	12614.529138904
6	201027	27312.04965534178	5461.5432631999
6	201769	27409.677126146251	16042.392102652
6	201902	27431.876011599601	5533.9008720256
6	202155	27463.458249240882	9612.2619855218
6	202363	27489.824947713038	27148.272199442
6	202462	27502.189698438723	9604.6145469874
6	202484	27505.55394130154	18483.460281515
6	202504	27508.136681476147	5512.4366906524
6	203202	27601.984183242874	9652.0540754922
6	203243	27608.949781671124	24657.304659988
6	203265	27611.294673058301	21772.928563916
6	203287	27614.133604536629	23463.840877348
6	203301	27617.359291146467	24626.057153646
6	203505	27643.902100465311	9653.8721624682
6	203511	27645.211676577995	5555.3550618153
6	203556	27651.969184881918	5554.4953804033
6	203569	27654.061021988516	23451.313248811
6	203887	27696.87355214893	5573.4029661279
6	203895	27698.16471846602	9659.0879868889
6	204058	27720.576207687752	12824.293870665
6	204100	27726.152938233175	12824.356838144
6	204108	27727.551649080123	5567.1391127857
6	204131	27731.579104449274	5568.3007291115
6	204186	27739.565458926744	15875.362882088
6	204216	27744.614254760368	15875.3169073
6	204222	27745.865592251297	15864.717556177
6	204855	27828.562177414124	15819.736956284
6	205182	27870.992744290552	15828.417561152
6	205206	27873.569181004635	9720.3709997562
6	205681	27935.245598387255	15705.069124639
6	205698	27937.280670758805	12848.108110395
6	205709	27939.658242156639	15684.912711935
6	205754	27946.357269325762	15576.999866459
6	206005	27977.164956984392	12849.675613515
6	206039	27982.260385817431	15564.136506516
6	206085	27987.484594018013	15565.831014721
6	206093	27989.091192371305	20435.949290311
6	206175	28001.689087295299	26555.835181666
6	206340	28023.796833720058	26547.230376634
6	206430	28036.041202023579	9756.7375387175
6	206599	28058.203815193521	15608.083255356
6	206602	28059.172395516606	15607.942558751
6	206654	28066.649002302904	9777.8137681862
6	206674	28070.089178460883	26934.155410329
6	206759	28082.494053601752	9781.2657147583
6	206881	28098.224997507454	23737.551633305
6	207823	28230.717261404126	5664.3782980403
6	207854	28235.767666596502	5621.8122690826
6	207898	28241.60513224993	5607.3041412502
6	207926	28245.126070502308	5601.7071954431
6	209130	28407.41742138998	13124.768859604
6	209138	28408.381307387216	10084.768835332
6	209171	28413.074673294186	5623.4688147175
6	209179	28414.370786093086	15908.933888826
6	210127	28540.85702951816	24148.584846339
6	210256	28559.18341868338	5618.3270485528
6	210690	28615.201895820121	5603.0854045232
6	210847	28637.073986234661	5570.2869434614
6	210902	28645.100940482137	5550.0661509693
6	211863	28778.89619833092	5635.8653911744
6	211873	28780.330432976278	5630.4719203907
6	211981	28796.594260944526	10430.161169978
6	212147	28821.376313901141	21199.48809704
6	213083	28947.475431663412	19674.823845276
6	214371	29121.448927121386	10643.929503857
6	214386	29123.208901941041	10632.924652786
6	214676	29165.906022562284	13652.144531228
6	214689	29168.277294485468	10619.658573223
6	214723	29172.715517915331	5877.0868628318
6	214729	29174.244444506254	10582.641251541
6	214744	29176.180315707495	13641.783631476
6	215376	29261.830641338753	5957.938617556
6	215421	29267.068048288918	13689.257032378
6	215506	29279.858672236989	10639.97024113
6	215723	29309.706595830632	19965.317540532
6	215729	29310.883948941402	16687.969522502
6	215745	29313.620647284402	19964.852214154
6	216655	29433.132250693597	21738.386246173
6	216738	29445.065340559434	6082.7936693092
6	216748	29446.535113234415	13832.100662634
6	216890	29465.565319238435	16710.96657776
6	216988	29478.003849643582	16696.169549242
6	216996	29479.789125021195	29049.671426454
6	217016	29482.428779032754	6100.806257648
6	217113	29494.314538974524	10734.975458054
6	217136	29497.840044088871	10730.583313658
6	217300	29519.152637381412	6059.9114664797
6	217354	29527.025429123992	13870.445051021
6	217417	29536.818928723574	6040.4906731357
6	217463	29544.248368706484	26981.761684214
6	217489	29547.181227711425	6010.1292136361
6	217544	29555.351191928307	16694.213772948
6	217550	29556.52916516622	26989.322495874
6	217820	29592.620183929312	26315.768035064
6	217974	29614.418528038614	23465.943522924
6	217990	29616.944210441109	16722.018827963
6	217997	29617.805481314032	26993.04370935
6	218069	29628.68223548618	5999.5763723707
6	218084	29630.542804035199	5998.9314674514
6	218169	29643.713641209369	26267.262533051
6	218199	29647.144426779849	5994.2991256437
6	218297	29658.941735752701	21827.163476563
6	219830	29867.259974718409	20380.512619662
6	219928	29882.175015580689	20366.400917302
6	220017	29893.87997344922	10967.224445877
6	220087	29904.661331758402	22029.992901074
6	220321	29933.812646437704	10989.087753071
6	220401	29945.593844961083	6120.525947119
6	220484	29957.182157005078	6110.017152515
6	220500	29959.462876947538	25205.506090499
6	220622	29976.274743124597	10955.345972779
6	220747	29991.557904742413	22024.605987792
6	220799	29998.516642941475	6087.2153858715

