version 2
run First_exit_8-15-20191114-11:42:33-8903
attr configname First_exit_8
attr datetime 20191114-11:42:33
attr experiment First_exit_8
attr inifile omnetpp.ini
attr iterationvars ""
attr iterationvarsf ""
attr measurement ""
attr network ResponseTimeNetwork
attr processid 8903
attr repetition 15
attr replication #15
attr resultdir results
attr runnumber 15
attr seedset 15
param **.Source.interArrivalTime exponential(4s)
param **.jobPriority bernoulli(0.4)
param **.PS.serviceTimeU1 "uniform(0.4s, 1.0s)"
param **.PS.serviceTimeU2 "uniform(1s, 1.2s)"
param **.SS1.serviceTime exponential(0.4s)
param **.SS2.serviceTime exponential(0.8s)
param **.PS.exitProbability bernoulli(0.8)

vector 0 ResponseTimeNetwork.QueueU2 queueLength:vector ETV
attr interpolationmode sample-hold
attr title "queue length, vector"
vector 1 ResponseTimeNetwork.SS2 queueLength:vector ETV
attr interpolationmode sample-hold
attr title "queue length, vector"
vector 2 ResponseTimeNetwork.sink lifeTimeU2:vector ETV
attr interpolationmode none
attr title "lifetime of arrived jobs U2, vector"
attr unit s
vector 3 ResponseTimeNetwork.sink totalServiceTimeU2:vector ETV
attr interpolationmode none
attr title "the total time spent  by arrived jobs U2, vector"
attr unit s
vector 4 ResponseTimeNetwork.sink lifeTime:vector ETV
attr interpolationmode none
attr title "lifetime of arrived jobs, vector"
attr unit s
vector 5 ResponseTimeNetwork.sink totalServiceTime:vector ETV
attr interpolationmode none
attr title "the total time spent  by arrived jobs, vector"
attr unit s
vector 6 ResponseTimeNetwork.QueueU1 queueLength:vector ETV
attr interpolationmode sample-hold
attr title "queue length, vector"
vector 7 ResponseTimeNetwork.sink lifeTimeU1:vector ETV
attr interpolationmode none
attr title "lifetime of arrived jobs U1, vector"
attr unit s
vector 8 ResponseTimeNetwork.sink totalServiceTimeU1:vector ETV
attr interpolationmode none
attr title "the total time spent  by arrived jobs U1, vector"
attr unit s
vector 9 ResponseTimeNetwork.SS1 queueLength:vector ETV
attr interpolationmode sample-hold
attr title "queue length, vector"
0	63203	10000.399499660096	6
0	63207	10000.708520375494	7
0	63208	10001.247955209081	6
0	63211	10001.683610647515	5
0	63214	10002.178016872023	4
0	63217	10002.822549601662	3
0	63221	10003.527485304713	4
0	63222	10003.675713861053	3
0	63226	10004.539357242899	4
0	63227	10004.665688070393	3
0	63231	10004.968762928762	4
0	63233	10005.095891608362	5
0	63234	10005.146099658561	4
0	63237	10005.569165220828	3
0	63240	10006.042283506477	2
0	63243	10006.656454373542	1
0	63247	10007.236491631837	2
0	63248	10007.529697537999	1
0	63252	10007.582076810537	2
0	63253	10008.361870132684	1
0	63257	10008.687131126993	2
0	63264	10009.10956338335	3
0	63265	10009.42956246619	2
0	63271	10009.582188529788	3
0	63275	10010.837249526911	2
0	63279	10011.41545169789	3
0	63286	10011.677388663359	4
0	63288	10012.341001755066	5
0	63289	10012.629897313908	4
0	63292	10013.425931222847	3
0	63295	10014.340122971747	2
0	63299	10014.998623334037	3
0	63301	10015.06042635774	4
0	63303	10015.12097739476	5
0	63304	10015.25165851062	4
0	63307	10015.784694811253	3
0	63310	10016.738468721852	2
0	63314	10016.912526812761	3
0	63315	10017.313971497787	2
0	63319	10017.50267076344	3
0	63320	10017.720169035502	2
0	63324	10018.322500132922	3
0	63325	10018.592837151809	2
0	63329	10018.753126194129	3
0	63330	10019.015505411167	2
0	63333	10019.801567399239	1
0	63336	10020.396855874982	0
0	63340	10020.450206779043	1
0	63342	10021.196869406105	2
0	63343	10021.373913673096	1
0	63347	10021.574643799294	2
0	63349	10021.86303492633	3
0	63356	10022.806863296176	4
0	63357	10023.118826405302	3
0	63361	10023.362123845036	4
0	63362	10024.019395626167	3
0	63370	10025.394142613065	2
0	63373	10025.806338259129	1
0	63376	10026.673701804334	0
0	63385	10028.055531346923	1
0	63386	10028.173948754011	0
0	63392	10028.983678646439	1
0	63397	10029.117869110139	2
0	63399	10029.574581793822	3
0	63401	10029.600920122107	4
0	63402	10029.785269019067	3
0	63410	10031.038033031405	2
0	63413	10031.748518553668	1
0	63422	10032.360660848296	2
0	63424	10032.435218724196	3
0	63425	10032.920941557096	2
0	63433	10034.063777399263	1
0	63441	10035.564806521698	0
0	63445	10036.062649028194	1
0	63446	10036.083086112575	0
0	63455	10036.861282020245	1
0	63456	10037.271717925244	0
0	63465	10038.374256510297	1
0	63466	10038.790392287834	0
0	63470	10038.926499173065	1
0	63476	10040.355624613179	0
0	63490	10042.969867750554	1
0	63491	10043.155824379591	0
0	63500	10044.191039647979	1
0	63501	10044.623201600663	0
0	63507	10044.881847199555	1
0	63509	10044.889957261217	2
0	63513	10046.0546763939	1
0	63521	10046.97457517862	0
0	63525	10047.305142737006	1
0	63532	10047.632881822302	2
0	63533	10048.05320022471	1
0	63536	10048.532999364955	0
0	63540	10048.792989389959	1
0	63541	10048.980291367571	0
0	63567	10052.335591001789	1
0	63571	10054.039773032639	0
0	63587	10056.163143973687	1
0	63592	10056.502859781715	2
0	63593	10057.258556105999	1
0	63596	10058.077150753058	0
0	63605	10059.731938933622	1
0	63606	10060.426380197674	0
0	63615	10061.580371903816	1
0	63616	10061.859715567919	0
0	63635	10064.49969630323	1
0	63651	10066.971212732711	0
0	63660	10067.478346885581	1
0	63661	10067.994016360876	0
0	63670	10069.04025559482	1
0	63671	10069.417569317122	0
0	63680	10070.090794251563	1
0	63681	10070.531121208205	0
0	63710	10079.519325304327	1
0	63711	10079.673505693408	0
0	63715	10079.775520956291	1
0	63716	10080.290332219949	0
0	63812	10098.417128103433	1
0	63831	10101.737473125721	0
0	63837	10101.908612447186	1
0	63841	10102.855894059746	0
0	63845	10103.41506624177	1
0	63852	10103.965188824577	2
0	63853	10104.127795285418	1
0	63856	10104.545260517498	0
0	63865	10105.478732485853	1
0	63866	10105.786122860444	0
0	63880	10108.34837436691	1
0	63881	10109.331539565959	0
0	63895	10111.497110670506	1
0	63897	10111.923298428597	2
0	63898	10112.22093029513	1
0	63901	10112.770257999999	0
0	63905	10112.782849697576	1
0	63906	10113.379762901011	0
0	63910	10113.534255189024	1
0	63912	10114.142727157098	2
0	63913	10114.330169218564	1
0	63916	10115.008881037328	0
0	63920	10115.038268981342	1
0	63922	10115.692796570661	2
0	63923	10115.719679376268	1
0	63932	10116.967380059264	2
0	63933	10117.603824541317	1
0	63939	10118.121434948324	2
0	63943	10119.416399002932	1
0	63947	10119.549529906522	2
0	63954	10120.45170428158	3
0	63955	10120.856606243104	2
0	63958	10121.494592313115	1
0	63961	10122.091808058853	0
0	63965	10122.786614552917	1
0	63969	10122.963031452718	2
0	63973	10123.699246383897	1
0	63977	10123.837302023977	2
0	63978	10124.258622002481	1
0	63987	10125.506847875296	2
0	63988	10125.914271387105	1
0	63992	10126.735038845188	2
0	63993	10126.740607305403	1
0	63999	10127.116442332647	2
0	64004	10127.356240657118	3
0	64005	10127.595525335214	2
0	64008	10128.169569672012	1
0	64012	10128.241268294145	2
0	64014	10128.853338334326	3
0	64015	10129.11082228508	2
0	64024	10130.256259160508	3
0	64025	10130.80064607111	2
0	64029	10131.533440691092	3
0	64030	10131.601774152109	2
0	64033	10132.551772647325	1
0	64036	10133.005131860517	0
0	64040	10133.230459573599	1
0	64041	10133.664194845196	0
0	64045	10133.812899939388	1
0	64047	10134.297899677355	2
0	64048	10134.360682214771	1
0	64052	10135.11157916243	2
0	64053	10135.206386071697	1
0	64057	10135.227162732716	2
0	64059	10135.492132282088	3
0	64060	10135.759938212318	2
0	64064	10135.930302966796	3
0	64065	10136.662814243158	2
0	64069	10136.762263333435	3
0	64070	10137.527154897174	2
0	64074	10137.917040611076	3
0	64075	10138.043830815118	2
0	64078	10138.867298905758	1
0	64081	10139.371778205756	0
0	64085	10139.402069541783	1
0	64087	10139.41114037413	2
0	64089	10139.85770264022	3
0	64090	10140.239903964076	2
0	64094	10140.687931459652	3
0	64095	10140.951610349092	2
0	64098	10141.936941306639	1
0	64102	10142.396855419884	2
0	64104	10142.457265712407	3
0	64106	10142.482261695966	4
0	64107	10142.530840659068	3
0	64110	10142.94703830571	2
0	64114	10143.273558892628	3
0	64116	10143.488122041687	4
0	64117	10143.836557642949	3
0	64120	10144.363918628331	2
0	64123	10145.127890331598	1
0	64126	10145.719544236988	0
0	64135	10146.9416021929	1
0	64136	10147.048008241092	0
0	64145	10147.936699093663	1
0	64147	10148.417269052951	2
0	64149	10148.699521307981	3
0	64150	10148.719876630668	2
0	64154	10148.753936598716	3
0	64155	10149.185996869689	2
0	64158	10149.802133172767	1
0	64162	10149.868920198183	2
0	64169	10150.79369247436	3
0	64170	10150.84890782737	2
0	64176	10151.232144792644	3
0	64181	10151.333541144265	4
0	64183	10151.791694932595	5
0	64184	10152.124234195397	4
0	64187	10152.977952459612	3
0	64190	10153.923132040835	2
0	64193	10154.551228460035	1
0	64196	10154.96257426368	0
0	64200	10155.346414821288	1
0	64202	10155.409910646548	2
0	64203	10155.591645823018	1
0	64207	10155.759888887533	2
0	64208	10156.067633904116	1
0	64212	10156.205860112059	2
0	64214	10156.349671788137	3
0	64215	10156.837783436589	2
0	64218	10157.659855408799	1
0	64221	10158.430442582229	0
0	64225	10158.505397565234	1
0	64226	10159.247941416567	0
0	64250	10165.728309781939	1
0	64251	10166.244276946976	0
0	64255	10166.307153844701	1
0	64261	10168.027623069479	0
0	64270	10169.060014843451	1
0	64271	10169.512928828138	0
0	64280	10171.071160885996	1
0	64281	10171.186612031382	0
0	64300	10174.989026841397	1
0	64301	10175.81594630042	0
0	64305	10176.184475397053	1
0	64306	10176.665291544841	0
0	64315	10177.707450115303	1
0	64316	10177.726192295998	0
0	64330	10179.92438414979	1
0	64331	10180.570882996641	0
0	64357	10184.38069471543	1
0	64359	10184.476990113557	2
0	64368	10186.001190126817	1
0	64374	10186.337967251989	2
0	64376	10186.457424485033	3
0	64380	10187.401323426738	2
0	64394	10189.357083257985	3
0	64395	10189.975673139598	2
0	64403	10191.034912438448	1
0	64412	10192.477857204139	2
0	64414	10192.48438843337	3
0	64415	10192.598512927946	2
0	64418	10193.252614355823	1
0	64426	10194.444729782585	0
0	64440	10195.623073317457	1
0	64449	10196.776571185181	2
0	64454	10197.46128184916	3
0	64455	10197.756441971452	2
0	64459	10197.766868972219	3
0	64461	10198.19107733433	4
0	64462	10198.553459214258	3
0	64466	10199.238548149925	4
0	64467	10199.424504792063	3
0	64470	10200.09474476732	2
0	64473	10200.583399099788	1
0	64477	10200.840715808192	2
0	64478	10201.390802642681	1
0	64482	10201.455388221433	2
0	64483	10202.084667744186	1
0	64487	10202.099795710665	2
0	64488	10202.975766613079	1
0	64492	10203.312854369511	2
0	64493	10203.786033389788	1
0	64496	10204.332858500607	0
0	64505	10205.594012506899	1
0	64512	10206.521356341618	2
0	64533	10208.093407521155	3
0	64610	10218.184921864436	2
0	64621	10218.978445526853	3
0	64665	10225.676711812259	2
0	64676	10226.876646216304	3
0	64681	10227.799509618961	4
0	64687	10228.986885867703	3
0	64696	10230.039938538234	4
0	64697	10230.269181205953	3
0	64700	10231.148324451704	2
0	64703	10231.956459148989	1
0	64706	10232.647080462907	0
0	64710	10232.713255639834	1
0	64711	10233.243205020499	0
0	64715	10233.589060995327	1
0	64716	10233.802864183641	0
0	64725	10235.469585169532	1
0	64726	10236.00585229696	0
0	64760	10242.075712902599	1
0	64761	10242.48444882388	0
0	64787	10248.489499839435	1
0	64791	10249.493817007352	0
0	64795	10249.530061375242	1
0	64796	10249.894688161459	0
0	64805	10251.141979088933	1
0	64806	10251.21830363115	0
0	64812	10251.46916952953	1
0	64817	10252.377592444563	2
0	64818	10252.450825899836	1
0	64827	10253.501946912554	2
0	64828	10253.824667319466	1
0	64836	10255.240129677762	0
0	64845	10256.596844540179	1
0	64846	10256.709123025319	0
0	64870	10264.874558874591	1
0	64872	10265.370841222549	2
0	64873	10265.394642177543	1
0	64881	10266.87177911428	0
0	64887	10267.22391177994	1
0	64892	10268.014214552511	2
0	64893	10268.321969613379	1
0	64896	10269.213260477867	0
0	64900	10269.641304616403	1
0	64901	10269.786548620036	0
0	64920	10272.662660726113	1
0	64921	10273.174578908832	0
0	64925	10273.320395317373	1
0	64926	10273.731615180989	0
0	64932	10273.92777254687	1
0	64936	10274.681584346063	0
0	64960	10281.691904480146	1
0	64961	10282.047014690981	0
0	64965	10282.323524534375	1
0	64966	10282.535157410799	0
0	64975	10283.51026658047	1
0	64976	10283.636927648423	0
0	65000	10289.145648925431	1
0	65001	10289.215557549371	0
0	65020	10293.52955113405	1
0	65021	10294.001808422135	0
0	65030	10295.264451990924	1
0	65031	10295.767226445021	0
0	65045	10297.957749717091	1
0	65046	10298.29073674246	0
0	65050	10298.735519138318	1
0	65051	10299.002946914083	0
0	65065	10300.617766376811	1
0	65072	10301.303657948727	2
0	65073	10301.4432840297	1
0	65081	10302.446558463574	0
0	65085	10302.743317479407	1
0	65086	10302.887567352178	0
0	65090	10302.981076664848	1
0	65097	10303.819827481286	2
0	65099	10304.289331615793	3
0	65100	10304.323281103792	2
0	65108	10305.862690752	1
0	65111	10306.565744164354	0
0	65120	10307.932411719028	1
0	65121	10308.567564030133	0
0	65127	10309.360327381167	1
0	65132	10309.515774872888	2
0	65134	10309.800440291214	3
0	65135	10310.001209725394	2
0	65171	10315.11087677287	3
0	65185	10317.418250754989	2
0	65199	10319.006755970474	3
0	65200	10319.660123285746	2
0	65209	10321.312218405754	3
0	65210	10321.416345742254	2
0	65216	10321.769329438288	3
0	65218	10322.146460370193	4
0	65223	10322.204798563718	5
0	65224	10323.041001597096	4
0	65233	10324.136801745918	5
0	65234	10324.345666738602	4
0	65242	10326.186363343105	3
0	65251	10326.701038912005	4
0	65253	10327.342711009954	5
0	65254	10327.660904468412	4
0	65263	10328.808132946214	5
0	65264	10329.017134365348	4
0	65273	10330.384492219785	5
0	65274	10330.733647446895	4
0	65283	10331.933596756456	5
0	65284	10332.180562003611	4
0	65298	10333.433758802329	5
0	65305	10334.702951437209	6
0	65306	10334.815833639775	5
0	65315	10335.806957699622	6
0	65317	10335.876847096971	7
0	65333	10338.468063963486	6
0	65346	10340.747814614189	5
0	65354	10341.262015580396	6
0	65361	10342.620599761236	5
0	65372	10343.742930696468	6
0	65476	10358.890843812566	5
0	65484	10360.565855065783	4
0	65492	10361.006215852142	5
0	65502	10362.462044168246	6
0	65519	10364.642897721382	7
0	65533	10366.410742987603	6
0	65544	10367.943776212335	7
0	65556	10369.072475675559	8
0	65560	10369.76935357368	7
0	65569	10370.770698007448	8
0	65578	10371.801644118596	9
0	65582	10372.767886743791	8
0	65590	10373.788958670342	7
0	65599	10374.300827347159	8
0	65600	10374.970444639403	7
0	65608	10376.510241232862	6
0	65617	10377.568265957726	7
0	65618	10377.863482038214	6
0	65624	10377.982755601439	7
0	65628	10379.545980575916	6
0	65637	10380.501988132498	7
0	65638	10380.977365318875	6
0	65647	10381.862520296187	7
0	65648	10382.595566755117	6
0	65657	10384.078261208164	7
0	65658	10384.19667126248	6
0	65667	10385.200952119185	7
0	65668	10385.619712337016	6
0	65672	10385.862786224559	7
0	65673	10386.240933927198	6
0	65677	10386.63308159415	7
0	65683	10387.95038481667	6
0	65689	10388.366303979116	7
0	65693	10389.316178896095	6
0	65702	10390.451712632033	7
0	65703	10391.255035214688	6
0	65711	10392.820019000539	5
0	65715	10393.017691666792	6
0	65796	10404.362589248331	7
0	65883	10417.928157648352	6
0	65886	10418.613134254796	5
0	65890	10418.789776860757	6
0	65891	10419.280356365071	5
0	65894	10419.825223990252	4
0	65900	10420.4266890749	5
0	65905	10420.646216572541	6
0	65906	10421.367193689339	5
0	65909	10422.304617092388	4
0	65912	10422.763551546077	3
0	65915	10423.311434934337	2
0	65918	10423.910262800848	1
0	65922	10424.047706188453	2
0	65923	10424.464285218485	1
0	65926	10424.889145183612	0
0	65937	10425.849369234647	1
0	65942	10426.282514346476	2
0	65954	10427.559921537691	3
0	65955	10427.84332238054	2
0	65964	10428.385230349607	3
0	65966	10428.440682513684	4
0	65967	10428.916569530081	3
0	65970	10429.880013483113	2
0	65973	10430.790688410217	1
0	65977	10430.918226394991	2
0	65979	10430.944704986071	3
0	65980	10431.432475737019	2
0	65984	10431.863682481151	3
0	65985	10432.019787188622	2
0	65988	10432.480876328007	1
0	65992	10432.656415941393	2
0	65994	10432.970566971021	3
0	65995	10433.241449425465	2
0	65998	10433.722791664305	1
0	66002	10433.828676370938	2
0	66004	10434.11789830824	3
0	66005	10434.555934665867	2
0	66009	10434.652019998819	3
0	66011	10435.250971012286	4
0	66012	10435.541946979103	3
0	66016	10436.169095458503	4
0	66017	10436.326697519797	3
0	66020	10436.737039264341	2
0	66023	10437.270010916892	1
0	66027	10437.732369218659	2
0	66028	10438.142078372327	1
0	66031	10438.626841055046	0
0	66035	10438.899408400755	1
0	66036	10439.151247453925	0
0	66045	10440.651105016034	1
0	66046	10440.729691082336	0
0	66060	10443.868477582817	1
0	66064	10444.331943728914	2
0	66069	10445.058311956712	3
0	66070	10445.15260239095	2
0	66073	10445.738197302823	1
0	66081	10447.037949131248	0
0	66085	10447.238834374347	1
0	66086	10447.777312479453	0
0	66100	10450.478809067901	1
0	66101	10451.054707892027	0
0	66145	10466.157022473962	1
0	66146	10466.738673301646	0
0	66150	10467.05397559533	1
0	66151	10467.267555567389	0
0	66160	10468.765138275311	1
0	66161	10469.111368470669	0
0	66165	10469.352541086092	1
0	66167	10469.450630866429	2
0	66168	10469.822968316108	1
0	66172	10470.322787698506	2
0	66173	10470.355328640139	1
0	66177	10470.376653374857	2
0	66179	10470.502151676098	3
0	66180	10470.778277571436	2
0	66183	10471.328763682425	1
0	66186	10471.812226403767	0
0	66190	10472.242452656799	1
0	66191	10472.404530246958	0
0	66195	10472.561228877126	1
0	66196	10473.07103367204	0
0	66205	10475.170880190747	1
0	66207	10475.784615179534	2
0	66208	10475.863278018354	1
0	66212	10476.302755476498	2
0	66214	10476.397371455879	3
0	66216	10476.409883821933	4
0	66217	10476.801502286267	3
0	66221	10476.876344964285	4
0	66222	10477.229326578506	3
0	66225	10477.644221247543	2
0	66229	10477.78571267373	3
0	66230	10478.212063509921	2
0	66239	10479.20131609617	3
0	66241	10479.383789099945	4
0	66242	10479.989409268086	3
0	66245	10480.550363558901	2
0	66248	10481.282625333357	1
0	66251	10482.257747671518	0
0	66255	10483.06763955491	1
0	66256	10483.164281194003	0
0	66275	10486.084796661758	1
0	66276	10486.501493419511	0
0	66280	10486.633572939881	1
0	66282	10486.851408767715	2
0	66283	10487.257880057245	1
0	66286	10487.724922760752	0
0	66290	10488.161154094408	1
0	66291	10488.284649220797	0
0	66295	10488.365553087807	1
0	66296	10489.178264820798	0
0	66300	10489.234064413745	1
0	66302	10489.389044698793	2
0	66303	10489.706079604792	1
0	66307	10489.84722520875	2
0	66308	10490.39735799007	1
0	66316	10491.978097297427	0
0	66325	10494.146876652253	1
0	66327	10494.244306477598	2
0	66328	10494.531774957041	1
0	66332	10494.965939911852	2
0	66333	10495.061542259558	1
0	66336	10495.631258579139	0
0	66340	10496.284770178764	1
0	66341	10496.351575830328	0
0	66350	10497.567624015311	1
0	66351	10497.689004675997	0
0	66355	10497.829132959647	1
0	66357	10497.93232996006	2
0	66359	10498.364753964004	3
0	66360	10498.513321978179	2
0	66364	10498.883811630292	3
0	66365	10498.963888006377	2
0	66369	10499.104232066939	3
0	66373	10499.774213668879	4
0	66378	10500.336439169441	5
0	66380	10500.484360966934	6
0	66381	10500.771979973976	5
0	66384	10501.179907374455	4
0	66388	10501.472736135837	5
0	66390	10501.750747049402	6
0	66391	10501.951342851388	5
0	66399	10503.039957900204	4
0	66402	10503.623498495899	3
0	66408	10503.765939741097	4
0	66412	10504.15711345357	5
0	66429	10506.214669221934	6
0	66436	10507.082556133519	7
0	66468	10512.105553459421	6
0	66474	10512.868840407377	7
0	66478	10513.696614165929	6
0	66484	10514.003343670585	7
0	66488	10515.118836573417	6
0	66494	10515.463155300823	7
0	66499	10516.00868291937	8
0	66500	10516.344986261892	7
0	66509	10517.088110417497	8
0	66510	10517.645107561674	7
0	66514	10517.837898794293	8
0	66520	10519.121359628577	7
0	66523	10519.653637744438	6
0	66529	10520.100063190027	7
0	66531	10520.49884431841	8
0	66535	10521.553788834342	7
0	66538	10521.97313114139	6
0	66546	10523.32456803098	5
0	66550	10523.785913121411	6
0	66551	10524.047423302332	5
0	66554	10524.51322167236	4
0	66557	10524.96212906567	3
0	66561	10524.990055677579	4
0	66563	10525.092836265904	5
0	66564	10525.912877052087	4
0	66568	10526.021095081662	5
0	66570	10526.082267291535	6
0	66571	10526.321678077519	5
0	66575	10526.564254685026	6
0	66577	10526.567068887239	7
0	66578	10526.751985975025	6
0	66582	10526.908874703042	7
0	66583	10527.657452237043	6
0	66586	10528.419070082014	5
0	66590	10528.441964202358	6
0	66597	10529.861469751876	7
0	66598	10530.096409238405	6
0	66607	10531.080100313194	7
0	66608	10531.177641963442	6
0	66614	10531.480300268316	7
0	66638	10535.143755220555	8
0	66643	10535.735823436418	9
0	66677	10540.670204971749	10
0	66684	10542.271304216651	9
0	66702	10544.345430658551	10
0	66747	10551.203511204464	11
0	66759	10552.23136715789	12
0	66763	10552.811467556273	13
0	66780	10556.054897971958	12
0	66789	10556.997284680784	13
0	66810	10559.852662953775	12
0	66826	10561.527911344885	13
0	66828	10561.753583981124	14
0	66862	10566.112362335477	15
0	66894	10571.237476409537	16
0	66901	10571.981315817244	17
0	66923	10575.989964730797	16
0	66931	10577.231089686315	15
0	66940	10577.945397495638	16
0	66941	10578.439853144522	15
0	66947	10578.654718283959	16
0	66949	10578.951863600199	17
0	66953	10579.904214929688	16
0	66959	10580.270273494048	17
0	66964	10580.961763451118	18
0	66965	10581.005440822701	17
0	66968	10581.421605606695	16
0	66977	10582.639003662881	17
0	66978	10582.718959770344	16
0	66981	10583.398388956526	15
0	66985	10583.490457910803	16
0	66987	10583.76620034299	17
0	66988	10584.187072355199	16
0	66992	10584.634067358352	17
0	66993	10585.083105247739	16
0	66996	10585.81998900016	15
0	67000	10585.966630279314	16
0	67001	10586.49877506694	15
0	67005	10587.130341718242	16
0	67006	10587.464095979968	15
0	67009	10588.016011817746	14
0	67012	10588.758093987258	13
0	67016	10588.828586336228	14
0	67018	10589.265752036409	15
0	67020	10589.437397710048	16
0	67022	10589.572539062151	17
0	67023	10589.656187400261	16
0	67026	10590.327943223428	15
0	67030	10590.462422388867	16
0	67032	10590.873212699011	17
0	67033	10591.138562865967	16
0	67036	10591.611840999538	15
0	67040	10592.180402119309	16
0	67041	10592.505479622392	15
0	67045	10592.577953842521	16
0	67046	10593.182299897207	15
0	67049	10593.755510519065	14
0	67053	10594.07929568536	15
0	67054	10594.587282453749	14
0	67058	10595.445947005763	15
0	67060	10595.492611743584	16
0	67061	10595.575087325826	15
0	67065	10595.849820816425	16
0	67066	10596.374489537479	15
0	67070	10597.321924290069	16
0	67071	10597.352034246914	15
0	67075	10597.982618401096	16
0	67076	10598.351270672578	15
0	67079	10598.842277967317	14
0	67082	10599.331390804836	13
0	67091	10600.100256255906	14
0	67092	10600.637833260458	13
0	67096	10600.725877425498	14
0	67098	10600.974961630063	15
0	67099	10601.278958129969	14
0	67105	10601.829790456507	15
0	67107	10601.963164406449	16
0	67112	10602.555193528994	17
0	67113	10602.940785567455	16
0	67117	10603.32862365171	17
0	67123	10604.61079079564	16
0	67126	10605.456488927866	15
0	67132	10605.996055585084	16
0	67137	10606.189382177606	17
0	67139	10606.272162226604	18
0	67141	10606.830347455145	19
0	67142	10606.850876303383	18
0	67150	10608.149571706487	17
0	67154	10608.222052900256	18
0	67156	10608.729963665072	19
0	67163	10609.176115156302	20
0	67164	10609.728106295589	19
0	67167	10610.556914432758	18
0	67170	10611.22985316598	17
0	67173	10612.026064325489	16
0	67176	10612.622132820023	15
0	67180	10612.866525379055	16
0	67181	10613.047015144156	15
0	67185	10613.290801587027	16
0	67186	10613.895387579167	15
0	67190	10614.099911216113	16
0	67192	10614.635563188567	17
0	67193	10614.647692786475	16
0	67197	10614.907772735101	17
0	67198	10615.34303216654	16
0	67202	10615.674049120531	17
0	67203	10616.11168426349	16
0	67207	10616.447160323832	17
0	67208	10616.731362432653	16
0	67212	10616.833778665025	17
0	67218	10618.086692726744	16
0	67232	10619.795197525238	17
0	67233	10619.966903661929	16
0	67242	10621.068151527424	17
0	67243	10621.416218045114	16
0	67252	10622.585576338958	17
0	67253	10622.709412162651	16
0	67256	10623.126055188424	15
0	67260	10623.306571547524	16
0	67261	10624.019640627124	15
0	67264	10624.600708565156	14
0	67268	10625.21372609054	15
0	67269	10625.464257245132	14
0	67273	10625.552554820545	15
0	67274	10625.928350612841	14
0	67277	10626.394769454648	13
0	67280	10626.943161554582	12
0	67284	10627.04134352151	13
0	67285	10627.674974435096	12
0	67289	10628.126173343908	13
0	67291	10628.306360269092	14
0	67293	10628.317651727813	15
0	67294	10628.375669973524	14
0	67297	10628.953104963101	13
0	67301	10628.9971979925	14
0	67302	10629.906585482642	13
0	67306	10630.762001205418	14
0	67307	10630.778543731797	13
0	67310	10631.521779261104	12
0	67313	10632.05261864452	11
0	67316	10632.542236781161	10
0	67319	10633.390787093848	9
0	67322	10634.152232722141	8
0	67326	10634.85609531439	9
0	67327	10634.972830132762	8
0	67336	10636.360463459053	9
0	67337	10636.406850769552	8
0	67340	10636.986991741736	7
0	67346	10637.621720413734	8
0	67351	10637.959278555923	9
0	67352	10638.343073202432	8
0	67356	10638.791382980497	9
0	67357	10639.299105271506	8
0	67361	10639.482208978742	9
0	67363	10639.634426801748	10
0	67364	10640.27834351514	9
0	67368	10640.278796290416	10
0	67369	10640.850036733407	9
0	67373	10640.974418643966	10
0	67375	10641.062282200682	11
0	67376	10641.728953176313	10
0	67379	10642.2220879171	9
0	67382	10643.117350224541	8
0	67385	10643.850790833352	7
0	67389	10644.379246030381	8
0	67390	10644.754560418237	7
0	67394	10644.888848427865	8
0	67396	10645.079151677846	9
0	67397	10645.4949229449	8
0	67401	10645.499283706044	9
0	67402	10645.903609677634	8
0	67406	10646.377488268369	9
0	67407	10646.554116882567	8
0	67410	10647.081265655343	7
0	67414	10647.545782065038	8
0	67415	10647.853754045159	7
0	67419	10648.220100914016	8
0	67420	10648.746378062103	7
0	67423	10649.6935027922	6
0	67427	10649.723630719935	7
0	67429	10650.421136303935	8
0	67430	10650.685186957145	7
0	67434	10651.080274790883	8
0	67435	10651.259814200546	7
0	67441	10652.062457382007	8
0	67445	10653.078792815046	7
0	67448	10653.758006468411	6
0	67451	10654.401398185217	5
0	67455	10654.543667549119	6
0	67457	10654.57208255528	7
0	67458	10654.982319322736	6
0	67462	10655.508187418216	7
0	67463	10655.978634462641	6
0	67466	10656.824000755321	5
0	67470	10657.265463148571	6
0	67471	10657.370404678859	5
0	67474	10658.141735495158	4
0	67478	10658.498222698117	5
0	67479	10658.890115694838	4
0	67482	10659.561656459744	3
0	67486	10659.608455688534	4
0	67488	10659.718869323044	5
0	67490	10660.016799500874	6
0	67492	10660.03648634927	7
0	67494	10660.175143714112	8
0	67495	10660.455203792776	7
0	67498	10661.240105124467	6
0	67501	10662.123325121586	5
0	67505	10662.592275706917	6
0	67506	10662.849365780732	5
0	67510	10662.984334743126	6
0	67511	10663.424158014354	5
0	67515	10663.494603205817	6
0	67517	10663.602364831722	7
0	67519	10663.996318406485	8
0	67520	10664.182585033771	7
0	67528	10665.438421169804	6
0	67537	10666.463496302631	7
0	67539	10666.504841182666	8
0	67540	10666.848689602311	7
0	67543	10667.627999998112	6
0	67546	10668.364702103375	5
0	67549	10669.321763249156	4
0	67553	10669.515127931769	5
0	67555	10669.570377137517	6
0	67556	10670.311570557482	5
0	67560	10670.604277095243	6
0	67562	10670.710146885808	7
0	67563	10671.203706095829	6
0	67566	10671.63223744784	5
0	67570	10672.415742586421	6
0	67571	10672.502159477067	5
0	67574	10673.456788550918	4
0	67582	10674.671763681662	3
0	67586	10675.382158098572	4
0	67588	10675.579942496417	5
0	67589	10675.596260473826	4
0	67593	10676.149766720094	5
0	67594	10676.212613215526	4
0	67597	10676.726462600795	3
0	67600	10677.676967659262	2
0	67604	10677.733033932737	3
0	67606	10677.757260377284	4
0	67608	10678.304233527969	5
0	67609	10678.563765940717	4
0	67613	10679.144965064873	5
0	67615	10679.390698077926	6
0	67616	10679.503138838517	5
0	67619	10680.164393422235	4
0	67622	10680.757000322635	3
0	67626	10680.874386396182	4
0	67628	10681.354803848108	5
0	67629	10681.640210159491	4
0	67633	10681.682644591963	5
0	67634	10682.599809020893	4
0	67637	10683.372743214523	3
0	67640	10683.970086759837	2
0	67644	10684.520416415511	3
0	67645	10684.957892758302	2
0	67648	10685.404237848935	1
0	67652	10685.429616314903	2
0	67658	10686.677738974006	1
0	67667	10687.942988888673	2
0	67668	10688.445455881064	1
0	67674	10689.348912884589	2
0	67679	10689.730146927596	3
0	67680	10689.835215808307	2
0	67683	10690.582909271815	1
0	67687	10690.76280784858	2
0	67698	10692.71004666681	1
0	67701	10693.175189212845	0
0	67705	10693.267881887244	1
0	67707	10693.737420362656	2
0	67708	10694.077534860601	1
0	67712	10694.353457964539	2
0	67713	10694.663925400605	1
0	67717	10695.130826239348	2
0	67719	10695.134356506193	3
0	67720	10695.447817837955	2
0	67724	10695.677635144201	3
0	67725	10696.248370623817	2
0	67729	10696.609801578254	3
0	67730	10696.713900227421	2
0	67733	10697.321185545991	1
0	67736	10698.156219765865	0
0	67740	10698.711281265033	1
0	67741	10698.892120794621	0
0	67760	10702.946883115206	1
0	67761	10703.292427315662	0
0	67770	10704.553169060038	1
0	67771	10704.962239944497	0
0	67805	10716.982908704336	1
0	67806	10717.225226978869	0
0	67810	10717.301887864746	1
0	67811	10717.977432210329	0
0	67840	10733.070778432955	1
0	67841	10733.711438519883	0
0	67850	10734.4773626521	1
0	67851	10735.166280230853	0
0	67945	10759.434985964845	1
0	67946	10759.904739311	0
0	67955	10761.155927923285	1
0	67956	10761.313399418199	0
0	67960	10761.926300592065	1
0	67966	10762.942527271795	0
0	67972	10763.78294196603	1
0	67977	10764.257873232401	2
0	67978	10764.768691177234	1
0	67987	10765.842803426904	2
0	67988	10766.229811940422	1
0	67996	10767.887419995606	0
0	68005	10768.826396686204	1
0	68006	10769.320508463274	0
0	68012	10769.803503128793	1
0	68017	10770.232773880475	2
0	68018	10771.028556928889	1
0	68027	10772.124416422883	2
0	68028	10772.416665206722	1
0	68031	10772.999923770095	0
0	68040	10775.027298476023	1
0	68042	10775.173126554159	2
0	68043	10775.279446074833	1
0	68046	10776.057816954982	0
0	68060	10779.168615438473	1
0	68061	10779.374851333559	0
0	68065	10779.377172022822	1
0	68066	10780.180013572168	0
0	68075	10781.100263602496	1
0	68076	10781.555873108824	0
0	68085	10783.888076555432	1
0	68086	10784.185665365434	0
0	68095	10786.066262463632	1
0	68096	10786.173101701065	0
0	68110	10789.452859647387	1
0	68112	10789.674650283584	2
0	68113	10789.73087349236	1
0	68116	10790.548698926158	0
0	68125	10791.357006369941	1
0	68126	10791.797523739476	0
0	68135	10792.953211690855	1
0	68137	10792.991646623567	2
0	68138	10793.44134009587	1
0	68144	10794.135053664034	2
0	68148	10795.015844869608	1
0	68151	10795.554533241497	0
0	68155	10795.579344682799	1
0	68161	10796.996549147734	0
0	68165	10797.119783812552	1
0	68166	10797.680514850694	0
0	68200	10802.026033440723	1
0	68214	10803.817425517609	2
0	68218	10804.683515007375	1
0	68222	10804.974440125069	2
0	68233	10805.581013329447	3
0	68260	10810.200835580331	2
0	68271	10810.751909187254	3
0	68275	10811.721145556727	2
0	68363	10824.12683855421	1
0	68376	10826.16873401329	0
0	68400	10829.864785603515	1
0	68401	10830.439440037564	0
0	68405	10830.510695257853	1
0	68406	10831.124043100581	0
0	68415	10831.804222356365	1
0	68416	10832.430645303444	0
0	68420	10832.761279441022	1
0	68421	10832.928705894264	0
0	68427	10833.271339484406	1
0	68432	10834.024562302163	2
0	68433	10834.278330275385	1
0	68441	10835.60991183614	0
0	68460	10838.626386387642	1
0	68461	10838.966842924981	0
0	68475	10845.552140111219	1
0	68476	10845.8462301712	0
0	68480	10846.124577440013	1
0	68481	10846.496922449812	0
0	68495	10849.865718272615	1
0	68496	10850.346189870822	0
0	68510	10852.167935255437	1
0	68511	10852.84929972262	0
0	68515	10853.222398702096	1
0	68516	10853.696554173938	0
0	68520	10853.698424342427	1
0	68521	10854.180745022967	0
0	68535	10857.940420752437	1
0	68536	10858.294404282059	0
0	68540	10858.299288191499	1
0	68547	10859.196169103476	2
0	68548	10859.695869523111	1
0	68551	10860.170630059402	0
0	68607	10883.090013677994	1
0	68621	10885.438626981777	0
0	68632	10886.480716101724	1
0	68644	10887.396628842977	2
0	68678	10893.739528909204	1
0	68686	10895.395718523412	0
0	68695	10896.55062266207	1
0	68696	10897.057860842318	0
0	68702	10897.495971561131	1
0	68707	10898.360948419944	2
0	68708	10898.776370656927	1
0	68716	10900.255140622257	0
0	68720	10900.460793554044	1
0	68726	10901.344261061138	0
0	68810	10925.00312607838	1
0	68811	10925.450437817885	0
0	68825	10928.428983064702	1
0	68826	10928.669435707657	0
0	68835	10929.613837564647	1
0	68836	10929.898523254718	0
0	68895	10942.809919213024	1
0	68896	10943.368714501392	0
0	68905	10944.24714998654	1
0	68906	10944.969676504147	0
0	68915	10945.456794522318	1
0	68916	10946.182100511019	0
0	68942	10951.365910529477	1
0	68956	10953.524178616912	0
0	68972	10954.975790182421	1
0	68976	10956.472421807865	0
0	68990	10957.805196395452	1
0	68991	10958.555850430321	0
0	69002	10959.208032541638	1
0	69006	10960.630049029946	0
0	69015	10961.835032248936	1
0	69016	10962.23729808533	0
0	69025	10964.38770737774	1
0	69026	10964.547747240716	0
0	69030	10964.710600026607	1
0	69031	10965.045090705377	0
0	69035	10965.103919827391	1
0	69037	10965.405600551487	2
0	69038	10965.751477377943	1
0	69041	10966.374973994621	0
0	69045	10966.433987186343	1
0	69046	10967.279585661122	0
0	69050	10967.342349400006	1
0	69054	10967.75455603053	2
0	69058	10968.792773377418	1
0	69061	10969.51026881187	0
0	69070	10970.768286151178	1
0	69071	10970.884366190123	0
0	69075	10971.132487912259	1
0	69076	10971.444095607304	0
0	69080	10971.873981269967	1
0	69082	10972.291173269619	2
0	69083	10972.412686949938	1
0	69086	10972.888767822056	0
0	69095	10974.164024747294	1
0	69096	10974.63605874291	0
0	69100	10974.692183033509	1
0	69101	10975.431030763903	0
0	69145	10988.469685872563	1
0	69146	10989.16214261419	0
0	69160	10991.447747148453	1
0	69161	10992.030528381946	0
0	69255	11053.369310469147	1
0	69256	11053.780501194304	0
0	69264	11054.422165830834	1
0	69269	11054.886678870027	2
0	69278	11056.986618344445	1
0	69284	11057.369744343749	2
0	69289	11057.787834135968	3
0	69290	11058.354900624516	2
0	69293	11059.269680929982	1
0	69301	11060.978106962058	0
0	69310	11061.500304213096	1
0	69312	11062.115682789946	2
0	69313	11062.146537915763	1
0	69317	11062.411247561929	2
0	69319	11062.544358962309	3
0	69320	11062.751098297868	2
0	69324	11063.095636698779	3
0	69325	11063.456669806182	2
0	69329	11064.154780652947	3
0	69330	11064.453106592228	2
0	69336	11064.747701174277	3
0	69341	11065.025681912975	4
0	69342	11065.408139461283	3
0	69350	11066.462958469199	2
0	69356	11067.028237873587	3
0	69361	11067.354972449728	4
0	69362	11067.615636945846	3
0	69365	11068.205415338235	2
0	69368	11068.721091811596	1
0	69372	11068.862062189761	2
0	69374	11069.374028158199	3
0	69375	11069.59696449866	2
0	69384	11071.280162456966	3
0	69385	11071.358002410508	2
0	69391	11071.577061809436	3
0	69396	11072.536280043513	4
0	69397	11072.788661877164	3
0	69406	11074.055407927907	4
0	69407	11074.4086586827	3
0	69420	11076.620075248792	2
0	69429	11077.627917393736	3
0	69430	11078.10082661808	2
0	69436	11078.632858640335	3
0	69441	11078.940283384215	4
0	69442	11079.435754000168	3
0	69445	11080.413879294978	2
0	69449	11080.974253631309	3
0	69450	11081.357726424193	2
0	69454	11081.674343162737	3
0	69455	11082.307556905137	2
0	69458	11083.03311803686	1
0	69466	11084.211617784161	0
0	69470	11084.293032587995	1
0	69474	11084.843790588767	2
0	69479	11085.241884857529	3
0	69480	11085.662376572384	2
0	69484	11086.048500803919	3
0	69491	11086.445404338605	4
0	69492	11086.915175003471	3
0	69495	11087.590887405683	2
0	69503	11088.84135381892	1
0	69509	11089.064858195235	2
0	69513	11090.51047827602	1
0	69521	11091.890908574924	0
0	69525	11092.098646906705	1
0	69537	11093.606879745803	2
0	69541	11094.270513692357	3
0	69546	11094.98591570643	4
0	69547	11095.088125365559	3
0	69566	11097.624221411384	4
0	69582	11100.573681543727	3
0	69588	11101.16120489093	4
0	69592	11102.067932511639	3
0	69600	11103.421109003906	2
0	69603	11104.060998068943	1
0	69607	11104.303254249867	2
0	69608	11104.907260397828	1
0	69612	11105.016995332168	2
0	69614	11105.428472147659	3
0	69616	11105.452032954537	4
0	69617	11105.775582295057	3
0	69621	11105.93969334613	4
0	69622	11106.236914492312	3
0	69625	11107.08572973726	2
0	69628	11107.99334220193	1
0	69632	11108.815375320485	2
0	69634	11108.943361207379	3
0	69635	11108.989715698181	2
0	69639	11109.334218975669	3
0	69640	11109.676089277311	2
0	69643	11110.267493314535	1
0	69647	11110.379524922423	2
0	69649	11110.409848228902	3
0	69650	11110.92768914486	2
0	69653	11111.695503803489	1
0	69656	11112.543276501314	0
0	69660	11112.905609743064	1
0	69661	11113.456828730001	0
0	69665	11113.557391877119	1
0	69666	11114.226772947895	0
0	69670	11114.422994253118	1
0	69672	11114.42615554048	2
0	69673	11114.908957431192	1
0	69676	11115.634689551644	0
0	69687	11118.53147852998	1
0	69691	11119.365058959417	0
0	69700	11120.43353783477	1
0	69701	11120.6711537777	0
0	69715	11123.565597333125	1
0	69716	11123.725921212589	0
0	69725	11124.921290676727	1
0	69726	11125.08411190508	0
0	69805	11160.297092337578	1
0	69806	11160.829229817848	0
0	69810	11160.929824556466	1
0	69816	11162.451266274444	0
0	69825	11163.160037767112	1
0	69826	11164.056544542388	0
0	69830	11164.135102032751	1
0	69836	11165.636623016028	0
0	69850	11167.381548421975	1
0	69851	11167.753893077449	0
0	69865	11169.066925447666	1
0	69876	11170.795094397973	0
0	69910	11177.267325435422	1
0	69911	11177.37120226069	0
0	69920	11178.370834197116	1
0	69921	11178.83281653972	0
0	69937	11181.01300915607	1
0	69962	11185.003459302837	2
0	69963	11185.108316275912	1
0	69972	11186.140046093491	2
0	69973	11186.742803783544	1
0	69982	11187.449892784593	2
0	69983	11187.831427138826	1
0	69996	11189.412769521835	0
0	70014	11191.502218248995	1
0	70054	11196.927437274642	2
0	70063	11199.031722502146	1
0	70072	11200.514058842029	2
0	70074	11200.805702793264	3
0	70075	11200.892075146238	2
0	70078	11201.558815874175	1
0	70082	11202.11549816072	2
0	70083	11202.546082022336	1
0	70087	11202.640090266685	2
0	70088	11202.952604301802	1
0	70092	11203.924438444203	2
0	70093	11203.935984202211	1
0	70096	11204.425288902332	0
0	70100	11204.682191089057	1
0	70102	11204.897170621608	2
0	70103	11205.417705251665	1
0	70106	11206.416348868345	0
0	70110	11206.581953442542	1
0	70111	11206.971075058092	0
0	70125	11209.976872986748	1
0	70126	11210.713801329198	0
0	70130	11211.44015178095	1
0	70131	11211.458630098623	0
0	70135	11211.496926467144	1
0	70137	11212.211904740613	2
0	70138	11212.221507150761	1
0	70142	11212.264194777009	2
0	70143	11212.780643417814	1
0	70147	11213.443055822766	2
0	70148	11213.735505186568	1
0	70152	11214.04442569921	2
0	70153	11214.280489385861	1
0	70156	11214.708957208774	0
0	70160	11215.326796588313	1
0	70162	11215.41348452484	2
0	70163	11215.527312947425	1
0	70167	11215.91028023992	2
0	70168	11216.453781096299	1
0	70172	11216.605446927174	2
0	70173	11216.883451446692	1
0	70176	11217.732416531291	0
0	70190	11222.337761666019	1
0	70191	11222.560844464275	0
0	70210	11228.046753574345	1
0	70211	11228.46159423537	0
0	70215	11228.543857438028	1
0	70216	11229.096032421369	0
0	70220	11229.415301787976	1
0	70221	11229.936229008188	0
0	70225	11230.110006131178	1
0	70226	11230.669676488483	0
0	70235	11232.840805745893	1
0	70237	11232.907163732993	2
0	70239	11233.236935360346	3
0	70240	11233.329359283369	2
0	70244	11233.750434794844	3
0	70245	11233.98140512521	2
0	70248	11234.778595139297	1
0	70251	11235.596420813376	0
0	70255	11235.72635643943	1
0	70257	11235.944088567632	2
0	70259	11236.124834467836	3
0	70260	11236.32697412225	2
0	70264	11236.886824641	3
0	70266	11237.033369360903	4
0	70267	11237.035503447871	3
0	70276	11237.867591600694	4
0	70277	11238.5124305262	3
0	70286	11239.202572047908	4
0	70287	11239.888375395886	3
0	70290	11240.405760013941	2
0	70294	11240.42418615614	3
0	70301	11241.381078203834	4
0	70302	11242.12367052876	3
0	70305	11243.078275839915	2
0	70314	11244.534288368761	3
0	70315	11244.703691322893	2
0	70321	11244.993367614385	3
0	70325	11246.498821717711	2
0	70328	11246.956704321341	1
0	70334	11247.663661565944	2
0	70338	11248.576198836859	1
0	70342	11248.614706469962	2
0	70346	11248.89337243297	3
0	70351	11249.554784317039	4
0	70352	11249.829511445598	3
0	70356	11249.845106255793	4
0	70357	11250.602584600286	3
0	70361	11250.852778899415	4
0	70362	11251.378284995607	3
0	70366	11251.930719490113	4
0	70368	11252.054980086439	5
0	70369	11252.296202015714	4
0	70372	11253.265210464201	3
0	70376	11253.44256501703	4
0	70377	11253.905016605114	3
0	70381	11253.90540815601	4
0	70383	11254.024518236729	5
0	70385	11254.158626907281	6
0	70386	11254.671411486552	5
0	70389	11255.13424239757	4
0	70393	11255.568823473858	5
0	70395	11255.947136626973	6
0	70396	11256.085367650934	5
0	70399	11256.967480179318	4
0	70408	11258.184347128421	5
0	70409	11258.329998242739	4
0	70415	11258.720595729605	5
0	70419	11260.027690858743	4
0	70422	11260.551964850235	3
0	70431	11261.311717825008	4
0	70433	11261.648418116005	5
0	70434	11261.749393744371	4
0	70442	11262.926615920733	3
0	70451	11263.560229428642	4
0	70453	11263.942543012322	5
0	70454	11264.364244131162	4
0	70462	11265.863579042279	3
0	70473	11266.854374259356	4
0	70475	11267.250083122464	5
0	70479	11268.35167392476	4
0	70488	11269.448956413046	5
0	70489	11269.976185673313	4
0	70497	11271.646676364286	3
0	70503	11271.711614503111	4
0	70505	11271.800293412987	5
0	70509	11273.186673052074	4
0	70513	11273.652871783609	5
0	70519	11274.697146026674	4
0	70525	11275.04274287111	5
0	70529	11275.70220902681	4
0	70535	11276.050321688307	5
0	70540	11276.546657697144	6
0	70541	11277.124657850458	5
0	70549	11278.295452188493	4
0	70557	11279.938404522303	3
0	70561	11280.373481239634	4
0	70562	11280.513856069443	3
0	70568	11280.959503839977	4
0	70572	11281.635148692948	3
0	70575	11282.238732894582	2
0	70581	11282.437540318858	3
0	70586	11282.775269435122	4
0	70588	11283.016252492418	5
0	70590	11283.401075874793	6
0	70591	11283.556310753969	5
0	70595	11283.706288147684	6
0	70596	11284.215354159919	5
0	70600	11284.275439427029	6
0	70601	11284.636060471393	5
0	70605	11284.858000468316	6
0	70612	11285.807403019982	7
0	70613	11286.355704996342	6
0	70621	11287.72962876817	5
0	70627	11288.52520495078	6
0	70631	11289.287940792533	5
0	70639	11290.574205674816	4
0	70643	11290.591118881497	5
0	70645	11290.861965287515	6
0	70646	11291.201236626299	5
0	70650	11291.263457207021	6
0	70651	11291.607392309679	5
0	70654	11292.060053217298	4
0	70658	11292.806030872108	5
0	70659	11292.897162705035	4
0	70667	11293.972202093088	3
0	70670	11294.922171453786	2
0	70674	11295.768461660287	3
0	70675	11295.890216434355	2
0	70678	11296.303554972335	1
0	70682	11296.864718793081	2
0	70683	11296.966565933711	1
0	70687	11297.379334637313	2
0	70688	11297.690097785722	1
0	70692	11297.983721477387	2
0	70693	11298.109670098479	1
0	70697	11298.184774156625	2
0	70699	11298.300776329131	3
0	70701	11298.323013730694	4
0	70702	11298.604671008959	3
0	70706	11298.671347033223	4
0	70708	11298.781699276286	5
0	70709	11299.352915574917	4
0	70713	11299.612945427921	5
0	70714	11300.009341564383	4
0	70718	11300.57136745643	5
0	70719	11300.857777653103	4
0	70723	11300.89165962387	5
0	70725	11301.341201056109	6
0	70731	11302.388856512801	5
0	70735	11302.882049295042	6
0	70736	11303.165702334027	5
0	70740	11303.171062430734	6
0	70746	11304.527806004536	5
0	70749	11305.310485165453	4
0	70758	11306.697935270789	5
0	70759	11306.897502303849	4
0	70763	11307.737508148346	5
0	70770	11307.831980554968	6
0	70781	11309.809968679425	5
0	70784	11310.269627598607	4
0	70803	11312.705381335033	5
0	70804	11313.265236653786	4
0	70812	11314.329228872971	3
0	70821	11314.78736668043	4
0	70823	11314.865666744402	5
0	70825	11315.318194413179	6
0	70826	11315.714214093916	5
0	70844	11317.433542388842	6
0	70867	11320.873517097571	7
0	70878	11322.626201545473	6
0	70881	11323.188241669375	5
0	70887	11323.319491936773	6
0	70891	11323.630000313669	7
0	70896	11324.318380326779	8
0	70901	11324.832661534066	9
0	70907	11325.696536130856	8
0	70910	11326.136737381599	7
0	70914	11326.49095048512	8
0	70915	11326.987885622566	7
0	70919	11327.634998246465	8
0	70920	11327.772999916484	7
0	70923	11328.607432356083	6
0	70927	11329.085435726495	7
0	70928	11329.574878024568	6
0	70931	11330.39938140053	5
0	70935	11330.549755366747	6
0	70937	11330.766037095342	7
0	70938	11330.920110734624	6
0	70942	11331.183008175325	7
0	70943	11331.623425618491	6
0	70946	11332.178112205841	5
0	70949	11333.036687613629	4
0	70953	11333.713720044489	5
0	70954	11333.865160746664	4
0	70957	11334.30159964536	3
0	70961	11334.613897533563	4
0	70962	11335.15875558972	3
0	70966	11335.224739131416	4
0	70970	11335.642493110094	5
0	70975	11336.748959645514	6
0	70976	11337.001828028891	5
0	70980	11337.143834802728	6
0	70981	11337.674334114115	5
0	70987	11337.844440441015	6
0	70992	11339.305632116647	7
0	70993	11339.569024702279	6
0	71014	11342.202739053672	7
0	71038	11345.337659938471	6
0	71049	11346.889123632174	7
0	71083	11351.372674132814	6
0	71096	11353.016814937745	5
0	71105	11354.337110457379	6
0	71106	11354.779196211625	5
0	71109	11355.693886151234	4
0	71112	11356.47283894557	3
0	71115	11357.128341620904	2
0	71118	11357.687195757147	1
0	71121	11358.667052123671	0
0	71125	11358.952005024886	1
0	71127	11359.165758417617	2
0	71128	11359.478668203646	1
0	71131	11359.994514405237	0
0	71140	11360.668419434591	1
0	71141	11361.125483266463	0
0	71145	11361.80577195658	1
0	71146	11362.118072777533	0
0	71150	11362.489467301532	1
0	71151	11362.56108953791	0
0	71155	11362.624692706187	1
0	71156	11363.422623368318	0
0	71160	11363.803573007323	1
0	71162	11364.289409099683	2
0	71163	11364.378388960066	1
0	71166	11365.198547532654	0
0	71175	11366.061048015418	1
0	71176	11366.475499886262	0
0	71180	11366.684472776841	1
0	71182	11366.906304539653	2
0	71183	11367.064097513246	1
0	71186	11367.552397572842	0
0	71205	11371.805889148405	1
0	71207	11371.93921192341	2
0	71208	11372.205444702596	1
0	71211	11372.758825418909	0
0	71220	11374.246523465352	1
0	71221	11374.490198656574	0
0	71245	11382.530489799029	1
0	71246	11383.178143374348	0
0	71255	11383.994749924184	1
0	71257	11384.133391625135	2
0	71258	11384.491247486375	1
0	71261	11384.951351482939	0
0	71270	11385.823119718784	1
0	71271	11386.628806696837	0
0	71280	11388.07016708082	1
0	71281	11388.091752728266	0
0	71290	11389.456380585225	1
0	71291	11389.47248167951	0
0	71300	11391.36835092686	1
0	71301	11391.735040121425	0
0	71310	11392.844623144354	1
0	71311	11393.296605578989	0
0	71320	11394.307694643587	1
0	71329	11395.056379318895	2
0	71353	11399.526748905906	1
0	71362	11400.70204261653	2
0	71363	11401.000633917485	1
0	71366	11401.510437274134	0
0	71375	11402.317177939015	1
0	71387	11403.705385804827	2
0	71388	11404.113455741541	1
0	71397	11404.794205334002	2
0	71398	11405.582843692894	1
0	71404	11405.86804375894	2
0	71411	11406.905554605738	3
0	71416	11407.468577697608	4
0	71422	11409.006115337383	3
0	71425	11409.675483959462	2
0	71429	11409.84475657151	3
0	71430	11410.274843834867	2
0	71433	11410.8508079013	1
0	71441	11411.472262574739	2
0	71446	11411.836954869649	3
0	71448	11412.227158767165	4
0	71453	11412.629938161302	5
0	71464	11413.892840076437	4
0	71475	11415.102160845792	5
0	71479	11416.017971999956	4
0	71487	11417.840887714097	3
0	71491	11417.88459363859	4
0	71498	11418.867676871945	5
0	71499	11419.220279758669	4
0	71507	11420.770384358954	3
0	71516	11421.264094255447	4
0	71517	11421.749354249346	3
0	71526	11422.656032609956	4
0	71527	11423.346043011979	3
0	71536	11423.985828381775	4
0	71537	11424.235254519027	3
0	71541	11424.685632606815	4
0	71542	11424.8542590215	3
0	71545	11425.360184872163	2
0	71549	11425.447793565272	3
0	71551	11425.586265237186	4
0	71552	11425.974947909791	3
0	71556	11426.172350922737	4
0	71557	11426.857452783188	3
0	71561	11426.865890421529	4
0	71562	11427.331580629259	3
0	71566	11427.807541749102	4
0	71567	11427.976469300886	3
0	71570	11428.475284102199	2
0	71574	11428.888349482936	3
0	71575	11429.196411964869	2
0	71581	11429.282334381601	3
0	71586	11430.414890513827	4
0	71587	11430.864541440051	3
0	71596	11431.755423323988	4
0	71597	11432.016377755174	3
0	71605	11433.038320399554	2
0	71608	11433.835022308457	1
0	71614	11434.613279050915	2
0	71619	11434.786602593014	3
0	71623	11435.518620130905	4
0	71637	11437.537649658009	3
0	71641	11437.805451053408	4
0	71648	11438.719012159435	5
0	71654	11439.83046243639	4
0	71663	11440.925745149779	5
0	71664	11441.558039328375	4
0	71667	11442.153261526453	3
0	71670	11442.783361544751	2
0	71674	11443.071344862073	3
0	71676	11443.207919595786	4
0	71678	11443.317914675626	5
0	71679	11443.619155805709	4
0	71682	11444.271741841372	3
0	71686	11444.541466498583	4
0	71687	11444.707714944856	3
0	71691	11444.709155674377	4
0	71692	11445.153153550822	3
0	71696	11445.556037079536	4
0	71697	11446.011492210498	3
0	71701	11446.339592817138	4
0	71702	11446.424248479597	3
0	71705	11446.907404822821	2
0	71708	11447.849251750263	1
0	71712	11448.061242652338	2
0	71713	11448.469557823718	1
0	71716	11449.271069587453	0
0	71720	11449.409244064002	1
0	71721	11450.227657179733	0
0	71727	11451.170035191711	1
0	71731	11451.758868783911	0
0	71735	11451.88301876319	1
0	71742	11452.599833384193	2
0	71743	11452.711248706992	1
0	71752	11453.600025805452	2
0	71753	11454.192257171882	1
0	71764	11455.028097179974	2
0	71783	11458.799275148625	1
0	71786	11459.622803005029	0
0	71805	11463.427671092532	1
0	71806	11463.457449609844	0
0	71830	11468.116386461736	1
0	71831	11468.881979361716	0
0	71835	11469.094863430965	1
0	71837	11469.76017810376	2
0	71838	11469.815469697518	1
0	71841	11470.783162860414	0
0	71845	11471.075915609045	1
0	71847	11471.205035066543	2
0	71848	11471.506775199929	1
0	71852	11471.749476709372	2
0	71854	11472.259109412206	3
0	71855	11472.259891359443	2
0	71859	11472.346513936771	3
0	71860	11473.044201485748	2
0	71864	11473.184318958402	3
0	71866	11473.648360260969	4
0	71867	11473.663853895646	3
0	71871	11474.020735479204	4
0	71872	11474.089337953674	3
0	71876	11474.264824703121	4
0	71877	11474.868639233318	3
0	71881	11475.238741958007	4
0	71883	11475.257707085605	5
0	71884	11475.681993415608	4
0	71888	11476.455010988977	5
0	71889	11476.482133787946	4
0	71893	11476.564160951134	5
0	71894	11476.928660796612	4
0	71898	11477.006866187707	5
0	71899	11477.522214344825	4
0	71903	11478.237569808887	5
0	71904	11478.33755186394	4
0	71908	11478.40817825667	5
0	71910	11478.500170508665	6
0	71911	11478.902334517084	5
0	71914	11479.511891792977	4
0	71917	11480.104161450716	3
0	71921	11480.417186606242	4
0	71922	11480.749982782297	3
0	71926	11480.99886645095	4
0	71928	11481.073238616445	5
0	71930	11481.208230295999	6
0	71931	11481.67699867178	5
0	71935	11481.885672374012	6
0	71937	11482.494746142329	7
0	71938	11482.565186554177	6
0	71941	11483.498587396818	5
0	71945	11483.986503716292	6
0	71947	11484.09024320119	7
0	71948	11484.380057399378	6
0	71952	11484.714143633505	7
0	71953	11485.20809025856	6
0	71956	11485.656049593103	5
0	71959	11486.3264949194	4
0	71963	11486.347364996016	5
0	71965	11487.268775533545	6
0	71966	11487.283637118045	5
0	71970	11487.301097562346	6
0	71972	11487.441979042522	7
0	71974	11487.753720131512	8
0	71975	11488.250171771444	7
0	71979	11488.858073231143	8
0	71980	11489.118408987842	7
0	71984	11489.681929794473	8
0	71985	11489.873248982135	7
0	71993	11491.244780310415	6
0	71999	11491.507615135138	7
0	72003	11492.422502498453	6
0	72007	11492.620343518715	7
0	72013	11494.040272738723	6
0	72021	11495.370666178813	5
0	72027	11495.789087899405	6
0	72032	11496.158669572661	7
0	72033	11496.380485367946	6
0	72041	11497.239444692557	5
0	72047	11497.614344578986	6
0	72052	11497.799248801408	7
0	72053	11498.639852889984	6
0	72056	11499.359094521434	5
0	72059	11500.25015319044	4
0	72063	11500.543507167331	5
0	72064	11501.009133679916	4
0	72068	11501.943897906296	5
0	72069	11501.974050118758	4
0	72073	11502.016497534907	5
0	72074	11502.552526376241	4
0	72078	11503.010387616463	5
0	72079	11503.440507071263	4
0	72083	11503.986654960083	5
0	72084	11504.119965187863	4
0	72087	11504.852373245109	3
0	72091	11504.88575222229	4
0	72092	11505.558584571334	3
0	72095	11506.128316366004	2
0	72099	11506.749711117747	3
0	72100	11506.755745860219	2
0	72103	11507.632705927111	1
0	72109	11508.158847331081	2
0	72113	11508.763659278799	1
0	72117	11508.81745431921	2
0	72119	11508.917322036166	3
0	72123	11509.305473536055	4
0	72130	11510.01774826884	5
0	72135	11510.985659636709	6
0	72136	11511.11121773746	5
0	72144	11512.157799956418	4
0	72153	11512.971508156537	5
0	72154	11513.023744141945	4
0	72157	11513.496512706654	3
0	72165	11513.777140854078	4
0	72170	11514.354580205546	5
0	72177	11515.302986887119	6
0	72181	11516.331445579633	5
0	72189	11518.243210902933	4
0	72197	11519.42978097697	3
0	72206	11520.240808609269	4
0	72207	11521.128566337221	3
0	72216	11522.254219682891	4
0	72217	11522.719604437317	3
0	72228	11523.789720142759	4
0	72242	11525.672084020201	3
0	72253	11526.659843996699	4
0	72258	11527.317614670581	5
0	72259	11527.552045382263	4
0	72262	11527.968213778019	3
0	72266	11528.058289980158	4
0	72267	11528.429407535709	3
0	72271	11528.910794971758	4
0	72272	11529.226668557368	3
0	72278	11529.46267087526	4
0	72282	11530.915605463024	3
0	72286	11530.95883196462	4
0	72293	11531.767661992555	5
0	72294	11531.859803356679	4
0	72297	11532.770321529621	3
0	72300	11533.694110757421	2
0	72304	11533.735807653452	3
0	72305	11534.174349284574	2
0	72308	11534.956006501784	1
0	72312	11535.117970116876	2
0	72313	11535.434967034013	1
0	72316	11535.958764790353	0
0	72325	11538.008210568151	1
0	72326	11538.557545919567	0
0	72335	11540.180968107081	1
0	72336	11540.572075720367	0
0	72365	11548.632987593519	1
0	72366	11548.721368359947	0
0	72375	11549.861013142118	1
0	72376	11549.891640193887	0
0	72380	11550.349961918675	1
0	72381	11550.399502039269	0
0	72385	11550.747192677637	1
0	72386	11551.218790520575	0
0	72395	11553.183380573599	1
0	72396	11553.397735215409	0
0	72405	11554.622447752632	1
0	72406	11555.18158581882	0
0	72415	11555.669953418057	1
0	72424	11556.377265099648	2
0	72428	11557.83191680175	1
0	72431	11558.787514492383	0
0	72435	11558.796399575076	1
0	72436	11559.204677903585	0
0	72440	11559.766396855106	1
0	72441	11559.913854020301	0
0	72445	11560.439837835417	1
0	72446	11560.752684542982	0
0	72455	11561.872153632757	1
0	72457	11562.248837365086	2
0	72458	11562.283538873694	1
0	72461	11562.806783932927	0
0	72470	11564.591642730728	1
0	72471	11564.753282348647	0
0	72475	11565.070285079874	1
0	72481	11566.325678784841	0
0	72485	11566.342126439999	1
0	72486	11566.743664426937	0
0	72492	11567.033881735621	1
0	72496	11568.375234370793	0
0	72500	11568.424793596946	1
0	72501	11568.830405696689	0
0	72510	11570.130754385023	1
0	72512	11570.221652812157	2
0	72513	11570.246701235578	1
0	72517	11570.418796382101	2
0	72523	11571.382274603305	1
0	72526	11572.345802202841	0
0	72530	11572.417460461761	1
0	72531	11573.100660055617	0
0	72540	11574.073226012645	1
0	72541	11574.448649251965	0
0	72545	11575.190960776403	1
0	72546	11575.353216972147	0
0	72565	11578.411054977618	1
0	72566	11579.070310619838	0
0	72577	11579.94460800372	1
0	72581	11580.90488770265	0
0	72595	11583.803225995746	1
0	72596	11584.192503695559	0
0	72600	11584.503002814232	1
0	72601	11584.676282292415	0
0	72605	11584.924281404063	1
0	72612	11585.281949154461	2
0	72613	11585.68208633647	1
0	72616	11586.519936991201	0
0	72655	11605.587242103623	1
0	72656	11606.061286014638	0
0	72680	11613.587218189428	1
0	72681	11613.892568831915	0
0	72690	11615.327186290293	1
0	72692	11615.550650080804	2
0	72693	11616.268353427811	1
0	72696	11616.699097289475	0
0	72700	11616.913180224689	1
0	72701	11617.179394996077	0
0	72705	11617.183936431828	1
0	72707	11617.573195741364	2
0	72709	11617.954674327348	3
0	72710	11618.082843893957	2
0	72714	11618.649591888263	3
0	72715	11618.868219747538	2
0	72719	11618.907142783624	3
0	72720	11619.552492177584	2
0	72724	11619.645404380881	3
0	72725	11620.193212871165	2
0	72729	11620.314441977674	3
0	72730	11621.055279736831	2
0	72733	11621.936339022783	1
0	72737	11622.125943645197	2
0	72738	11622.457226413726	1
0	72741	11622.969535642727	0
0	72760	11626.46563053295	1
0	72761	11626.894503869173	0
0	72785	11636.365493255845	1
0	72786	11636.398824750907	0
0	72790	11636.589323127978	1
0	72792	11636.643226423912	2
0	72793	11636.81377534987	1
0	72797	11637.536215461521	2
0	72798	11637.546697396595	1
0	72802	11637.944637649537	2
0	72803	11638.05352388457	1
0	72807	11638.113274149702	2
0	72808	11638.712829397242	1
0	72811	11639.576448520688	0
0	72815	11639.901608621475	1
0	72817	11640.226503570826	2
0	72818	11640.430828500814	1
0	72822	11640.470185645035	2
0	72823	11641.002503552702	1
0	72827	11641.655817396798	2
0	72828	11641.785092047411	1
0	72832	11642.132081908191	2
0	72833	11642.386442231988	1
0	72837	11642.604418475304	2
0	72838	11643.312682542294	1
0	72841	11643.781057371475	0
0	72850	11645.31419516125	1
0	72852	11645.348133990559	2
0	72854	11645.349529119074	3
0	72855	11645.809157252102	2
0	72859	11646.074309449597	3
0	72861	11646.077215559873	4
0	72863	11646.260805644866	5
0	72864	11646.702738127415	4
0	72867	11647.514053291618	3
0	72871	11648.207306949045	4
0	72872	11648.252600060986	3
0	72876	11648.427414013097	4
0	72877	11648.72986443562	3
0	72881	11648.915503264216	4
0	72882	11649.131698926748	3
0	72885	11649.929487276008	2
0	72889	11650.327787029649	3
0	72890	11650.67919150556	2
0	72893	11651.462172322371	1
0	72897	11651.932770012672	2
0	72899	11651.942797089685	3
0	72901	11652.0568362287	4
0	72902	11652.144926236267	3
0	72906	11652.184424812878	4
0	72907	11652.584737137449	3
0	72911	11652.719699785998	4
0	72912	11653.150167878228	3
0	72916	11653.261781908681	4
0	72917	11653.761652470357	3
0	72921	11653.974610575746	4
0	72922	11654.172440051963	3
0	72926	11654.235581943807	4
0	72927	11654.872962202621	3
0	72931	11655.245135299258	4
0	72932	11655.766415110859	3
0	72936	11655.809159062331	4
0	72937	11656.728035005997	3
0	72940	11657.58155946706	2
0	72943	11658.192875916954	1
0	72946	11658.653527650494	0
0	72960	11662.253460745726	1
0	72964	11662.774195133599	2
0	72974	11663.961269494143	3
0	72975	11664.350552176872	2
0	72979	11664.517819977337	3
0	72983	11664.791958855168	4
0	72988	11665.445766903533	5
0	72989	11666.108240720166	4
0	72992	11666.644320796479	3
0	72996	11667.047767714192	4
0	72997	11667.419978071519	3
0	73001	11667.61800715405	4
0	73002	11667.962360810119	3
0	73006	11668.157496463537	4
0	73007	11668.902572194257	3
0	73010	11669.689703366024	2
0	73013	11670.205537783777	1
0	73017	11670.707236686756	2
0	73018	11670.882938555678	1
0	73021	11671.810413480926	0
0	73025	11671.817418625567	1
0	73027	11672.094733204424	2
0	73028	11672.315957905681	1
0	73032	11672.603351867599	2
0	73034	11672.907538004549	3
0	73035	11672.962387782012	2
0	73039	11672.967532365367	3
0	73040	11673.600419837518	2
0	73044	11673.914309608314	3
0	73045	11674.512608261967	2
0	73048	11675.063492486814	1
0	73052	11675.450799432304	2
0	73053	11675.701693611175	1
0	73057	11675.800746442401	2
0	73059	11675.849186841192	3
0	73060	11676.304358839665	2
0	73064	11676.47959053168	3
0	73065	11677.21234784513	2
0	73069	11677.448578292384	3
0	73070	11677.65994075835	2
0	73073	11678.262215235366	1
0	73076	11679.065139572464	0
0	73080	11679.506559029652	1
0	73082	11679.528238514878	2
0	73083	11679.695167377314	1
0	73086	11680.225559276764	0
0	73090	11680.50135523483	1
0	73091	11680.878320764939	0
0	73095	11680.902434181793	1
0	73097	11681.153114657203	2
0	73099	11681.53969883124	3
0	73100	11681.623740576862	2
0	73103	11682.174820954867	1
0	73107	11682.309929487794	2
0	73108	11683.10389279891	1
0	73112	11683.235370116134	2
0	73114	11683.304306341637	3
0	73115	11683.599479383279	2
0	73118	11684.378181170628	1
0	73121	11684.873705653616	0
0	73130	11685.782410774847	1
0	73131	11686.246592682145	0
0	73145	11688.926115518354	1
0	73147	11689.101979296518	2
0	73148	11689.326382554971	1
0	73152	11689.678269672773	2
0	73153	11689.840343034404	1
0	73157	11689.931831805966	2
0	73158	11690.265980646104	1
0	73167	11690.963702040059	2
0	73169	11691.306912732491	3
0	73170	11691.68463480896	2
0	73178	11693.184040197634	1
0	73186	11694.39803534839	0
0	73192	11695.153221225561	1
0	73197	11695.737259768309	2
0	73198	11695.783445435713	1
0	73201	11696.329995853404	0
0	73205	11696.576111689706	1
0	73207	11696.640710579152	2
0	73208	11697.31824680911	1
0	73212	11698.135476591464	2
0	73213	11698.145270127986	1
0	73216	11698.836917629369	0
0	73250	11703.875340934476	1
0	73252	11703.948435906769	2
0	73254	11704.393095669853	3
0	73255	11704.649386321669	2
0	73263	11705.922944318093	1
0	73267	11706.310234162827	2
0	73273	11707.818179669613	1
0	73277	11708.104584456993	2
0	73278	11708.689147137441	1
0	73281	11709.102725110213	0
0	73285	11709.13763861552	1
0	73291	11710.335765765943	0
0	73297	11710.878188748153	1
0	73301	11711.595070318561	0
0	73307	11712.355735305208	1
0	73311	11712.912641754895	0
0	73335	11716.841449672618	1
0	73336	11717.534993075438	0
0	73345	11718.33031314623	1
0	73346	11718.713791661056	0
0	73350	11718.8537637234	1
0	73352	11718.956275870188	2
0	73354	11718.97291623403	3
0	73356	11718.982548528087	4
0	73358	11719.006517452179	5
0	73359	11719.28769843825	4
0	73362	11720.186775753413	3
0	73366	11720.593995636308	4
0	73368	11720.609250620102	5
0	73369	11721.085575757221	4
0	73373	11721.191770406905	5
0	73374	11721.899279436794	4
0	73377	11722.717214412846	3
0	73380	11723.286785477538	2
0	73384	11723.344048782538	3
0	73386	11724.167502822794	4
0	73387	11724.267153897321	3
0	73391	11724.452588255834	4
0	73392	11724.694641028483	3
0	73395	11725.361820550168	2
0	73398	11725.969987929937	1
0	73401	11726.639634769315	0
0	73405	11727.06342636014	1
0	73406	11727.600299919302	0
0	73415	11729.559749463529	1
0	73416	11729.763162560639	0
0	73420	11730.139301946347	1
0	73421	11730.465374928777	0
0	73440	11733.440884169493	1
0	73441	11733.725606703301	0
0	73450	11735.342775631856	1
0	73452	11735.451047857684	2
0	73454	11735.881080519454	3
0	73455	11736.075461212802	2
0	73458	11736.697456694884	1
0	73461	11737.116571972916	0
0	73465	11737.198560629426	1
0	73467	11737.362706150963	2
0	73469	11737.38983824154	3
0	73470	11737.967553524371	2
0	73474	11738.078557794361	3
0	73475	11738.950029242202	2
0	73479	11739.158736031209	3
0	73480	11739.576628226298	2
0	73483	11740.424058584008	1
0	73487	11740.45287787259	2
0	73488	11740.914495022107	1
0	73492	11740.994505492504	2
0	73493	11741.442115572399	1
0	73496	11741.846393480363	0
0	73500	11741.902879820108	1
0	73501	11742.380920961803	0
0	73505	11742.493802092474	1
0	73506	11743.0626984671	0
0	73512	11743.627412939515	1
0	73517	11744.328292197706	2
0	73519	11744.354446922313	3
0	73520	11744.850010857569	2
0	73529	11745.894226758579	3
0	73530	11746.295006657928	2
0	73538	11747.569831785071	1
0	73541	11747.989202468912	0
0	73600	11762.107362619341	1
0	73601	11762.507740041048	0
0	73610	11765.089908334983	1
0	73611	11765.328696374514	0
0	73615	11765.854349327932	1
0	73616	11766.02628331749	0
0	73620	11766.106169437572	1
0	73621	11766.569500991853	0
0	73630	11768.463930126874	1
0	73631	11768.612946072282	0
0	73635	11768.910592089107	1
0	73636	11769.495691712914	0
0	73655	11774.165095658111	1
0	73656	11774.317408629316	0
0	73660	11774.349320093625	1
0	73662	11774.493812748042	2
0	73663	11775.173067432637	1
0	73667	11775.736738917667	2
0	73668	11776.020834510955	1
0	73672	11776.6486141899	2
0	73673	11776.928156535276	1
0	73676	11777.760967624229	0
0	73680	11778.165997877508	1
0	73681	11778.454526144354	0
0	73685	11779.301717975512	1
0	73686	11779.305071818125	0
0	73700	11780.779482254131	1
0	73702	11780.836087579571	2
0	73703	11781.350089848016	1
0	73709	11781.708740227528	2
0	73713	11782.860263182989	1
0	73716	11783.395548202538	0
0	73720	11783.625909753379	1
0	73726	11785.060262605663	0
0	73735	11786.171702663792	1
0	73736	11786.516713584981	0
0	73740	11787.019106271616	1
0	73742	11787.296218903985	2
0	73743	11787.340523099455	1
0	73747	11787.571385949324	2
0	73748	11788.278057577808	1
0	73751	11789.223635729004	0
0	73760	11790.860241018302	1
0	73761	11791.213890846833	0
0	73765	11791.294283415483	1
0	73766	11791.828323500431	0
0	73795	11799.812171269199	1
0	73796	11800.70739293321	0
0	73810	11802.152219681689	1
0	73811	11802.971876335563	0
0	73820	11803.722105530799	1
0	73821	11804.451671511167	0
0	73830	11805.692145989548	1
0	73831	11805.950082541257	0
0	73840	11806.889066541002	1
0	73841	11807.205383216869	0
0	73845	11807.833771584247	1
0	73846	11808.06430264716	0
0	73850	11808.253301887085	1
0	73851	11808.473404563916	0
0	73860	11809.572837095686	1
0	73861	11810.022615797596	0
0	73865	11810.047472096036	1
0	73866	11810.876932958431	0
0	73870	11811.08964522119	1
0	73871	11811.446805950591	0
0	73875	11811.463317526149	1
0	73876	11811.868135886138	0
0	73880	11812.244453815012	1
0	73881	11812.788605412293	0
0	73890	11813.426293827106	1
0	73891	11814.110275799445	0
0	73895	11814.127059961803	1
0	73896	11814.756631010202	0
0	73900	11814.883720104514	1
0	73901	11815.654814967177	0
0	73910	11818.328544886852	1
0	73911	11818.865312969246	0
0	73915	11819.028774832459	1
0	73916	11819.390215637003	0
0	73930	11821.584438167053	1
0	73931	11821.896125951312	0
0	73935	11822.235771843585	1
0	73936	11822.329733846426	0
0	73960	11833.321110789409	1
0	73961	11833.889516395549	0
0	73970	11834.679996943164	1
0	73971	11835.377980256532	0
0	74002	11839.612244262309	1
0	74006	11840.358897764885	0
0	74020	11841.737958743813	1
0	74021	11842.076792543053	0
0	74030	11842.705623969708	1
0	74031	11843.464819992378	0
0	74060	11849.065351685346	1
0	74061	11849.165375299275	0
0	74080	11852.510660209535	1
0	74087	11853.190840762241	2
0	74088	11853.487959257616	1
0	74102	11855.792002591648	2
0	74103	11856.023526564716	1
0	74112	11856.770765186049	2
0	74114	11857.260297417952	3
0	74115	11857.481735910858	2
0	74126	11858.306361405734	3
0	74140	11860.678798583254	2
0	74154	11862.42784788407	3
0	74185	11867.357566819398	2
0	74194	11868.437079277735	3
0	74196	11868.585612270415	4
0	74197	11868.912567424832	3
0	74210	11870.871336529043	2
0	74216	11871.522005813027	3
0	74220	11872.549138034565	2
0	74228	11874.462882577639	1
0	74236	11875.922386222204	0
0	74240	11876.151409124325	1
0	74242	11876.332097729029	2
0	74243	11876.589869028108	1
0	74247	11876.944003170467	2
0	74248	11877.457367555762	1
0	74252	11878.175677929205	2
0	74253	11878.210439938272	1
0	74257	11878.242245978173	2
0	74259	11878.308495685434	3
0	74260	11879.029411796958	2
0	74263	11879.936481080076	1
0	74267	11879.969218483765	2
0	74268	11880.801548519276	1
0	74271	11881.216545410512	0
0	74287	11883.641470747902	1
0	74316	11888.297455477817	0
0	74320	11888.663309790176	1
0	74341	11892.329009125019	0
0	74407	11913.914364377973	1
0	74419	11915.396328318698	2
0	74493	11925.958036034314	1
0	74496	11926.811366308054	0
0	74500	11926.914790523413	1
0	74501	11927.375224819632	0
0	74505	11927.509717819235	1
0	74506	11928.16526916641	0
0	74515	11929.403742664493	1
0	74522	11930.094596750906	2
0	74524	11930.266022064551	3
0	74525	11930.768064463237	2
0	74536	11932.028503838486	3
0	74556	11934.6522237169	4
0	74557	11934.998323410569	3
0	74565	11936.558918628196	2
0	74569	11936.593631959893	3
0	74573	11936.850881333786	4
0	74577	11937.657577986369	3
0	74586	11938.276035351202	4
0	74587	11939.116094412474	3
0	74590	11939.523434767924	2
0	74596	11939.999684397845	3
0	74598	11940.312228665822	4
0	74603	11940.89324201581	5
0	74604	11940.927022839529	4
0	74612	11942.588290930126	3
0	74615	11942.996959790267	2
0	74618	11943.422866180684	1
0	74622	11943.764188253254	2
0	74623	11944.332506689993	1
0	74626	11945.120386064663	0
0	74635	11946.757171086868	1
0	74637	11946.83623162985	2
0	74639	11947.309414356947	3
0	74640	11947.310622128564	2
0	74644	11947.650465701856	3
0	74645	11948.052628377452	2
0	74649	11948.498333921468	3
0	74650	11948.799310054862	2
0	74653	11949.748760791867	1
0	74656	11950.45190203525	0
0	74680	11954.801580850864	1
0	74681	11955.500419717462	0
0	74745	11987.651897822178	1
0	74746	11987.950306521699	0
0	74750	11988.168155229903	1
0	74751	11988.542667419806	0
0	74755	11989.197524850091	1
0	74756	11989.470928700145	0
0	74760	11989.534458044304	1
0	74762	11989.720522001817	2
0	74763	11990.028540947212	1
0	74766	11990.711359420063	0
0	74775	11991.942607174871	1
0	74776	11992.556136150953	0
0	74780	11993.270132291988	1
0	74782	11993.302764968742	2
0	74783	11993.512770403751	1
0	74786	11994.054743810014	0
0	74790	11994.605482972479	1
0	74791	11994.61877070816	0
0	74795	11994.727910922786	1
0	74797	11994.740376401367	2
0	74799	11995.056598452276	3
0	74800	11995.251825250376	2
0	74804	11995.534832323013	3
0	74806	11995.707678881086	4
0	74807	11995.966627107019	3
0	74810	11996.898087137303	2
0	74814	11997.377639316082	3
0	74815	11997.591314049502	2
0	74819	11997.89251723165	3
0	74820	11998.271010566148	2
0	74824	11998.700641917902	3
0	74825	11998.949956181617	2
0	74828	11999.790613717231	1
0	74832	12000.160867985832	2
0	74833	12000.635079527524	1
0	74839	12000.982566620757	2
0	74844	12001.836096632524	3
0	74845	12002.201032683969	2
0	74854	12003.089944971218	3
0	74856	12003.476596787391	4
0	74857	12003.57791966602	3
0	74875	12006.403133068064	2
0	74898	12009.632772178824	1
0	74901	12010.393280265263	0
0	74905	12010.405213626858	1
0	74906	12011.3015256758	0
0	74920	12012.916911164486	1
0	74922	12013.3759210785	2
0	74923	12013.622187925518	1
0	74931	12015.505813141695	0
0	74940	12016.470626415584	1
0	74941	12016.906440787265	0
0	74965	12021.283401161883	1
0	74966	12021.487976940439	0
0	75005	12046.615725146101	1
0	75006	12046.952164515513	0
0	75010	12047.414622325522	1
0	75011	12047.844579934967	0
0	75015	12047.896265906131	1
0	75017	12048.227717397357	2
0	75018	12048.408109873566	1
0	75022	12048.909332992264	2
0	75023	12049.034068177673	1
0	75026	12049.523176763193	0
0	75030	12050.034576542787	1
0	75031	12050.242841765131	0
0	75060	12055.861028700554	1
0	75061	12055.903537817122	0
0	75070	12056.880871375058	1
0	75072	12057.208063965876	2
0	75073	12057.695750880303	1
0	75079	12057.911594776435	2
0	75081	12058.300108231075	3
0	75085	12059.328301230507	2
0	75091	12059.604937753452	3
0	75101	12060.527095879354	4
0	75103	12060.654860558112	5
0	75104	12060.964168346269	4
0	75113	12062.42144525022	5
0	75114	12062.784930461287	4
0	75125	12064.029008420006	5
0	75129	12064.710408315914	4
0	75137	12065.907294169035	3
0	75143	12066.193217827001	4
0	75148	12066.647045224082	5
0	75174	12070.238102187742	4
0	75185	12071.131341792393	5
0	75199	12074.318152573532	4
0	75205	12074.883248200314	5
0	75210	12075.41500910824	6
0	75241	12080.068388565038	5
0	75267	12083.440893927677	6
0	75296	12087.522078976841	5
0	75310	12089.164206223843	6
0	75317	12090.024669259066	7
0	75324	12090.578937284654	8
0	75326	12090.654741181134	9
0	75345	12093.604581423946	10
0	75369	12097.204592787628	9
0	75378	12098.26435681346	10
0	75379	12098.734333187309	9
0	75387	12100.476682169703	8
0	75391	12100.497949843372	9
0	75397	12102.137159650135	8
0	75400	12103.088957583779	7
0	75404	12103.350422264578	8
0	75405	12103.599128842135	7
0	75409	12104.247693195207	8
0	75410	12104.276698512738	7
0	75414	12104.289173522558	8
0	75415	12104.823316646289	7
0	75418	12105.558475681037	6
0	75422	12105.727794728588	7
0	75424	12105.800797642624	8
0	75425	12106.050294673551	7
0	75428	12106.892761078771	6
0	75432	12107.284411143778	7
0	75434	12107.51838629035	8
0	75435	12107.628891640218	7
0	75438	12108.224392591339	6
0	75442	12108.828010035209	7
0	75443	12109.110766591892	6
0	75446	12109.778166500494	5
0	75449	12110.18137386466	4
0	75452	12110.914800458509	3
0	75456	12111.37167410248	4
0	75457	12111.72450584915	3
0	75461	12112.043853742701	4
0	75462	12112.514873340926	3
0	75465	12113.482990605351	2
0	75469	12113.602218015665	3
0	75470	12114.442899294723	2
0	75474	12114.981306408199	3
0	75475	12115.19913219606	2
0	75478	12115.997790547334	1
0	75481	12116.770802185838	0
0	75485	12117.232094202752	1
0	75486	12117.406775332442	0
0	75500	12119.243796386269	1
0	75501	12119.893506339703	0
0	75505	12120.264215216639	1
0	75512	12121.029570484072	2
0	75513	12121.343187296342	1
0	75522	12121.983240977849	2
0	75523	12122.44412610498	1
0	75527	12122.531633958673	2
0	75528	12122.922583498244	1
0	75532	12123.36280103175	2
0	75534	12123.766597789896	3
0	75535	12123.800653381922	2
0	75539	12124.090174124096	3
0	75540	12124.664018268973	2
0	75543	12125.641018617941	1
0	75547	12126.157484663562	2
0	75548	12126.586467531227	1
0	75551	12127.580610579715	0
0	75555	12128.179628389046	1
0	75556	12128.181758879728	0
0	75560	12128.245780898394	1
0	75561	12129.022633990131	0
0	75575	12131.564381859659	1
0	75577	12131.754185879643	2
0	75578	12131.787312833387	1
0	75582	12132.362456248556	2
0	75583	12132.690564502151	1
0	75586	12133.272149161323	0
0	75595	12134.305137866415	1
0	75597	12134.483793539747	2
0	75598	12134.549997230252	1
0	75601	12135.336009076103	0
0	75615	12138.390688103047	1
0	75617	12138.408700005069	2
0	75618	12138.431169811397	1
0	75624	12138.937677581217	2
0	75629	12139.805850096536	3
0	75630	12140.040432077547	2
0	75634	12140.494293941495	3
0	75635	12140.780497990589	2
0	75641	12141.366295888782	3
0	75646	12141.757276490869	4
0	75648	12141.7594404396	5
0	75649	12142.454168090125	4
0	75652	12143.019227159855	3
0	75656	12143.217675158418	4
0	75657	12143.523716294759	3
0	75660	12144.49815471195	2
0	75664	12144.850021981002	3
0	75665	12145.482360607705	2
0	75668	12146.340451470104	1
0	75672	12146.583688254167	2
0	75673	12147.228722551412	1
0	75677	12147.425745908785	2
0	75678	12148.081892802048	1
0	75682	12148.40041979111	2
0	75683	12148.512822064286	1
0	75686	12149.314481257455	0
0	75695	12151.15373331223	1
0	75696	12151.65033368685	0
0	75700	12151.652708831304	1
0	75701	12152.557074953408	0
0	75705	12153.203602116692	1
0	75706	12153.375754352544	0
0	75710	12154.092832369965	1
0	75711	12154.222592397618	0
0	75720	12155.546855587194	1
0	75721	12156.06209406215	0
0	75740	12160.528121820788	1
0	75746	12162.094069764344	0
0	75755	12162.646501718628	1
0	75756	12163.370404875977	0
0	75765	12164.604500547771	1
0	75766	12165.005421527009	0
0	75780	12167.865149367507	1
0	75781	12168.155988448879	0
0	75790	12168.97211348099	1
0	75791	12169.480125103772	0
0	75815	12173.249745722958	1
0	75816	12173.482891889448	0
0	75822	12174.167431929484	1
0	75827	12174.337430540957	2
0	75828	12174.611463854714	1
0	75831	12175.481879508049	0
0	75840	12177.323273498843	1
0	75842	12177.74517604013	2
0	75843	12177.922650028398	1
0	75847	12178.287012985913	2
0	75848	12178.66373238145	1
0	75852	12178.988950651188	2
0	75853	12179.610737440741	1
0	75856	12180.370867220318	0
0	75870	12182.452054704851	1
0	75872	12182.899844545909	2
0	75873	12183.046223824898	1
0	75876	12183.914958962945	0
0	75885	12187.223401866756	1
0	75886	12187.82212757984	0
0	75905	12191.289562108704	1
0	75906	12191.627279489025	0
0	75915	12192.109615328174	1
0	75917	12192.32878454371	2
0	75918	12192.722023131608	1
0	75927	12193.477293211209	2
0	75928	12194.011899415965	1
0	75937	12194.986073226493	2
0	75938	12195.932169236572	1
0	75946	12197.250704287927	0
0	75955	12199.023501840184	1
0	75956	12199.099148929591	0
0	75962	12199.359189130979	1
0	75964	12199.414385657545	2
0	75968	12200.580699135602	1
0	75974	12201.121009002803	2
0	75976	12201.250346104546	3
0	75978	12201.481896787377	4
0	75983	12202.130276162412	5
0	75984	12202.137090999359	4
0	75993	12203.069108348804	5
0	75994	12203.333399638167	4
0	75997	12203.949812689895	3
0	76001	12204.110444682491	4
0	76002	12204.859015977621	3
0	76005	12205.571728608437	2
0	76008	12206.249235229805	1
0	76012	12206.295503541294	2
0	76013	12206.664790410275	1
0	76017	12206.868487254314	2
0	76018	12207.512324630801	1
0	76022	12207.735206147281	2
0	76023	12208.364418346534	1
0	76027	12208.821689690833	2
0	76029	12208.938064433749	3
0	76031	12209.090225924905	4
0	76032	12209.149706674885	3
0	76036	12209.189525884948	4
0	76037	12209.749788279232	3
0	76040	12210.204745560378	2
0	76043	12210.820577525772	1
0	76046	12211.76604877669	0
0	76055	12212.632943195332	1
0	76057	12212.640156879947	2
0	76058	12212.934662637232	1
0	76062	12213.671990669051	2
0	76063	12213.912040567329	1
0	76067	12214.19112673442	2
0	76068	12214.648429681711	1
0	76072	12215.327256528846	2
0	76073	12215.39638718397	1
0	76077	12215.516062087588	2
0	76079	12215.518690969427	3
0	76080	12216.343917683536	2
0	76084	12216.405526282329	3
0	76086	12216.483638856893	4
0	76087	12216.787214762555	3
0	76090	12217.224677968654	2
0	76094	12217.570858694235	3
0	76096	12217.676352382035	4
0	76097	12218.06739710907	3
0	76100	12218.692178249057	2
0	76104	12218.966835796585	3
0	76105	12219.224617682887	2
0	76109	12220.148741951651	3
0	76110	12220.184467833886	2
0	76113	12220.870235720208	1
0	76116	12221.302737036465	0
0	76125	12223.194655378098	1
0	76126	12223.222067173803	0
0	76130	12223.226062686403	1
0	76139	12224.411026335419	2
0	76144	12224.602516522787	3
0	76165	12227.647788770683	2
0	76173	12229.220185294608	1
0	76179	12229.318183200555	2
0	76184	12231.049649638769	3
0	76185	12231.094896272524	2
0	76194	12232.150455965333	3
0	76252	12240.279466268615	4
0	76287	12245.739165598389	3
0	76300	12247.775834822937	2
0	76309	12248.478174005827	3
0	76310	12249.294883363464	2
0	76313	12249.722772211026	1
0	76316	12250.255635664662	0
0	76322	12250.597063815111	1
0	76327	12250.966640994349	2
0	76328	12251.327154500693	1
0	76334	12251.870819164569	2
0	76339	12252.860068440501	3
0	76340	12252.901166436964	2
0	76343	12253.48884089161	1
0	76347	12253.535439667374	2
0	76348	12254.217318477484	1
0	76352	12254.401512777493	2
0	76371	12256.995091865306	3
0	76378	12257.878817528118	4
0	76382	12258.668477889758	3
0	76395	12260.799476335945	2
0	76403	12262.179029002788	1
0	76409	12262.382217213746	2
0	76416	12263.215405149708	3
0	76423	12264.882848733213	4
0	76427	12265.61296783793	3
0	76436	12266.683827821548	4
0	76437	12267.379378860958	3
0	76445	12268.503328872567	2
0	76449	12268.511716186145	3
0	76460	12270.756575369603	2
0	76476	12272.410098730105	3
0	76481	12273.62676793563	4
0	76482	12273.855617562822	3
0	76491	12274.683051614756	4
0	76493	12274.76930088361	5
0	76494	12275.469200696704	4
0	76500	12275.521037823634	5
0	76502	12276.323190673339	6
0	76507	12276.674529215661	7
0	76508	12277.280704963488	6
0	76516	12278.475705118478	5
0	76522	12278.725132657703	6
0	76527	12279.517790907069	7
0	76528	12280.388835130725	6
0	76532	12280.495447174186	7
0	76541	12281.266542971265	8
0	76543	12281.859302493901	9
0	76548	12282.058255966724	10
0	76555	12283.289310657749	11
0	76556	12283.950698022497	10
0	76564	12285.455298710335	9
0	76573	12286.118556453184	10
0	76574	12286.767585659027	9
0	76580	12287.223006036574	10
0	76585	12288.023161400441	11
0	76587	12288.176242041036	12
0	76588	12288.446366272401	11
0	76591	12289.126135303406	10
0	76594	12289.991186896479	9
0	76598	12290.377846303518	10
0	76600	12290.46682944389	11
0	76601	12290.573594019562	10
0	76604	12291.433081019111	9
0	76607	12291.997522969404	8
0	76611	12292.130929027067	9
0	76613	12292.716229422115	10
0	76614	12292.718679039692	9
0	76618	12293.013089928928	10
0	76619	12293.125492840493	9
0	76622	12294.021286341548	8
0	76625	12294.607846869202	7
0	76628	12295.053530122805	6
0	76631	12295.832949043857	5
0	76635	12296.352454905433	6
0	76636	12296.755596101144	5
0	76644	12298.375177371315	4
0	76653	12299.535881552099	5
0	76655	12299.575911528576	6
0	76656	12300.206883471599	5
0	76662	12300.528368332033	6
0	76667	12300.880440762366	7
0	76673	12302.353545141127	6
0	76677	12302.68851324933	7
0	76678	12302.763884712383	6
0	76681	12303.268846898293	5
0	76684	12303.713041969715	4
0	76693	12304.356525487953	5
0	76697	12304.653466233863	6
0	76699	12304.922018549649	7
0	76709	12305.776006085637	8
0	76710	12305.990347391786	7
0	76733	12309.665873196024	6
0	76744	12310.651982067474	7
0	76746	12310.824340637765	8
0	76756	12311.830020525057	9
0	76762	12313.253610965146	8
0	76765	12313.678985270813	7
[...]
9	129977	20536.249227290324	1
9	129979	20536.671559139096	0
9	129982	20537.10721036508	1
9	129984	20537.136240697936	0
9	130004	20540.222932458159	1
9	130008	20541.119588628749	0
9	130011	20541.196959852802	1
9	130013	20541.401406056916	0
9	130016	20541.648765530113	1
9	130018	20542.000041534472	0
9	130074	20549.783836402466	1
9	130076	20549.895630721652	0
9	130134	20557.763144338784	1
9	130136	20558.135560827409	0
9	131182	20714.040071218866	1
9	131184	20714.090349250054	0
9	131197	20716.316294381521	1
9	131199	20716.385005222454	0
9	131240	20722.680022116923	1
9	131242	20722.977995790964	0
9	131285	20728.327604537491	1
9	131287	20728.359157757562	0
9	131551	20768.805389367714	1
9	131553	20768.810480646818	0
9	131571	20771.542671855743	1
9	131573	20771.601103219766	0
9	131704	20788.60407387849	1
9	131709	20789.188094005907	0
9	131786	20798.745936627984	1
9	131791	20799.460585429276	0
9	131809	20802.067058146298	1
9	131811	20802.096478529739	0
9	131831	20805.103720018799	1
9	131838	20805.761097980732	0
9	132654	20919.637618914826	1
9	132656	20919.722045283338	0
9	132715	20926.768266569984	1
9	132717	20926.990521867533	0
9	133649	21059.29086094317	1
9	133651	21059.477032177691	0
9	133672	21062.896231716266	1
9	133677	21063.675553292548	0
9	134398	21171.529438220858	1
9	134400	21171.543957691346	0
9	134453	21178.563611888801	1
9	134455	21178.633872397459	0
9	136464	21589.426030292013	1
9	136469	21590.063189442241	0
9	136510	21595.339077340648	1
9	136512	21595.391694431183	0
9	136559	21601.733651576912	1
9	136561	21601.745365232739	0
9	136574	21603.723893911973	1
9	136583	21604.951560662421	0
9	136613	21608.823308174613	1
9	136618	21609.593994074137	0
9	136635	21611.602813374459	1
9	136637	21611.649977022411	0
9	136657	21614.118797592143	1
9	136659	21614.362082348102	0
9	136667	21615.572728879726	1
9	136669	21615.655201708382	0
9	136672	21616.089328585215	1
9	136674	21616.5741610706	0
9	136677	21616.892527482867	1
9	136679	21617.009471491621	0
9	136682	21617.426156828994	1
9	136684	21617.478771712985	0
9	136782	21630.369687781878	1
9	136787	21631.154902749447	0
9	136892	21644.261328949335	1
9	136894	21644.424295057856	0
9	136907	21646.287999686993	1
9	136909	21646.682243540151	0
9	136932	21650.238851788057	1
9	136934	21650.268999671181	0
9	136945	21652.677751433173	1
9	136947	21652.748261757031	0
9	137022	21663.040618361834	1
9	137024	21663.154833712452	0
9	137933	21810.818099042706	1
9	137935	21811.301750552291	0
9	138058	21834.109748244223	1
9	138060	21834.128884318373	0
9	138129	21842.384866139046	1
9	138131	21842.49240450923	0
9	138231	21854.71123500656	1
9	138233	21854.916225748606	0
9	138453	21886.963065453047	1
9	138455	21887.517769109988	0
9	140720	22271.686074736955	1
9	140724	22272.001785227847	0
9	141017	22327.231196876934	1
9	141019	22327.474256578175	0
9	141049	22330.95534385591	1
9	141052	22331.803064157899	2
9	141054	22332.012733635106	1
9	141056	22332.363892384511	0
9	141071	22334.080192837391	1
9	141073	22334.092901646901	0
9	141103	22338.119749037448	1
9	141105	22338.260016626552	0
9	141120	22340.288449680146	1
9	141122	22340.314753302963	0
9	141125	22340.832251995189	1
9	141127	22340.859017258467	0
9	141142	22342.978896003767	1
9	141145	22343.467357159351	2
9	141147	22343.889834679948	1
9	141149	22344.308123939887	0
9	141152	22344.38649109643	1
9	141154	22344.594915567235	0
9	141167	22346.189210109265	1
9	141169	22346.692372976329	0
9	141197	22350.350490969551	1
9	141202	22350.899095382114	2
9	141205	22351.317294444368	3
9	141207	22351.551937399707	2
9	141212	22352.004170519604	1
9	141216	22352.114136768321	0
9	141219	22352.347954194985	1
9	141221	22352.598715765791	0
9	141227	22353.753921965735	1
9	141229	22353.875375023171	0
9	141257	22357.119868001707	1
9	141259	22357.187495779388	0
9	141272	22359.090556996587	1
9	141274	22359.333613208062	0
9	141321	22365.378508128543	1
9	141324	22366.115436174712	2
9	141326	22366.681386226764	1
9	141331	22367.224305320213	0
9	141336	22367.512462001238	1
9	141338	22367.651430712395	0
9	141561	22400.101118261917	1
9	141563	22400.147419198284	0
9	141589	22402.743957078727	1
9	141606	22404.839937120666	0
9	142347	22525.396874957912	1
9	142349	22525.772097666708	0
9	142372	22528.908002214886	1
9	142374	22529.10849447828	0
9	143058	22647.623977028444	1
9	143060	22647.906399970885	0
9	143106	22654.99502142673	1
9	143108	22655.076055159778	0
9	143434	22719.570878361964	1
9	143441	22720.351284808505	0
9	143463	22722.898679228367	1
9	143465	22723.54823947315	0
9	143473	22724.414047792654	1
9	143475	22724.855267277644	0
9	143591	22741.111057425202	1
9	143596	22741.580876697351	0
9	145176	23029.154401836539	1
9	145178	23029.162187885487	0
9	145183	23029.595516212372	1
9	145185	23029.932458277651	0
9	145193	23030.500578256226	1
9	145195	23031.377979264781	0
9	145198	23031.395620681899	1
9	145200	23031.529882372725	0
9	145298	23044.983762493585	1
9	145302	23045.283693542938	0
9	145305	23045.582006279747	1
9	145307	23046.046767094998	0
9	145310	23046.240290107992	1
9	145312	23046.299687665166	0
9	145354	23051.44241572171	1
9	145356	23051.510599391744	0
9	145372	23054.171715165298	1
9	145374	23054.469523447009	0
9	147006	23337.959668668757	1
9	147008	23338.583930871403	0
9	147759	23454.837115897905	1
9	147761	23455.149959187181	0
9	147784	23458.319092157963	1
9	147796	23460.107370800223	0
9	147933	23479.57691915805	1
9	147935	23479.777981317916	0
9	147959	23482.480794905839	1
9	147961	23482.554259887614	0
9	147982	23485.643942512214	1
9	147984	23485.720336329364	0
9	149015	23719.559622041348	1
9	149019	23719.794664946328	0
9	149022	23720.013168597759	1
9	149024	23720.039328162107	0
9	149027	23720.87776626691	1
9	149031	23721.255166842872	0
9	149034	23721.681236460086	1
9	149036	23721.806714463987	0
9	149413	23774.528795306924	1
9	149415	23774.676029282331	0
9	149428	23776.526575546041	1
9	149430	23776.725254831661	0
9	149529	23791.048070253366	1
9	149531	23791.096769274875	0
9	149991	23854.507725272402	1
9	149993	23854.669036708768	0
9	150139	23876.109542790175	1
9	150141	23876.239432610435	0
9	150203	23884.167259281482	1
9	150205	23884.601037976513	0
9	150423	23916.195854358814	1
9	150425	23916.35754069961	0
9	150462	23921.12259872553	1
9	150464	23921.324690417444	0
9	150855	23976.13932190241	1
9	150857	23976.323353942604	0
9	152299	24225.380936032815	1
9	152301	24225.724769483194	0
9	152341	24230.387449687722	1
9	152343	24230.95304098211	0
9	152557	24271.14483711484	1
9	152559	24271.799659772843	0
9	152574	24273.000785506164	1
9	152576	24273.452192288063	0
9	152612	24278.378455245141	1
9	152614	24278.494588942754	0
9	152624	24279.431171704475	1
9	152626	24279.530943502176	0
9	152649	24282.599749800628	1
9	152651	24282.7021298127	0
9	152668	24284.866162321409	1
9	152670	24285.273368926844	0
9	152673	24285.329048925144	1
9	152675	24285.88856593224	0
9	152691	24288.670691287768	1
9	152696	24289.308222771686	0
9	152709	24290.857119651855	1
9	152711	24291.134303912063	0
9	152766	24298.196052081341	1
9	152768	24298.837135112972	0
9	152813	24303.973459425958	1
9	152815	24304.343346021053	0
9	152823	24305.187737069482	1
9	152825	24305.307526946134	0
9	153362	24383.718877694401	1
9	153368	24383.794627185889	0
9	153489	24401.964667880631	1
9	153491	24402.145070788778	0
9	153586	24415.059474245696	1
9	153588	24415.28311891406	0
9	153596	24415.987964341188	1
9	153598	24416.055589977081	0
9	153717	24432.462230632411	1
9	153719	24432.706884415566	0
9	153735	24435.64997026483	1
9	153737	24435.964175723902	0
9	155561	24742.576813750374	1
9	155563	24742.586597936525	0
9	155687	24761.812744576563	1
9	155689	24761.947559134012	0
9	157584	25060.085910954762	1
9	157586	25060.279916974194	0
9	157715	25077.608332327119	1
9	157720	25078.205089794704	0
9	157763	25083.09471298402	1
9	157765	25083.315545736645	0
9	158146	25142.844905590471	1
9	158150	25143.109395971069	0
9	158167	25144.851710407641	1
9	158169	25145.122813076258	0
9	158528	25216.823516291195	1
9	158530	25216.975358369252	0
9	158543	25219.108866515478	1
9	158547	25219.535720763364	0
9	158555	25220.349067907223	1
9	158557	25220.501953357998	0
9	158572	25222.210202176032	1
9	158574	25222.453302501408	0
9	158625	25230.486767489696	1
9	158629	25231.007060020683	0
9	158660	25235.515550266439	1
9	158662	25236.002678755181	0
9	159865	25406.869553879458	1
9	159867	25407.390145232554	0
9	159893	25411.107202160494	1
9	159895	25411.262869171314	0
9	159921	25413.902984518135	1
9	159923	25414.238591453954	0
9	159926	25414.430317941304	1
9	159928	25414.495740774147	0
9	161052	25582.054364494668	1
9	161054	25582.058541174596	0
9	161354	25634.653365833475	1
9	161356	25634.687256736816	0
9	162331	25777.235366636935	1
9	162333	25777.402677253459	0
9	162346	25779.63565979372	1
9	162348	25779.696632590768	0
9	163082	25881.878736566523	1
9	163087	25882.617940826485	2
9	163089	25883.090982459031	1
9	163091	25883.101736502272	0
9	163102	25884.81076211315	1
9	163104	25884.967581706346	0
9	163112	25886.125428233206	1
9	163114	25886.294698453711	0
9	163117	25886.532324743274	1
9	163121	25887.088284569318	0
9	163129	25887.97391690505	1
9	163131	25887.988657864369	0
9	163169	25893.210057238073	1
9	163174	25893.930847375144	2
9	163176	25894.447507789395	1
9	163178	25894.529813140164	0
9	163910	25997.114394704304	1
9	163912	25997.210203075458	0
9	163927	25999.811768599977	1
9	163929	25999.931624351589	0
9	163954	26003.335702685132	1
9	163956	26003.718267443401	0
9	164083	26021.979019285183	1
9	164085	26022.27904350533	0
9	165780	26264.5502905699	1
9	165782	26264.564094322241	0
9	165793	26266.553874694141	1
9	165795	26266.886906163455	0
9	165810	26268.617432931488	1
9	165812	26268.904126732996	0
9	166632	26387.660810982112	1
9	166637	26388.817473410523	0
9	166803	26410.964543935987	1
9	166808	26411.835521937395	0
9	167049	26444.062165264834	1
9	167062	26446.661360874731	0
9	167068	26447.568046689129	1
9	167073	26448.885835259255	0
9	167083	26449.897911116577	1
9	167087	26450.290639581909	0
9	167134	26456.360041570854	1
9	167136	26456.52100848845	0
9	167164	26460.695898919604	1
9	167166	26460.83668534213	0
9	167169	26461.200664811959	1
9	167171	26461.318820249836	0
9	167204	26465.57248019572	1
9	167216	26467.03325015422	0
9	167227	26468.948044192797	1
9	167229	26469.417502081401	0
9	167246	26470.906372699054	1
9	167248	26471.113722058175	0
9	167577	26519.181256046899	1
9	167579	26519.28862252326	0
9	167607	26522.098909267652	1
9	167609	26522.658615874856	0
9	167617	26523.43717329666	1
9	167619	26523.541781785385	0
9	167679	26531.851079923996	1
9	167682	26532.681509522452	2
9	167684	26533.090436890925	1
9	167686	26533.171471701108	0
9	167689	26533.583763238891	1
9	167692	26534.072067791187	2
9	167694	26534.137102404749	1
9	167696	26534.485272133041	0
9	167721	26538.362865646519	1
9	167723	26538.564077574636	0
9	167902	26564.440315482685	1
9	167904	26564.573163735815	0
9	167909	26565.041697578285	1
9	167911	26565.122372042411	0
9	167914	26565.51850745358	1
9	167917	26566.303668829486	2
9	167919	26566.544030849379	1
9	167921	26566.778768446999	0
9	167949	26570.520044932015	1
9	167951	26570.823367243941	0
9	167959	26572.146403936356	1
9	167961	26572.831333532341	0
9	168059	26587.070622734925	1
9	168061	26587.707151604308	0
9	168144	26598.949753365679	1
9	168149	26599.861520823436	0
9	168181	26603.300444278366	1
9	168183	26603.467046537492	0
9	168668	26671.952671197492	1
9	168670	26672.186962195046	0
9	168844	26695.556290062211	1
9	168846	26695.846159991274	0
9	168857	26697.620339026602	1
9	168859	26697.637570975071	0
9	168987	26715.638106600261	1
9	168994	26716.711782435294	0
9	169027	26721.480316525159	1
9	169029	26721.580936221683	0
9	169100	26730.239039301799	1
9	169103	26730.650643392113	2
9	169105	26730.711491256692	1
9	169107	26731.105803725486	0
9	169112	26731.20830957966	1
9	169114	26731.277728359161	0
9	169152	26737.078322154441	1
9	169154	26737.116898702017	0
9	169177	26740.201100695849	1
9	169179	26740.293792784147	0
9	169194	26742.436772992573	1
9	169196	26742.534943324223	0
9	169262	26752.670184573362	1
9	169264	26752.897738942282	0
9	169279	26754.521810459688	1
9	169281	26754.539974340279	0
9	169372	26767.859879546769	1
9	169376	26768.062500512956	0
9	169411	26772.510740656655	1
9	169418	26773.41678885781	0
9	169438	26775.963451399811	1
9	169440	26776.491557079574	0
9	169446	26777.257997636654	1
9	169448	26777.431675464829	0
9	170096	26867.157906656358	1
9	170098	26867.280495651959	0
9	170182	26879.183666576229	1
9	170184	26879.262314135799	0
9	170195	26880.944357719754	1
9	170197	26881.216418400232	0
9	170524	26923.574401701769	1
9	170526	26923.659857327698	0
9	170576	26930.340784074055	1
9	170578	26930.818079013844	0
9	171178	27015.893176808682	1
9	171180	27015.897434921473	0
9	171218	27021.355593379782	1
9	171220	27021.820282220209	0
9	171255	27025.981222717147	1
9	171262	27026.868690492886	0
9	171294	27031.404468886191	1
9	171296	27031.603187218189	0
9	171319	27034.470716477941	1
9	171321	27034.754907644612	0
9	171342	27037.540518817083	1
9	171344	27038.51655955601	0
9	171362	27040.610879421337	1
9	171364	27040.90434969619	0
9	171739	27093.095892835414	1
9	171743	27093.17734592038	0
9	172212	27156.718231942512	1
9	172221	27158.207917361362	0
9	172239	27160.793378470706	1
9	172246	27162.057689641319	0
9	172279	27166.778634302978	1
9	172281	27166.884119234705	0
9	172337	27173.737729366737	1
9	172339	27174.290742733792	0
9	172342	27174.734308809003	1
9	172344	27175.159190647395	0
9	172352	27175.787674736751	1
9	172354	27176.085335642112	0
9	172388	27180.654179206452	1
9	172390	27180.950516197333	0
9	172405	27182.741867126533	1
9	172407	27183.006394186894	0
9	173038	27270.005155260824	1
9	173040	27270.228365243836	0
9	173927	27448.572546228319	1
9	173929	27448.859101652669	0
9	175227	27639.038851266121	1
9	175229	27639.087493218272	0
9	175269	27645.018130436121	1
9	175271	27645.439484563046	0
9	175289	27647.470069535961	1
9	175291	27647.515497886045	0
9	175304	27650.070349716954	1
9	175306	27650.237594251097	0
9	175314	27651.095418602368	1
9	175316	27651.737777547287	0
9	175322	27652.381558300788	1
9	175324	27652.942318388779	0
9	175359	27657.959109876232	1
9	175361	27658.025610205624	0
9	175381	27659.936769583608	1
9	175383	27660.130101211249	0
9	175612	27702.328596865238	1
9	175619	27704.398911663738	0
9	175642	27706.735290272945	1
9	175644	27706.996386648067	0
9	175920	27743.670468996639	1
9	175922	27743.74425050147	0
9	175942	27746.809636814321	1
9	175944	27746.899528694472	0
9	175985	27752.397416970214	1
9	175987	27752.870624120216	0
9	175990	27752.974082465597	1
9	175993	27753.554792058129	2
9	175995	27753.610994007578	1
9	175997	27753.97523137166	0
9	176000	27754.295119514769	1
9	176002	27754.355670387645	0
9	176005	27755.029166020626	1
9	176009	27755.766116310519	0
9	176012	27755.995132919946	1
9	176014	27756.393580156383	0
9	176033	27759.782045619315	1
9	176035	27759.898165858727	0
9	176466	27821.258346215833	1
9	176468	27821.35472639488	0
9	177167	27944.496313248516	1
9	177174	27945.512565977586	0
9	177532	28019.759403676127	1
9	177534	28019.774849575616	0
9	178696	28214.675722299351	1
9	178698	28214.67816613564	0
9	178738	28220.003731612323	1
9	178740	28220.259269604282	0
9	178755	28221.898562766912	1
9	178758	28222.740552279281	2
9	178760	28223.118321355824	1
9	178762	28223.185030384385	0
9	178957	28251.594522194266	1
9	178959	28252.477788727479	0
9	179070	28270.766671851334	1
9	179071	28271.082722518609	0
9	179489	28342.212041913251	1
9	179491	28342.221016390176	0
9	179509	28344.384475488726	1
9	179511	28344.713686335189	0
9	179583	28353.809884557593	1
9	179585	28354.203948718555	0
9	179863	28395.32959719457	1
9	179865	28395.404765192405	0
9	179878	28397.436442401384	1
9	179880	28397.466210943562	0
9	179903	28400.540716377071	1
9	179905	28400.550456020813	0
9	180980	28560.824965351701	1
9	180987	28561.988614038922	0
9	181020	28566.905690585004	1
9	181022	28567.083650300234	0
9	181035	28568.497432862988	1
9	181037	28568.638918410487	0
9	182405	28887.257993121936	1
9	182406	28887.264465153234	0
9	182469	28896.190981884875	1
9	182471	28896.211632197371	0
9	182479	28897.707532948923	1
9	182481	28897.791407219715	0
9	182553	28907.438192617117	1
9	182555	28907.582237888886	0
9	182558	28908.109912962901	1
9	182560	28908.241138741366	0
9	182827	28975.604245930221	1
9	182831	28976.147464255118	0
9	183063	29010.46457202037	1
9	183065	29010.494850400893	0
9	183068	29010.930337094964	1
9	183071	29011.901679370116	2
9	183073	29012.263422656879	1
9	183075	29012.354382486859	0
9	183119	29017.827027244988	1
9	183121	29017.874884469605	0
9	183124	29018.726792431093	1
9	183126	29018.751745281865	0
9	183214	29030.041436380689	1
9	183216	29030.242783039545	0
9	183229	29032.152082597027	1
9	183231	29032.18711239154	0
9	183266	29036.175319674965	1
9	183268	29036.488884611989	0
9	183317	29042.124840343772	1
9	183319	29042.636199198612	0
9	183322	29042.76079354913	1
9	183324	29043.249896516748	0
9	183329	29043.421568567707	1
9	183331	29043.829539325095	0
9	183359	29047.372962618135	1
9	183361	29047.393410024773	0
9	183399	29053.421089301753	1
9	183404	29054.703085506209	0
9	183433	29059.345144104893	1
9	183438	29059.899371614685	0
9	183606	29081.369097794808	1
9	183608	29081.616892698115	0
9	183618	29082.654448756139	1
9	183620	29083.093383917137	0
9	183635	29084.728186492046	1
9	183637	29084.935301120163	0
9	183660	29088.076200786915	1
9	183662	29088.299573216894	0
9	183665	29088.739392332344	1
9	183667	29088.882250547995	0
9	183695	29092.544736329218	1
9	183697	29092.790393241302	0
9	183724	29096.32927992864	1
9	183726	29096.511811318041	0
9	183761	29100.953230156502	1
9	183763	29101.397260050365	0
9	183766	29101.53316604461	1
9	183771	29102.197658221689	2
9	183773	29102.390967805455	1
9	183775	29102.4535231349	0
9	183788	29103.953140562246	1
9	183790	29104.171952664832	0
9	183815	29107.971069505191	1
9	183821	29108.16079331746	0
9	183938	29123.177956724476	1
9	183940	29123.307014353232	0
9	183991	29131.226498342988	1
9	183993	29131.693908087554	0
9	184038	29137.973246527633	1
9	184040	29138.018537366997	0
9	184063	29141.515642091756	1
9	184066	29142.068139373076	2
9	184071	29143.030300561296	1
9	184081	29143.996653905588	2
9	184083	29144.003488756846	1
9	184085	29144.318171161274	0
9	184105	29146.639087196284	1
9	184108	29147.098766260671	2
9	184110	29147.23066666376	1
9	184112	29147.261072920943	0
9	184130	29149.986870948861	1
9	184132	29149.999704992721	0
9	184348	29177.849343594291	1
9	184350	29178.367030916823	0
9	184376	29181.828745596611	1
9	184378	29182.08847880709	0
9	184530	29201.83988639264	1
9	184532	29202.4084468397	0
9	184535	29202.804738244588	1
9	184537	29203.156661847102	0
9	184585	29209.009202913974	1
9	184595	29210.594945692147	0
9	185737	29372.88501916406	1
9	185739	29373.110752458035	0
9	185800	29382.65561667922	1
9	185802	29382.781670965222	0
9	185817	29384.989826425668	1
9	185819	29385.001252602879	0
9	185850	29390.013563107271	1
9	185857	29391.008189717247	0
9	185895	29396.721925909667	1
9	185897	29396.947964664516	0
9	186184	29438.333806586301	1
9	186186	29438.55659161566	0
9	186245	29448.236235253176	1
9	186247	29448.327813316212	0
9	186255	29449.538700821519	1
9	186257	29449.967432553407	0
9	187454	29621.954484323735	1
9	187456	29622.132769036088	0
9	187487	29625.624155479526	1
9	187489	29625.657758079898	0
9	187515	29628.578718443723	1
9	187517	29628.967994139742	0
9	187565	29635.772978932966	1
9	187567	29636.141537852808	0
9	187598	29640.779678385515	1
9	187600	29641.132133860535	0
9	187608	29642.411631305233	1
9	187610	29642.648307124732	0
9	187716	29657.877193444312	1
9	187718	29658.20247627801	0
9	187870	29680.08564092344	1
9	187872	29680.177297358464	0
9	188291	29741.529960017181	1
9	188293	29741.869806756421	0
9	188301	29742.900019781799	1
9	188303	29742.93817272327	0
9	188311	29744.417992124516	1
9	188313	29744.688478307425	0
9	188368	29751.884649749561	1
9	188370	29752.051070365867	0
9	189145	29892.851245147492	1
9	189146	29892.974326669568	0
9	189343	29926.293627842311	1
9	189345	29926.321580843812	0

