version 2
run First_exit_2-2-20191017-13:43:27-1820
attr configname First_exit_2
attr datetime 20191017-13:43:27
attr experiment First_exit_2
attr inifile omnetpp.ini
attr iterationvars ""
attr iterationvarsf ""
attr measurement ""
attr network ResponseTimeNetwork
attr processid 1820
attr repetition 2
attr replication #2
attr resultdir results
attr runnumber 2
attr seedset 2
param **.Source.interArrivalTime exponential(4s)
param **.jobPriority bernoulli(0.4)
param **.PS.serviceTimeU1 "uniform(0.4s, 1.0s)"
param **.PS.serviceTimeU2 "uniform(1s, 1.2s)"
param **.SS1.serviceTime exponential(0.4s)
param **.SS2.serviceTime exponential(0.8s)
param **.PS.exitProbability bernoulli(0.2)

vector 0 ResponseTimeNetwork.SS1 queueLength:vector ETV
attr interpolationmode sample-hold
attr title "queue length, vector"
vector 1 ResponseTimeNetwork.SS2 queueLength:vector ETV
attr interpolationmode sample-hold
attr title "queue length, vector"
vector 2 ResponseTimeNetwork.QueueU1 queueLength:vector ETV
attr interpolationmode sample-hold
attr title "queue length, vector"
vector 3 ResponseTimeNetwork.QueueU2 queueLength:vector ETV
attr interpolationmode sample-hold
attr title "queue length, vector"
vector 4 ResponseTimeNetwork.sink lifeTimeU1:vector ETV
attr interpolationmode none
attr title "lifetime of arrived jobs U1, vector"
attr unit s
vector 5 ResponseTimeNetwork.sink lifeTime:vector ETV
attr interpolationmode none
attr title "lifetime of arrived jobs, vector"
attr unit s
vector 6 ResponseTimeNetwork.sink lifeTimeU2:vector ETV
attr interpolationmode none
attr title "lifetime of arrived jobs U2, vector"
attr unit s
0	0	0	0
0	10365	6625.381261989999	1
0	10366	6625.397899393725	0
0	21265	13606.634108782816	1
0	21269	13607.115664954723	0
0	24495	15724.322722069823	1
0	24496	15725.216397300603	0
0	30560	19338.733148303041	1
0	30561	19339.361772131793	0
1	0	0	0
1	937	588.263539075398	1
1	939	588.725930418558	0
1	6330	3888.69196046615	1
1	6331	3888.768443983503	0
1	12020	7639.423562547829	1
1	12021	7639.442150172753	0
1	14819	9410.378896028654	1
1	14821	9410.787246093274	0
1	17450	10951.880001210253	1
1	17454	10952.979885036691	0
1	19115	12115.783017301576	1
1	19116	12116.206578661445	0
1	21597	13832.785915297977	1
1	21599	13833.630925201854	0
1	23330	15073.095329671132	1
1	23331	15073.097467208613	0
1	23894	15359.682032071936	1
1	23899	15361.103632696148	0
1	25705	16398.696675406303	1
1	25706	16398.831970645723	0
1	25850	16496.040423995579	1
1	25851	16496.176129947471	0
1	31002	19639.160580610672	1
1	31004	19639.566716664257	0
1	32415	20462.852206172962	1
1	32419	20463.92395291048	0
1	35490	22331.069989243361	1
1	35491	22332.276396307369	0
1	35495	22333.055343428693	1
1	35496	22333.676446497518	0
1	38570	24257.900019559847	1
1	38571	24258.071077013965	0
1	41315	25924.65984461588	1
1	41319	25925.084966219029	0
1	41640	26135.24346279607	1
1	41641	26135.265439510169	0
1	41645	26135.89612067529	1
1	41646	26136.705128984363	0
1	43060	27046.362777175352	1
1	43061	27048.61494602578	0
1	43072	27049.904023792206	1
1	43074	27050.13553861244	0
1	43077	27050.349197126303	1
1	43079	27050.378015293024	0
1	43905	27702.752909694167	1
1	43906	27703.892728237139	0
1	45040	28549.351756798356	1
1	45041	28549.873128921223	0
1	45655	28964.42904486319	1
1	45656	28964.98923663623	0
1	46435	29507.154045831044	1
1	46436	29507.463598271522	0
2	0	0	0
2	320	254.927436107697	1
2	321	255.02311465756	0
2	335	256.713868783663	1
2	336	256.892456614721	0
2	405	277.795914360964	1
2	408	277.950339835571	0
2	412	278.391902808159	1
2	413	278.620355868867	0
2	417	278.632691437172	1
2	418	279.546115741615	0
2	424	279.580423447498	1
2	425	280.205549201804	0
2	460	290.237303272357	1
2	462	290.64120046404	2
2	463	290.821040071543	1
2	466	291.730117273234	0
2	625	423.256441913514	1
2	626	423.604064658118	0
2	710	461.885925582453	1
2	711	462.549961405874	0
2	790	493.833418942053	1
2	791	494.219112472408	0
2	855	535.271362517331	1
2	856	535.833693476685	0
2	880	540.09118979044	1
2	881	540.376838889448	0
2	1020	647.986104867308	1
2	1021	648.094823903096	0
2	1045	660.426500344446	1
2	1046	660.543778926982	0
2	1090	689.76072732364	1
2	1091	689.876318344486	0
2	1250	797.02270552732	1
2	1251	797.12768767545	0
2	1270	802.424226614441	1
2	1271	802.735064914544	0
2	1355	861.312132929434	1
2	1356	861.325779095364	0
2	1375	866.951262387545	1
2	1376	867.412430624199	0
2	1385	868.563546004288	1
2	1386	868.768150097473	0
2	1392	869.431933467418	1
2	1393	869.513896316911	0
2	1397	870.215213811301	1
2	1398	870.217649218502	0
2	1407	871.377142134157	1
2	1408	871.699780725564	0
2	1412	871.825542190432	1
2	1414	871.887538105694	2
2	1417	872.384363797742	1
2	1421	872.495698992642	2
2	1422	872.826782019545	1
2	1427	873.77154321849	0
2	1431	873.823058908617	1
2	1432	874.468700516984	0
2	1485	898.051266073864	1
2	1486	898.177240898982	0
2	1490	898.307340795256	1
2	1491	898.922188094221	0
2	1495	898.991379720552	1
2	1496	899.5889971851	0
2	1655	1048.875285092581	1
2	1656	1049.26794929334	0
2	1740	1099.002486615409	1
2	1741	1099.364656207753	0
2	1835	1169.113824561662	1
2	1836	1169.4807072027	0
2	1845	1170.38945852861	1
2	1847	1170.394706450307	2
2	1848	1170.796501814702	1
2	1851	1171.483906765084	0
2	1890	1181.130792942426	1
2	1891	1181.262220203548	0
2	1910	1194.189759555382	1
2	1911	1194.462206335753	0
2	1930	1210.817054691811	1
2	1931	1211.530222864199	0
2	1950	1219.022450819071	1
2	1951	1219.571652032396	0
2	2140	1328.614296699406	1
2	2141	1329.309560924521	0
2	2250	1378.874182926818	1
2	2251	1379.076788366766	0
2	2270	1383.132022096	1
2	2271	1383.478445184257	0
2	2275	1383.947858462666	1
2	2276	1384.179739179256	0
2	2295	1393.495379302867	1
2	2296	1394.033585588364	0
2	2300	1394.2006248071	1
2	2301	1394.868526589321	0
2	2305	1395.436195256068	1
2	2306	1395.437230666829	0
2	2340	1411.152884855029	1
2	2341	1411.548251109281	0
2	2345	1411.689569574348	1
2	2346	1412.352256861226	0
2	2395	1450.343911602103	1
2	2396	1450.50530354435	0
2	2465	1487.50345285082	1
2	2466	1487.516113165289	0
2	2490	1503.410034239824	1
2	2491	1503.506166224434	0
2	2580	1561.908797856254	1
2	2581	1562.286104405109	0
2	2685	1615.51256146319	1
2	2686	1616.08001362372	0
2	2710	1625.02947441079	1
2	2711	1625.97755974458	0
2	2735	1641.432193428637	1
2	2736	1641.664166790436	0
2	2830	1695.612881224777	1
2	2831	1695.857219260839	0
2	2870	1719.32676617816	1
2	2871	1719.774382057465	0
2	2935	1780.768259442251	1
2	2936	1781.199603387705	0
2	2970	1822.123232692896	1
2	2971	1822.772869076736	0
2	2990	1827.933365906793	1
2	2993	1828.626542929563	0
2	3000	1830.252462121032	1
2	3001	1830.273265788056	0
2	3060	1900.664743970968	1
2	3061	1900.908416715468	0
2	3235	2020.847194721225	1
2	3236	2021.443576402719	0
2	3300	2084.893629282191	1
2	3301	2084.999525493157	0
2	3305	2085.732492705945	1
2	3306	2085.914417556354	0
2	3345	2107.099099364405	1
2	3346	2107.160611636625	0
2	3370	2116.870463328859	1
2	3373	2117.078215387086	0
2	3410	2138.234265967481	1
2	3411	2139.144021810701	0
2	3425	2141.559113532239	1
2	3426	2142.185958194617	0
2	3490	2201.74183499688	1
2	3491	2201.9033220531	0
2	3560	2250.180232288926	1
2	3561	2250.358265481544	0
2	3627	2271.531399932042	1
2	3628	2271.852303822001	0
2	3760	2356.223909828263	1
2	3761	2356.905485333988	0
2	3795	2371.240760422061	1
2	3798	2371.51357749652	0
2	3835	2389.555309652847	1
2	3836	2389.815287603733	0
2	3902	2428.594867725514	1
2	3903	2428.793132262972	0
2	3910	2429.922227688196	1
2	3912	2430.156572186664	2
2	3913	2430.536858674108	1
2	3916	2431.453897301636	0
2	3965	2460.257763319217	1
2	3966	2460.83961257369	0
2	3975	2462.00307523275	1
2	3976	2462.226500512498	0
2	4020	2489.387627265995	1
2	4022	2489.431943553049	2
2	4023	2490.096876786339	1
2	4026	2490.643591976182	0
2	4070	2511.410818916366	1
2	4071	2512.051175524047	0
2	4105	2520.636501615561	1
2	4106	2521.199252901686	0
2	4120	2526.427427904167	1
2	4121	2526.754328967847	0
2	4295	2673.466217054503	1
2	4296	2674.256709341443	0
2	4455	2770.686156626047	1
2	4456	2770.706715494333	0
2	4485	2782.160807207847	1
2	4486	2782.93740719965	0
2	4495	2783.758842277403	1
2	4496	2784.270503024694	0
2	4540	2822.654296689133	1
2	4541	2823.025957524496	0
2	4590	2860.155204067085	1
2	4591	2860.726762069601	0
2	4645	2880.058008532963	1
2	4646	2880.500628140319	0
2	4705	2918.220622906774	1
2	4706	2918.935129716329	0
2	4755	2944.66908252175	1
2	4756	2945.344355160771	0
2	4915	3044.46967042754	1
2	4916	3045.060013943341	0
2	4920	3045.703847188657	1
2	4921	3045.781710265426	0
2	5000	3112.68004323028	1
2	5001	3112.889086713071	0
2	5025	3124.911706706697	1
2	5026	3125.443427677092	0
2	5060	3145.842252022696	1
2	5061	3146.235824987831	0
2	5090	3162.243300080035	1
2	5091	3162.476059232734	0
2	5150	3204.962638865761	1
2	5151	3205.332578529871	0
2	5165	3220.620262494134	1
2	5166	3220.626407915878	0
2	5210	3237.793239637277	1
2	5211	3238.382686363232	0
2	5240	3267.190981643466	1
2	5241	3267.635754740651	0
2	5250	3273.956943536848	1
2	5251	3274.444632930872	0
2	5315	3327.478799236071	1
2	5316	3328.259863193555	0
2	5470	3424.54030045442	1
2	5471	3425.014568417113	0
2	5735	3559.009652857049	1
2	5738	3559.16776114981	0
2	5755	3564.683643179437	1
2	5756	3565.338688023531	0
2	5845	3627.316142133621	1
2	5846	3627.476655637273	0
2	5855	3629.500707744737	1
2	5856	3629.638812933431	0
2	5880	3646.725097123055	1
2	5881	3647.093540470675	0
2	5930	3683.319536997456	1
2	5931	3683.508564287243	0
2	5970	3723.335796688895	1
2	5971	3723.342885124764	0
2	5975	3723.67892505304	1
2	5976	3724.053430452604	0
2	6015	3736.65903186111	1
2	6018	3736.87456631557	0
2	6065	3761.763071710193	1
2	6066	3762.025508517667	0
2	6070	3762.294196303372	1
2	6071	3762.745936731004	0
2	6105	3783.313497637176	1
2	6106	3783.777070329694	0
2	6155	3810.49042866111	1
2	6158	3811.2350130084	0
2	6162	3811.274706293107	1
2	6163	3811.961381581708	0
2	6167	3811.97381801611	1
2	6168	3812.655084997838	0
2	6177	3813.289615488124	1
2	6178	3813.827714668125	0
2	6190	3816.756483601367	1
2	6191	3816.937791666304	0
2	6235	3838.421258391599	1
2	6236	3839.029229873889	0
2	6300	3877.591736060886	1
2	6301	3877.881484208035	0
2	6405	3958.223324437145	1
2	6406	3958.512600395001	0
2	6610	4077.311679990485	1
2	6613	4078.057254168464	0
2	6620	4079.054887641076	1
2	6621	4079.44026186222	0
2	6660	4105.190200049312	1
2	6661	4105.574512214204	0
2	6705	4160.21533886753	1
2	6706	4160.824988141898	0
2	6740	4178.251949413379	1
2	6741	4178.711404387244	0
2	6780	4209.641796473501	1
2	6781	4210.041432910109	0
2	6860	4261.169681627976	1
2	6861	4261.567609476859	0
2	6865	4262.20912628097	1
2	6868	4262.264340138717	0
2	6900	4276.499517977623	1
2	6901	4277.132538680554	0
2	6987	4351.99808741762	1
2	6988	4352.045782959327	0
2	6992	4352.05400200129	1
2	6993	4352.744049594045	0
2	7040	4382.913051396292	1
2	7041	4383.517876259311	0
2	7095	4432.720365001779	1
2	7098	4433.342156707487	0
2	7105	4434.54217681782	1
2	7106	4434.718132241108	0
2	7190	4462.181029400269	1
2	7191	4463.061441035849	0
2	7200	4464.229491767728	1
2	7201	4465.154929924548	0
2	7255	4493.84180199898	1
2	7256	4494.059881478359	0
2	7270	4498.366111491775	1
2	7271	4498.925695055379	0
2	7350	4553.298468397469	1
2	7351	4554.028587545102	0
2	7355	4554.08598985166	1
2	7356	4554.979027846522	0
2	7360	4555.259881331789	1
2	7361	4555.401116478556	0
2	7420	4633.150743230662	1
2	7421	4633.368505249722	0
2	7440	4638.444620550711	1
2	7441	4638.770150803707	0
2	7540	4710.310638569062	1
2	7541	4710.553924329115	0
2	7595	4729.063517435121	1
2	7596	4729.505810703651	0
2	7655	4749.251165157176	1
2	7656	4749.915071603185	0
2	7792	4844.652766804098	1
2	7793	4844.742134784124	0
2	7870	4909.895992412133	1
2	7871	4910.657370771128	0
2	7925	4985.729282171451	1
2	7926	4986.118940373239	0
2	8035	5053.078689583937	1
2	8036	5053.664538461377	0
2	8042	5053.991826216554	1
2	8043	5054.214716218772	0
2	8050	5055.38138009404	1
2	8051	5055.527885829226	0
2	8105	5100.253279903911	1
2	8108	5100.441020003808	0
2	8230	5177.866274603459	1
2	8231	5178.054263712091	0
2	8535	5380.612920500862	1
2	8536	5380.91674300922	0
2	8715	5483.76881217158	1
2	8716	5484.179934074006	0
2	8720	5484.347964159294	1
2	8721	5484.850057598784	0
2	8740	5496.308771484779	1
2	8741	5496.410139751761	0
2	8795	5531.95198401371	1
2	8798	5532.400461152836	0
2	8945	5635.334614991483	1
2	8946	5635.7322925964	0
2	8995	5655.511609007793	1
2	8996	5656.242162600491	0
2	9000	5656.568923905028	1
2	9001	5656.941337630391	0
2	9015	5667.645176692829	1
2	9016	5668.319178570068	0
2	9065	5699.743927052234	1
2	9066	5699.926599200296	0
2	9150	5763.933577803518	1
2	9151	5764.405345521245	0
2	9180	5773.356824744612	1
2	9181	5773.660335479524	0
2	9200	5785.004545252361	1
2	9201	5785.448183145561	0
2	9225	5798.756641978264	1
2	9226	5799.026969851843	0
2	9230	5799.592402413774	1
2	9231	5800.000953202798	0
2	9245	5806.269988807516	1
2	9246	5806.575192421825	0
2	9385	5916.709564335292	1
2	9386	5917.455682470684	0
2	9435	5958.012332027587	1
2	9437	5958.496630749109	2
2	9438	5958.573739703189	1
2	9443	5959.273732559852	0
2	9465	5977.729201980296	1
2	9466	5977.949488140462	0
2	9525	6016.54961300981	1
2	9526	6016.804596042521	0
2	9530	6017.206583632821	1
2	9531	6017.456101341853	0
2	9590	6064.540025839333	1
2	9591	6064.699814396599	0
2	9595	6064.717685019218	1
2	9598	6065.285589862071	0
2	9602	6065.421067382616	1
2	9603	6065.773912883891	0
2	9745	6182.908483212418	1
2	9747	6183.219708337856	2
2	9748	6183.284788351741	1
2	9751	6183.938055575455	0
2	9820	6226.127262761949	1
2	9821	6226.502792503353	0
2	9935	6304.974763700025	1
2	9936	6305.347973256163	0
2	10050	6397.173321197566	1
2	10051	6397.543620945684	0
2	10070	6405.389545558685	1
2	10071	6405.584574298062	0
2	10190	6500.765495886941	1
2	10191	6500.933297778682	0
2	10230	6541.844299513801	1
2	10231	6542.403505871038	0
2	10245	6548.365865215011	1
2	10246	6548.940208827064	0
2	10350	6621.415355381491	1
2	10351	6622.098682924708	0
2	10355	6622.135436907742	1
2	10356	6622.542603987384	0
2	10370	6625.593617194264	1
2	10371	6625.899529408232	0
2	10430	6673.486630119951	1
2	10431	6673.689794495098	0
2	10435	6673.811587414675	1
2	10436	6674.410383012613	0
2	10440	6674.489934089124	1
2	10441	6675.195000354528	0
2	10465	6683.731316290242	1
2	10468	6684.376576670666	0
2	10477	6685.374406511482	1
2	10478	6685.986646306177	0
2	10675	6842.790172392851	1
2	10676	6843.459722466637	0
2	10695	6849.332643464467	1
2	10696	6849.444231673177	0
2	10730	6877.807012161288	1
2	10731	6878.622601299211	0
2	10735	6879.475999326969	1
2	10736	6879.579673153851	0
2	10805	6925.70922450553	1
2	10806	6925.840374382605	0
2	10902	6975.022894580715	1
2	10903	6975.261943247493	0
2	10970	7021.203977497589	1
2	10972	7021.48101096588	2
2	10973	7021.520918699627	1
2	10977	7021.968641689488	2
2	10980	7022.352691463561	1
2	10983	7023.019145237462	0
2	10995	7027.39164062797	1
2	10996	7027.991174221395	0
2	11045	7039.982626184656	1
2	11046	7040.48394465611	0
2	11050	7040.838708072082	1
2	11051	7041.421899596291	0
2	11087	7066.221323097621	1
2	11088	7066.874901730849	0
2	11092	7067.029882726495	1
2	11093	7067.511098254614	0
2	11207	7129.421506293867	1
2	11208	7129.863577740686	0
2	11230	7139.919072586491	1
2	11231	7140.530954756608	0
2	11267	7152.90097095258	1
2	11268	7153.095585465574	0
2	11285	7160.866318612893	1
2	11286	7161.44810956575	0
2	11317	7176.041323891949	1
2	11318	7176.076718210742	0
2	11327	7176.997998218925	1
2	11329	7177.284345574754	2
2	11330	7177.835865314851	1
2	11333	7178.513084575801	0
2	11337	7179.094784449528	1
2	11338	7179.193538598564	0
2	11370	7192.73681920354	1
2	11373	7193.619089207585	0
2	11495	7283.524418965905	1
2	11496	7283.657378680428	0
2	11505	7284.691725182515	1
2	11506	7285.347723973804	0
2	11510	7285.990795346912	1
2	11511	7286.2648003456	0
2	11605	7364.982515279615	1
2	11606	7365.106586243829	0
2	11665	7401.865214703825	1
2	11666	7402.686622302918	0
2	11675	7404.015750627233	1
2	11676	7404.41204120336	0
2	11815	7519.60296439203	1
2	11816	7519.965848312104	0
2	11830	7523.617856981491	1
2	11831	7523.706576072019	0
2	11855	7530.601894658062	1
2	11856	7531.195012415395	0
2	11945	7603.713491947715	1
2	11946	7604.167664712926	0
2	11995	7633.50281391334	1
2	11996	7633.559701425262	0
2	12027	7639.834818249951	1
2	12028	7639.955860718362	0
2	12075	7662.906111379193	1
2	12076	7663.354926670194	0
2	12090	7664.888357046133	1
2	12091	7665.28286613057	0
2	12190	7749.172053142646	1
2	12192	7749.529527412736	2
2	12193	7750.077405666382	1
2	12196	7750.540007816822	0
2	12225	7758.096029125738	1
2	12226	7758.252324874441	0
2	12405	7883.620976476489	1
2	12406	7883.814179981351	0
2	12440	7899.586362946565	1
2	12442	7899.653985674483	2
2	12443	7899.950977362109	1
2	12446	7900.913456411123	0
2	12480	7922.177385377547	1
2	12483	7922.751014554297	0
2	12515	7937.961859719557	1
2	12518	7938.302988101048	0
2	12525	7939.224677600109	1
2	12526	7940.021563098924	0
2	12530	7940.372308273486	1
2	12531	7940.85874746304	0
2	12545	7942.584405783152	1
2	12546	7943.142455402677	0
2	12770	8115.515468748589	1
2	12771	8116.079283922443	0
2	12780	8117.938258852957	1
2	12783	8118.659987384471	0
2	12825	8136.07966975105	1
2	12826	8136.384198507916	0
2	12830	8136.913951859034	1
2	12831	8136.972652720677	0
2	12990	8254.020710776589	1
2	12991	8254.714741048168	0
2	13040	8294.795039265337	1
2	13041	8295.391207989246	0
2	13052	8295.936436346866	1
2	13053	8296.442820711887	0
2	13125	8340.038179239186	1
2	13126	8340.857573909129	0
2	13180	8390.187948961886	1
2	13184	8390.624156517814	2
2	13185	8390.771045955066	1
2	13188	8391.428778561978	0
2	13192	8391.822867917096	1
2	13193	8392.060512753837	0
2	13245	8422.535518328517	1
2	13246	8422.683458535952	0
2	13285	8440.645777098291	1
2	13286	8440.982951042117	0
2	13560	8652.351992362864	1
2	13561	8652.380846991666	0
2	13615	8705.283983831693	1
2	13616	8706.032528703851	0
2	13700	8777.453095837611	1
2	13701	8777.745341137867	0
2	13705	8778.21551830439	1
2	13706	8778.335525468761	0
2	13710	8779.02757410959	1
2	13711	8779.139987314843	0
2	13790	8838.039796605155	1
2	13791	8838.361858092044	0
2	13800	8839.55978237563	1
2	13801	8839.860778394713	0
2	13840	8853.800277514577	1
2	13841	8854.041485801453	0
2	13845	8854.338165378578	1
2	13846	8854.534208552979	0
2	13850	8854.681325444305	1
2	13851	8855.310907914417	0
2	13950	8879.99890341994	1
2	13951	8880.623800983487	0
2	14000	8915.999772517468	1
2	14001	8916.629260310577	0
2	14015	8923.114609147094	1
2	14016	8923.454626574133	0
2	14045	8946.430994785498	1
2	14046	8946.714606781757	0
2	14100	8978.841440521321	1
2	14101	8979.217565168637	0
2	14235	9095.599248099357	1
2	14236	9095.639084065559	0
2	14270	9105.16450134527	1
2	14271	9105.792795169449	0
2	14400	9220.340420364881	1
2	14401	9221.024831507056	0
2	14480	9263.590631892186	1
2	14481	9264.205422641353	0
2	14525	9279.126119786914	1
2	14526	9279.974514567044	0
2	14535	9283.930149028712	1
2	14536	9284.546874428779	0
2	14680	9352.551133311161	1
2	14682	9352.681064941765	2
2	14683	9352.95229675117	1
2	14686	9353.931501334617	0
2	14765	9389.252761858958	1
2	14766	9389.413020156504	0
2	14780	9393.283369330702	1
2	14781	9393.335542283211	0
2	14817	9410.207009171996	1
2	14818	9410.378896028654	0
2	14829	9411.377611849392	1
2	14830	9412.130884701212	0
2	14870	9427.198294978542	1
2	14871	9427.269842588095	0
2	14945	9498.751220480215	1
2	14946	9499.482069997287	0
2	15070	9608.982931220218	1
2	15071	9609.054254757201	0
2	15122	9638.848506692484	1
2	15123	9638.875448897426	0
2	15275	9729.000900984399	1
2	15276	9729.517381471318	0
2	15455	9810.270473712607	1
2	15456	9810.38815795146	0
2	15460	9810.980518172502	1
2	15461	9811.280661385926	0
2	15480	9814.271274306071	1
2	15481	9814.456321895575	0
2	15495	9816.457913573707	1
2	15496	9817.042501210855	0
2	15525	9841.353232479914	1
2	15528	9841.853786016892	0
2	15535	9843.114453363483	1
2	15536	9843.15669473939	0
2	15575	9860.448468929652	1
2	15578	9861.328291273283	0
2	15595	9864.081781396306	1
2	15596	9864.121339322264	0
2	15645	9912.433137961861	1
2	15646	9912.754168224359	0
2	15732	9990.410188458243	1
2	15733	9990.653818907647	0
2	15755	9998.013431012963	1
2	15756	9998.063140091924	0
2	15800	10019.245290526763	1
2	15801	10019.822935406033	0
2	15925	10095.192199079114	1
2	15927	10095.634963090022	2
2	15928	10095.891966568921	1
2	15931	10096.471142575341	0
2	15935	10096.603445467099	1
2	15936	10096.957507668259	0
2	15975	10136.543360895032	1
2	15976	10136.928033990453	0
2	16067	10211.4344815538	1
2	16068	10211.565979212755	0
2	16080	10219.082521837157	1
2	16081	10219.595917069697	0
2	16085	10219.913663473615	1
2	16086	10220.029554623896	0
2	16090	10220.048413913468	1
2	16091	10220.897778737284	0
2	16102	10227.768128911218	1
2	16103	10228.013722464883	0
2	16115	10229.393461376791	1
2	16116	10229.864080211029	0
2	16147	10239.625745685201	1
2	16148	10239.918744628535	0
2	16155	10241.266303726425	1
2	16156	10241.293069344511	0
2	16200	10272.724134958623	1
2	16203	10273.158953800084	0
2	16220	10277.117641699228	1
2	16221	10277.624969334317	0
2	16225	10278.282289936594	1
2	16226	10278.400981212336	0
2	16280	10296.432190182762	1
2	16281	10296.565835041466	0
2	16325	10307.489374256597	1
2	16326	10307.84718880788	0
2	16380	10341.161197826802	1
2	16381	10341.30363118297	0
2	16395	10344.624689293574	1
2	16396	10344.775785155762	0
2	16472	10404.804222139115	1
2	16473	10405.43712871251	0
2	16477	10406.036046798656	1
2	16478	10406.419814147095	0
2	16540	10461.8655938978	1
2	16541	10462.174496068104	0
2	16610	10482.874946417895	1
2	16611	10483.67230408026	0
2	16620	10484.442946951203	1
2	16622	10484.839622057693	2
2	16623	10484.852688947256	1
2	16626	10485.691504907078	0
2	16820	10601.123751151935	1
2	16821	10601.245811631835	0
2	16910	10670.692731733206	1
2	16911	10670.87747346544	0
2	16960	10701.640781829889	1
2	16961	10702.444377361312	0
2	17005	10724.015906913328	1
2	17006	10724.896552709782	0
2	17030	10746.125060135001	1
2	17031	10746.642680983243	0
2	17227	10849.634130564602	1
2	17228	10850.099430663137	0
2	17250	10855.756968651912	1
2	17251	10856.186395592408	0
2	17265	10863.668849878334	1
2	17266	10863.715354292986	0
2	17315	10886.56696007032	1
2	17316	10886.824154551501	0
2	17330	10898.67246644988	1
2	17333	10899.397069636889	0
2	17357	10910.634638044371	1
2	17358	10911.046293468025	0
2	17369	10912.092627401245	1
2	17370	10912.777144675047	0
2	17520	11002.599473327888	1
2	17521	11002.687499295788	0
2	17525	11002.734636342859	1
2	17526	11003.409039451003	0
2	17530	11003.886012092089	1
2	17531	11003.960305738224	0
2	17625	11099.646992044636	1
2	17627	11100.372575757293	2
2	17628	11100.430280739936	1
2	17631	11100.952541249507	0
2	17690	11161.516285770338	1
2	17691	11161.728521031252	0
2	17725	11172.083706144414	1
2	17726	11172.521841392868	0
2	17865	11301.166247920846	1
2	17866	11301.190129630103	0
2	17880	11317.377572134679	1
2	17881	11317.774771803138	0
2	17935	11355.360224648752	1
2	17936	11356.135354032697	0
2	17975	11371.261648722974	1
2	17976	11371.863735965504	0
2	18105	11461.808770949728	1
2	18106	11462.524234102701	0
2	18155	11483.986354827842	1
2	18156	11484.137500269926	0
2	18210	11559.745948131413	1
2	18211	11560.568880542645	0
2	18277	11577.694174738472	1
2	18278	11578.238684620915	0
2	18285	11579.083529084546	1
2	18286	11579.42934342839	0
2	18305	11596.954622068897	1
2	18306	11597.854711368143	0
2	18505	11740.639734644484	1
2	18507	11741.031948089362	2
2	18508	11741.549784324904	1
2	18511	11742.186956731723	0
2	18595	11790.17471858267	1
2	18596	11790.666839680795	0
2	18645	11827.989532687442	1
2	18646	11828.101360296154	0
2	18795	11951.335355975794	1
2	18796	11951.460200213972	0
2	18885	11981.474359337393	1
2	18888	11982.151824171743	0
2	18910	12020.359622120916	1
2	18911	12020.629973490088	0
2	18942	12037.428824216773	1
2	18943	12037.578319639466	0
2	18965	12050.236017616348	1
2	18966	12050.481780737917	0
2	18970	12050.71498403339	1
2	18971	12051.055943821416	0
2	18990	12059.603305423785	1
2	18991	12059.850855284044	0
2	19007	12061.314895076096	1
2	19008	12061.340814320603	0
2	19015	12063.100587926167	1
2	19016	12063.208717583399	0
2	19045	12068.589704147222	1
2	19046	12068.829514458829	0
2	19055	12074.696417050074	1
2	19056	12075.24068510552	0
2	19195	12174.368308776008	1
2	19196	12174.468507608391	0
2	19230	12209.164370713305	1
2	19231	12209.704873370982	0
2	19249	12214.103604047158	1
2	19250	12214.23046004756	0
2	19380	12294.515301300051	1
2	19381	12295.157534969586	0
2	19510	12405.006424860105	1
2	19511	12405.26299284578	0
2	19550	12441.955190023338	1
2	19551	12442.156393226689	0
2	19555	12442.215415224906	1
2	19556	12442.72664101984	0
2	19560	12442.923859280009	1
2	19561	12443.272424775582	0
2	19570	12444.345483643427	1
2	19571	12444.498456900534	0
2	19660	12494.655703431222	1
2	19661	12494.773343341057	0
2	19670	12496.838354256702	1
2	19671	12497.420764206287	0
2	19740	12545.342902758383	1
2	19741	12545.616970528222	0
2	19760	12557.023191392075	1
2	19761	12557.4972913819	0
2	19770	12559.391682469541	1
2	19771	12559.516078780616	0
2	19805	12586.413908112583	1
2	19806	12586.599630439044	0
2	19910	12678.085915209493	1
2	19911	12678.495805408185	0
2	20075	12811.993014805732	1
2	20076	12812.596086663898	0
2	20080	12812.634113157811	1
2	20081	12813.234909228427	0
2	20085	12813.662497548538	1
2	20086	12814.180384708294	0
2	20155	12863.822340510838	1
2	20156	12863.923289173416	0
2	20160	12864.406977597954	1
2	20161	12864.844977696094	0
2	20165	12864.916876380114	1
2	20166	12865.348420098511	0
2	20305	12934.472279235518	1
2	20306	12935.210148260334	0
2	20430	13011.402332177388	1
2	20431	13011.503556659961	0
2	20525	13071.840110329973	1
2	20526	13072.635879054807	0
2	20545	13081.426819054015	1
2	20546	13081.824247006142	0
2	20650	13165.370206023741	1
2	20651	13165.506910847907	0
2	20665	13171.179849832474	1
2	20666	13171.527963662748	0
2	20675	13172.577018783099	1
2	20676	13172.921179788258	0
2	20680	13173.177827366026	1
2	20681	13173.707316619461	0
2	20795	13292.04293875477	1
2	20796	13292.373328046015	0
2	20840	13312.06141875913	1
2	20841	13312.418621821998	0
2	20990	13423.654653565724	1
2	20991	13423.708758334029	0
2	20995	13424.457765817756	1
2	20996	13424.677221454918	0
2	21085	13492.287863692445	1
2	21086	13492.624579597636	0
2	21145	13520.804202159364	1
2	21146	13521.084874327101	0
2	21230	13583.205337159176	1
2	21231	13583.902339664104	0
2	21260	13605.41132432521	1
2	21261	13606.099703127588	0
2	21270	13607.115664954723	1
2	21272	13607.31509209642	2
2	21273	13607.705820038929	1
2	21277	13607.895452202186	2
2	21280	13608.572876389618	1
2	21283	13609.193629336418	0
2	21334	13642.776857305303	1
2	21335	13642.993370643215	0
2	21375	13679.489633321823	1
2	21376	13679.820545211647	0
2	21460	13712.176059098644	1
2	21461	13712.349930231899	0
2	21505	13761.229559504803	1
2	21506	13761.507184198382	0
2	21595	13832.477849177105	1
2	21596	13832.785915297977	0
2	21610	13834.747266834473	1
2	21611	13834.981343275923	0
2	21725	13917.262643966558	1
2	21726	13918.059725468967	0
2	21760	13932.121174888188	1
2	21761	13932.507795332379	0
2	21780	13936.933842291023	1
2	21781	13937.493272842127	0
2	21860	14017.296405402846	1
2	21862	14017.695836423053	2
2	21863	14017.844566113466	1
2	21866	14018.80397910379	0
2	21870	14019.049339446899	1
2	21871	14019.271624651236	0
2	21875	14019.384053563327	1
2	21876	14019.814220278302	0
2	21880	14019.910191212894	1
2	21883	14020.703886323992	0
2	21910	14040.409472322019	1
2	21913	14041.050090673227	0
2	22015	14084.336948831084	1
2	22017	14084.422816127728	2
2	22018	14084.78885699655	1
2	22021	14085.307191911061	0
2	22167	14201.618757089588	1
2	22168	14202.264069991398	0
2	22215	14233.121857404417	1
2	22216	14233.973028004657	0
2	22250	14265.485171277522	1
2	22251	14265.84182214786	0
2	22360	14329.143834962513	1
2	22361	14329.672299323353	0
2	22435	14381.281723430987	1
2	22438	14382.165993869433	0
2	22520	14415.627089141231	1
2	22521	14416.105016205971	0
2	22775	14618.678081997856	1
2	22776	14618.857837346337	0
2	22915	14730.154558841407	1
2	22916	14731.070024564653	0
2	22990	14794.381852419866	1
2	22991	14794.685555419981	0
2	23000	14799.599053812158	1
2	23001	14800.194402127743	0
2	23125	14915.275173525716	1
2	23126	14915.829098261686	0
2	23240	14994.031268564523	1
2	23241	14994.625350947124	0
2	23250	14996.466347219032	1
2	23251	14996.925257956991	0
2	23345	15076.169253970766	1
2	23346	15076.68438846247	0
2	23355	15078.311759774697	1
2	23356	15078.577145504159	0
2	23405	15107.468077209007	1
2	23406	15107.823634466652	0
2	23415	15108.788614520302	1
2	23416	15109.296626216982	0
2	23420	15109.865247750398	1
2	23421	15109.891619472735	0
2	23445	15118.09567243258	1
2	23446	15118.355500810456	0
2	23540	15156.938021586654	1
2	23543	15157.411439405997	0
2	23547	15157.950403837389	1
2	23548	15158.29517979106	0
2	23555	15159.535752508202	1
2	23556	15159.662479586351	0
2	23575	15162.806539976352	1
2	23576	15163.293044910211	0
2	23630	15186.247447546189	1
2	23631	15186.384640561608	0
2	23720	15264.007368899671	1
2	23721	15264.513654362865	0
2	23740	15273.663454459818	1
2	23741	15274.135052309134	0
2	23750	15282.735762371841	1
2	23753	15283.123722497711	0
2	23759	15283.204828072929	1
2	23760	15283.657396267924	0
2	23764	15283.853074104902	1
2	23766	15284.565539242655	2
2	23767	15284.572137380728	1
2	23770	15284.975848955625	0
2	23815	15306.603024152893	1
2	23816	15307.049342439719	0
2	23987	15417.345981649265	1
2	23988	15417.36452982194	0
2	23995	15418.32003479411	1
2	23996	15418.922457306517	0
2	24000	15419.151472320406	1
2	24004	15419.754632633846	2
2	24005	15419.759872111782	1
2	24008	15420.165821323601	0
2	24012	15420.448120859521	1
2	24013	15421.088026949774	0
2	24020	15421.780648129663	1
2	24021	15422.147297008393	0
2	24120	15495.602233708087	1
2	24121	15496.374882942679	0
2	24130	15497.63040117639	1
2	24131	15498.258501481765	0
2	24215	15564.550233279096	1
2	24216	15564.712676513935	0
2	24220	15565.008397795505	1
2	24221	15565.369660135353	0
2	24225	15565.758527859176	1
2	24226	15565.854471504496	0
2	24240	15570.021699325034	1
2	24241	15570.144573121478	0
2	24300	15613.25622574949	1
2	24301	15613.90147305141	0
2	24330	15636.337709220523	1
2	24331	15636.904154218441	0
2	24410	15692.769328871928	1
2	24411	15693.592206925109	0
2	24422	15694.810845854261	1
2	24423	15695.10519427648	0
2	24490	15723.764123793869	1
2	24491	15723.874672536223	0
2	24500	15725.526981307934	1
2	24501	15725.67165883771	0
2	24520	15743.086450288712	1
2	24521	15743.171141036552	0
2	24545	15747.805964424777	1
2	24546	15748.394978525327	0
2	24632	15793.210570440284	1
2	24633	15793.51519895889	0
2	24790	15919.315031565624	1
2	24791	15919.481095575035	0
2	24940	16015.076283062752	1
2	24941	16015.14896035811	0
2	24950	16024.559709007718	1
2	24951	16025.00801646014	0
2	24955	16025.198101564588	1
2	24956	16025.772328005575	0
2	24965	16027.347397644858	1
2	24966	16027.545257665025	0
2	24970	16027.774148477254	1
2	24973	16028.198771293363	0
2	24977	16028.525616003227	1
2	24978	16028.86771792741	0
2	24995	16032.981274478308	1
2	24996	16033.581159142376	0
2	25045	16047.002403973609	1
2	25046	16047.336397075835	0
2	25170	16113.574025565188	1
2	25171	16113.625106020692	0
2	25180	16116.387948036116	1
2	25181	16116.708332988666	0
2	25465	16302.786463842408	1
2	25466	16303.115897883275	0
2	25500	16325.172987616469	1
2	25501	16325.390618545968	0
2	25560	16353.567362842301	1
2	25561	16354.180257151726	0
2	25590	16367.537892466904	1
2	25591	16367.572127952152	0
2	25620	16372.395551523853	1
2	25621	16372.440708707576	0
2	25627	16372.627258105736	1
2	25628	16373.071192912641	0
2	25642	16375.077672563417	1
2	25643	16375.267199189251	0
2	25650	16376.060614631777	1
2	25653	16376.399127501285	0
2	25820	16473.095097666619	1
2	25821	16473.56684832388	0
2	25900	16532.251406246077	1
2	25901	16532.746651431437	0
2	25980	16576.540470647226	1
2	25981	16576.624241044526	0
2	26020	16604.230173668338	1
2	26021	16604.46920872533	0
2	26045	16610.189323383054	1
2	26046	16610.324091141713	0
2	26155	16663.481011054422	1
2	26156	16663.653265722375	0
2	26355	16811.098912743069	1
2	26356	16811.168178581177	0
2	26375	16827.542511107518	1
2	26376	16827.970886642781	0
2	26415	16849.224332153978	1
2	26416	16849.430717811654	0
2	26452	16867.665129940276	1
2	26453	16868.348903013626	0
2	26485	16889.239979183167	1
2	26486	16889.79162054667	0
2	26495	16891.129048682051	1
2	26496	16891.195299992357	0
2	26500	16891.753425232245	1
2	26501	16892.101451851586	0
2	26505	16892.88322398105	1
2	26506	16892.938512511524	0
2	26515	16897.262552442156	1
2	26518	16897.92892127258	0
2	26560	16914.869406538569	1
2	26563	16915.018039884608	0
2	26620	16940.034380627522	1
2	26621	16940.291381786108	0
2	26680	16998.772117614633	1
2	26681	16998.886819521397	0
2	26690	16999.586550029825	1
2	26691	17000.122006213044	0
2	26775	17036.316350609484	1
2	26778	17036.810009461773	0
2	26787	17038.097849975817	1
2	26788	17038.369375799076	0
2	26792	17038.498447093569	1
2	26793	17038.91201391834	0
2	26880	17117.196274101132	1
2	26881	17117.236021221255	0
2	26892	17118.209255949313	1
2	26893	17118.834588759125	0
2	26910	17120.921720816217	1
2	26911	17121.39045491833	0
2	27005	17192.261282005983	1
2	27006	17193.240438563565	0
2	27190	17316.420073827275	1
2	27191	17317.296490774399	0
2	27320	17396.743951473939	1
2	27321	17397.214711695459	0
2	27335	17402.556846896812	1
2	27336	17402.877085347931	0
2	27545	17526.394448619263	1
2	27546	17526.759379770317	0
2	27565	17540.690151605021	1
2	27566	17541.13910582982	0
2	27585	17548.880308969684	1
2	27586	17548.930305866493	0
2	27725	17631.04734947914	1
2	27726	17631.0735425385	0
2	27730	17631.538012519931	1
2	27731	17631.67401851642	0
2	27795	17648.969814648736	1
2	27796	17649.413204918232	0
2	27895	17724.586177606112	1
2	27896	17725.421928184461	0
2	27960	17771.358286103035	1
2	27961	17771.825154321819	0
2	27965	17772.475949713698	1
2	27966	17772.799278370702	0
2	27975	17782.185024630604	1
2	27976	17782.616364816712	0
2	28075	17843.11097963815	1
2	28076	17843.370007919435	0
2	28110	17873.975855734512	1
2	28111	17874.370384837546	0
2	28155	17900.95773666463	1
2	28156	17901.197789850719	0
2	28170	17908.090322390371	1
2	28171	17908.315718649964	0
2	28280	17980.118114585861	1
2	28281	17980.707928151688	0
2	28300	17995.826218506072	1
2	28301	17996.331825893663	0
2	28305	17996.343498043435	1
2	28306	17996.965155615296	0
2	28400	18043.196601443618	1
2	28401	18043.824595091703	0
2	28415	18046.032302057018	1
2	28416	18046.08210015987	0
2	28425	18046.723437323347	1
2	28427	18047.335241140304	2
2	28428	18047.505905540715	1
2	28431	18048.484936750363	0
2	28645	18214.831619784465	1
2	28646	18214.878907601552	0
2	28690	18244.960971343653	1
2	28691	18245.18275514935	0
2	28720	18252.581722651805	1
2	28721	18252.611563971555	0
2	28730	18253.976348928411	1
2	28731	18254.101679673652	0
2	28735	18254.148515158374	1
2	28736	18254.992582869391	0
2	28740	18255.217095098154	1
2	28743	18255.937710690266	0
2	28775	18269.803888076011	1
2	28776	18270.573792910892	0
2	28890	18334.549369952992	1
2	28891	18334.933358742397	0
2	28897	18335.269722660305	1
2	28900	18335.922896300822	0
2	28980	18379.275547735638	1
2	28981	18379.463224340904	0
2	28990	18380.796937486142	1
2	28991	18381.152337004011	0
2	29055	18409.536413333023	1
2	29056	18409.599856571594	0
2	29285	18555.723830460806	1
2	29286	18556.600547285889	0
2	29335	18594.771540172014	1
2	29336	18595.710463937266	0
2	29385	18621.658642976723	1
2	29386	18622.113871562156	0
2	29427	18658.031685968661	1
2	29428	18658.131419257573	0
2	29450	18686.297036175706	1
2	29451	18686.523078198867	0
2	29515	18734.900699227529	1
2	29517	18735.030235513491	2
2	29518	18735.090614488558	1
2	29523	18736.016099016625	0
2	29530	18736.970549834241	1
2	29531	18737.759677670874	0
2	29565	18748.778358491368	1
2	29566	18748.944670416102	0
2	29570	18749.229216596705	1
2	29571	18749.676949791437	0
2	29605	18760.835796563117	1
2	29608	18761.538699129615	0
2	29615	18762.688579026551	1
2	29616	18763.029489447894	0
2	29625	18764.793111515136	1
2	29626	18765.420237052591	0
2	29650	18778.699676377265	1
2	29651	18779.621156022979	0
2	29795	18892.303995161054	1
2	29796	18892.523474744341	0
2	29805	18893.729119649486	1
2	29806	18894.06145525007	0
2	29935	18972.038634862857	1
2	29936	18972.856740084253	0
2	29965	18992.406630438532	1
2	29966	18992.762162066637	0
2	29985	19000.141700585637	1
2	29986	19000.397511495086	0
2	30085	19056.570746710347	1
2	30086	19056.632577327959	0
2	30090	19057.290592954607	1
2	30091	19057.434363767639	0
2	30095	19058.029400505787	1
2	30096	19058.094636037149	0
2	30100	19058.290681139229	1
2	30102	19058.608133898214	2
2	30103	19058.886824068934	1
2	30106	19059.581992819155	0
2	30167	19097.478703155641	1
2	30168	19097.895502492767	0
2	30172	19098.013279108388	1
2	30173	19098.411163522331	0
2	30220	19128.162248760258	1
2	30221	19128.505713305753	0
2	30235	19132.226075349954	1
2	30236	19132.817623924901	0
2	30275	19159.123319729265	1
2	30276	19159.248028888754	0
2	30525	19306.066434356073	1
2	30526	19306.77898380569	0
2	30565	19339.551356721133	1
2	30568	19340.217888051843	0
2	30572	19340.882998678433	1
2	30573	19341.140182282136	0
2	30610	19353.704653376988	1
2	30611	19354.423476744756	0
2	30725	19448.691842017495	1
2	30726	19448.968610269855	0
2	30790	19515.622274847942	1
2	30791	19516.078817620672	0
2	30795	19516.714402265328	1
2	30796	19516.765433351867	0
2	30860	19540.466537931548	1
2	30861	19541.045281789241	0
2	30900	19578.149510248986	1
2	30901	19578.487984546842	0
2	31080	19697.73661462247	1
2	31081	19698.083889540242	0
2	31100	19707.833705410927	1
2	31101	19707.946916254457	0
2	31170	19761.723762461719	1
2	31171	19762.301042157413	0
2	31210	19776.767005470356	1
2	31211	19777.64389519629	0
2	31305	19841.057787350718	1
2	31306	19841.383978980193	0
2	31310	19841.521316791475	1
2	31311	19842.045815600893	0
2	31480	19963.852693674352	1
2	31481	19964.084025420528	0
2	31485	19964.722345818514	1
2	31486	19964.994578818698	0
2	31505	19971.448541658411	1
2	31506	19971.79673120494	0
2	31520	19981.21572510976	1
2	31521	19981.638487998577	0
2	31620	20045.998806325936	1
2	31621	20046.211138303199	0
2	31645	20060.106722728203	1
2	31648	20060.418561507501	0
2	31695	20099.171382540897	1
2	31696	20099.700525197828	0
2	31720	20103.100234299551	1
2	31721	20103.578273593622	0
2	31745	20115.415288742533	1
2	31746	20115.874661117304	0
2	31775	20132.364552871396	1
2	31776	20132.37498396252	0
2	31815	20153.142483705645	1
2	31816	20153.556425210061	0
2	31820	20153.775645729485	1
2	31821	20154.139690313135	0
2	31840	20157.272389500404	1
2	31841	20157.857545688627	0
2	31855	20160.452999324003	1
2	31856	20160.575168643291	0
2	31865	20161.505666547671	1
2	31866	20161.803093484048	0
2	31910	20185.326024587737	1
2	31911	20185.417500487623	0
2	31940	20198.803354230076	1
2	31943	20199.126313074446	0
2	31947	20199.232781567908	1
2	31948	20199.686995231547	0
2	31952	20200.302237556162	1
2	31953	20200.578036523471	0
2	32070	20275.596286060305	1
2	32071	20276.157675149403	0
2	32075	20276.750762387846	1
2	32076	20276.979454523622	0
2	32190	20368.192324208631	1
2	32191	20368.873334902202	0
2	32200	20370.072250120999	1
2	32201	20370.430995617624	0
2	32215	20372.726576817327	1
2	32217	20372.983095622153	2
2	32218	20373.214722385764	1
2	32221	20373.84815036286	0
2	32235	20380.935501068893	1
2	32236	20381.367756000191	0
2	32245	20384.008274895645	1
2	32246	20384.156539605784	0
2	32265	20394.595869651967	1
2	32268	20394.652202692442	0
2	32375	20452.107693370082	1
2	32376	20452.164664528654	0
2	32460	20474.215740458871	1
2	32461	20474.799045205639	0
2	32465	20475.22583923193	1
2	32466	20475.522381564426	0
2	32487	20493.263219706055	1
2	32488	20493.395991873497	0
2	32500	20495.069857078891	1
2	32501	20495.85966052886	0
2	32510	20496.965129853362	1
2	32513	20497.527886067928	0
2	32555	20519.704487400319	1
2	32556	20520.325012514005	0
2	32560	20520.486757214738	1
2	32561	20520.900088384944	0
2	32635	20554.445400872482	1
2	32636	20555.009732040085	0
2	32640	20555.156650423964	1
2	32641	20555.620597726313	0
2	32740	20642.752199531957	1
2	32741	20642.919020619264	0
2	32775	20665.091711634973	1
2	32776	20665.159982962484	0
2	32810	20678.511050019585	1
2	32811	20679.10171642862	0
2	32840	20684.540544318586	1
2	32841	20684.922020444361	0
2	32960	20773.51856189327	1
2	32962	20773.580889723204	2
2	32963	20773.928806641882	1
2	32966	20774.888163927335	0
2	32970	20775.355914509635	1
2	32971	20775.453814269088	0
2	32990	20783.199139675056	1
2	32991	20783.790247220877	0
2	33090	20836.67569791691	1
2	33091	20837.112730727013	0
2	33095	20837.308719516141	1
2	33096	20837.972713810898	0
2	33125	20845.997473926982	1
2	33126	20846.215868484621	0
2	33140	20848.627611754088	1
2	33141	20848.665115217098	0
2	33150	20850.422399887731	1
2	33151	20850.62164534961	0
2	33200	20879.272469623679	1
2	33201	20879.30560474226	0
2	33235	20893.92569661935	1
2	33236	20893.989107404056	0
2	33290	20950.89037671498	1
2	33291	20951.042053109323	0
2	33300	20951.760823230121	1
2	33301	20952.684007621705	0
2	33317	20954.34366129267	1
2	33318	20954.512672247933	0
2	33345	20971.721548885908	1
2	33346	20972.284458977301	0
2	33360	20980.485381559512	1
2	33362	20980.759999325713	2
2	33363	20981.125156656852	1
2	33368	20981.774487756578	0
2	33375	20982.699076759773	1
2	33376	20983.133121036704	0
2	33520	21067.772428465601	1
2	33521	21068.662718759315	0
2	33540	21078.125351370377	1
2	33541	21078.721071398087	0
2	33545	21078.863092600304	1
2	33546	21079.512563880269	0
2	33825	21256.971251299778	1
2	33826	21257.155082566049	0
2	33885	21313.502443815854	1
2	33886	21314.109266121855	0
2	33900	21332.566811886508	1
2	33901	21332.874539184341	0
2	33925	21348.95341166507	1
2	33926	21349.273734765917	0
2	33935	21362.606289310228	1
2	33936	21362.7454049532	0
2	33975	21392.095898373774	1
2	33976	21392.785708335456	0
2	34095	21456.666456766888	1
2	34100	21456.981157595396	0
2	34109	21457.807360696251	1
2	34110	21458.171117056545	0
2	34122	21460.238896056063	1
2	34123	21460.2653307811	0
2	34225	21532.286653572325	1
2	34226	21533.043125739193	0
2	34240	21535.060307135858	1
2	34241	21535.575432832253	0
2	34255	21537.790434478853	1
2	34256	21538.491362130549	0
2	34265	21539.643997906352	1
2	34268	21540.471558326887	0
2	34277	21541.263657628221	1
2	34278	21541.493788485773	0
2	34365	21612.728522889792	1
2	34366	21612.9874986046	0
2	34440	21636.83638968124	1
2	34441	21637.440751512948	0
2	34530	21687.887683678547	1
2	34531	21688.231591748531	0
2	34572	21722.865562615958	1
2	34573	21722.886154328355	0
2	34587	21724.757643508609	1
2	34588	21724.861543110128	0
2	34592	21724.985021593955	1
2	34593	21725.846047468412	0
2	34725	21846.365373892281	1
2	34726	21846.74399036539	0
2	34735	21848.495436821106	1
2	34736	21848.642776080363	0
2	34775	21869.847266417965	1
2	34776	21870.534638499997	0
2	34855	21924.556345373493	1
2	34856	21925.108998358128	0
2	34935	21976.128952653895	1
2	34936	21976.448766636115	0
2	34950	21978.842168285331	1
2	34951	21979.125062296943	0
2	34990	21994.925503866477	1
2	34991	21995.203328894506	0
2	35000	21996.215504412103	1
2	35001	21996.67275800324	0
2	35310	22217.137604572956	1
2	35313	22217.254916374422	0
2	35405	22292.746963019093	1
2	35408	22293.423927141887	0
2	35465	22325.667280980671	1
2	35468	22326.573962391236	0
2	35535	22369.469275523046	1
2	35536	22370.044909370685	0
2	35662	22436.160388584087	1
2	35663	22436.375068752249	0
2	35680	22444.647310022164	1
2	35681	22444.928506503876	0
2	35690	22446.383927887958	1
2	35691	22446.397821278275	0
2	35755	22507.543276345153	1
2	35756	22508.114835882133	0
2	35835	22565.490281322917	1
2	35836	22565.949830992161	0
2	35985	22715.523351398063	1
2	35986	22715.885040251678	0
2	36025	22726.117610991818	1
2	36028	22726.586247604207	0
2	36095	22744.692676768296	1
2	36096	22744.80087414011	0
2	36125	22761.483611027661	1
2	36126	22761.689965128361	0
2	36185	22801.72418570881	1
2	36186	22801.97555157695	0
2	36205	22812.994983693369	1
2	36206	22813.366369575025	0
2	36275	22844.430069054671	1
2	36276	22844.924426405141	0
2	36300	22862.778992800763	1
2	36301	22862.950275722395	0
2	36325	22876.49161586467	1
2	36326	22876.899356497966	0
2	36335	22880.000919346424	1
2	36336	22880.1580796021	0
2	36435	22949.404977050123	1
2	36436	22949.850086665592	0
2	36487	23021.109510887514	1
2	36488	23021.549449645967	0
2	36495	23022.327820521008	1
2	36496	23023.020884402196	0
2	36515	23039.959463797736	1
2	36516	23040.482563960829	0
2	36650	23154.356090446365	1
2	36651	23154.690233790041	0
2	36790	23240.401198024952	1
2	36791	23240.692960940696	0
2	36825	23248.365335632272	1
2	36826	23248.783647526953	0
2	36895	23295.825009548732	1
2	36896	23296.3416412733	0
2	36920	23317.995098479637	1
2	36922	23318.067002875979	2
2	36923	23318.515658347037	1
2	36926	23319.047874301587	0
2	36930	23319.475621777488	1
2	36931	23319.99256061619	0
2	37020	23391.868199248279	1
2	37021	23392.380268449831	0
2	37025	23392.628228412174	1
2	37026	23392.880960054399	0
2	37040	23399.035307366618	1
2	37041	23399.270145832898	0
2	37150	23479.477157543343	1
2	37151	23479.875781012085	0
2	37160	23480.848940470685	1
2	37161	23481.792789859688	0
2	37167	23482.418828707928	1
2	37168	23482.681405316936	0
2	37185	23489.037144075368	1
2	37186	23489.438958247217	0
2	37230	23528.5860400052	1
2	37233	23529.482583843471	0
2	37237	23529.728002713889	1
2	37240	23530.066508547144	0
2	37244	23530.17112576241	1
2	37245	23531.045149698641	0
2	37249	23531.889167010556	1
2	37250	23531.993069363266	0
2	37360	23611.606901465788	1
2	37361	23611.958311079529	0
2	37465	23651.66020172956	1
2	37466	23652.154275886838	0
2	37505	23689.697932553889	1
2	37506	23690.336810677518	0
2	37550	23700.485755964381	1
2	37551	23700.791230835887	0
2	37555	23700.79439911103	1
2	37556	23701.611431361018	0
2	37565	23702.742581318725	1
2	37566	23703.168200787884	0
2	37585	23706.215100295665	1
2	37586	23706.266010513872	0
2	37685	23779.050591787249	1
2	37686	23779.809739016748	0
2	37750	23802.33669601094	1
2	37751	23803.230209630625	0
2	37765	23806.659810523992	1
2	37766	23806.974529437359	0
2	37805	23818.783306456853	1
2	37806	23819.595664449716	0
2	37880	23852.112504000368	1
2	37881	23852.952692661065	0
2	37885	23853.661375453152	1
2	37886	23853.837272933082	0
2	38085	24000.302063331125	1
2	38086	24000.398416084863	0
2	38090	24000.480915841759	1
2	38092	24000.607605012875	2
2	38093	24001.088454711225	1
2	38098	24001.97694003314	0
2	38110	24004.130964663389	1
2	38111	24004.351155896088	0
2	38125	24006.243745677251	1
2	38126	24006.976021459239	0
2	38230	24077.906146637882	1
2	38231	24078.275803954888	0
2	38355	24156.173645111116	1
2	38358	24156.775108079334	0
2	38362	24157.100767395334	1
2	38363	24157.46673777965	0
2	38440	24201.997209006203	1
2	38441	24202.500389705032	0
2	38445	24202.758945150383	1
2	38446	24203.225574899457	0
2	38450	24203.781535979213	1
2	38451	24204.004077444497	0
2	38470	24210.169844813144	1
2	38471	24210.278831490476	0
2	38475	24210.541044563456	1
2	38476	24211.221383923406	0
2	38540	24251.127013460737	1
2	38541	24251.366544008608	0
2	38550	24253.048132408489	1
2	38551	24253.915315874495	0
2	38620	24278.734562790508	1
2	38621	24279.031187833361	0
2	38660	24297.863750899663	1
2	38661	24298.11063941236	0
2	38680	24303.170734774999	1
2	38681	24303.867771246301	0
2	38755	24345.395852722814	1
2	38756	24345.502385370901	0
2	38890	24429.519164676837	1
2	38891	24430.099955029906	0
2	38895	24430.486842094614	1
2	38896	24430.766430954383	0
2	39030	24502.541967967857	1
2	39031	24502.572881724786	0
2	39110	24556.432772130482	1
2	39111	24556.81554451631	0
2	39145	24574.683821387857	1
2	39146	24575.280591855309	0
2	39180	24597.372231666845	1
2	39181	24598.151681136312	0
2	39190	24599.37828577662	1
2	39191	24600.282818370781	0
2	39250	24635.863710891771	1
2	39251	24636.247283658685	0
2	39265	24640.640205397543	1
2	39266	24640.777417150567	0
2	39430	24737.966892184412	1
2	39432	24738.030369111809	2
2	39433	24738.723824253939	1
2	39436	24739.696340783713	0
2	39560	24808.070625954282	1
2	39561	24808.168189780133	0
2	39580	24823.548432702647	1
2	39581	24823.566860099255	0
2	39747	24906.198579364179	1
2	39748	24906.375653115313	0
2	39755	24906.997695928704	1
2	39756	24907.638848244238	0
2	39780	24914.22368368791	1
2	39781	24914.22465489588	0
2	39795	24931.382154500929	1
2	39797	24931.551200340896	2
2	39798	24932.156691723717	1
2	39801	24932.997343228692	0
2	39845	24952.847824334835	1
2	39846	24953.674128371441	0
2	39850	24953.781611207095	1
2	39851	24954.580136836005	0
2	39870	24964.536052267635	1
2	39871	24964.71470110176	0
2	39895	24980.01033088005	1
2	39896	24980.293365726236	0
2	40055	25130.623926291752	1
2	40056	25130.644072938322	0
2	40120	25169.175206751391	1
2	40122	25169.295188027058	2
2	40123	25169.404164906402	1
2	40127	25169.537687172303	2
2	40128	25169.949145473956	1
2	40131	25170.589922685872	0
2	40135	25170.618104442892	1
2	40136	25171.396229093519	0
2	40160	25192.964575847922	1
2	40161	25193.45747914198	0
2	40330	25348.502391738182	1
2	40331	25348.796081255231	0
2	40415	25404.708593274774	1
2	40416	25405.054770507246	0
2	40440	25416.240463906509	1
2	40441	25416.437969501864	0
2	40455	25425.148576570437	1
2	40456	25425.581319077279	0
2	40460	25426.152654848992	1
2	40461	25426.544003100426	0
2	40490	25438.173371170308	1
2	40491	25438.600497201352	0
2	40510	25454.942428299047	1
2	40511	25455.643497478516	0
2	40535	25481.468403085369	1
2	40536	25482.081203529782	0
2	40605	25520.02351932843	1
2	40606	25520.641085924643	0
2	40645	25536.331611765737	1
2	40646	25536.471849928701	0
2	40735	25600.828313579378	1
2	40736	25601.245999117471	0
2	40740	25601.32525988084	1
2	40741	25601.764498061776	0
2	40765	25609.886250153047	1
2	40766	25610.050161158266	0
2	40815	25622.761614933837	1
2	40816	25622.80776116526	0
2	40825	25623.976276559558	1
2	40826	25624.170374216878	0
2	40915	25657.167733949475	1
2	40916	25657.652559590724	0
2	40925	25659.326525947456	1
2	40926	25659.432928282123	0
2	41005	25691.274092273144	1
2	41006	25691.759319687193	0
2	41050	25736.265474487341	1
2	41051	25737.023062622568	0
2	41090	25755.91031142252	1
2	41091	25756.126154163836	0
2	41185	25805.488525439796	1
2	41186	25805.944882930964	0
2	41245	25868.485120953749	1
2	41246	25869.193059429507	0
2	41415	25973.795239577631	1
2	41416	25974.250415427108	0
2	41470	26024.208869580816	1
2	41471	26024.423754193406	0
2	41560	26066.872984227789	1
2	41563	26067.587774056698	0
2	41575	26074.130767594328	1
2	41576	26074.481030968949	0
2	41665	26144.144901530007	1
2	41666	26144.825493811155	0
2	41685	26153.328804575164	1
2	41686	26153.475554741814	0
2	41770	26205.89508558888	1
2	41771	26206.162491690494	0
2	41900	26278.429144892492	1
2	41901	26278.547876067826	0
2	41930	26290.143596191395	1
2	41931	26290.928292161545	0
2	41975	26311.749786961745	1
2	41976	26312.029663183227	0
2	41985	26313.250979456922	1
2	41987	26313.593808625221	2
2	41988	26313.751430532913	1
2	41991	26314.53137848407	0
2	41995	26315.116748282296	1
2	41996	26315.299853535806	0
2	42055	26355.148686760409	1
2	42056	26355.578797437497	0
2	42060	26355.647221881457	1
2	42061	26356.094011035622	0
2	42075	26374.584384576491	1
2	42076	26374.701505725268	0
2	42110	26387.470466649714	1
2	42111	26387.774808811685	0
2	42130	26393.359116611553	1
2	42131	26393.465892098382	0
2	42135	26393.875587517814	1
2	42136	26394.288434959765	0
2	42140	26394.751790575058	1
2	42141	26394.765426830206	0
2	42305	26513.130286746871	1
2	42306	26513.317461605294	0
2	42435	26600.229209994063	1
2	42436	26600.760286209438	0
2	42440	26600.785584821346	1
2	42441	26601.179643446891	0
2	42445	26601.671051070134	1
2	42446	26602.016041883113	0
2	42505	26645.407535283262	1
2	42506	26645.899425067599	0
2	42565	26668.006459381532	1
2	42566	26668.678464236965	0
2	42595	26683.374362103801	1
2	42596	26683.75855516797	0
2	42605	26684.726527322291	1
2	42607	26684.970350303224	2
2	42608	26685.257175535633	1
2	42611	26685.753128152405	0
2	42700	26738.819250823422	1
2	42701	26738.927791654569	0
2	42995	27000.348622603762	1
2	42996	27000.688668670221	0
2	43190	27117.941159649899	1
2	43191	27118.364277511453	0
2	43270	27178.389385957726	1
2	43271	27178.768630784248	0
2	43387	27265.230532149898	1
2	43388	27265.278039119778	0
2	43485	27337.780854532372	1
2	43486	27338.291217564817	0
2	43520	27350.998560414245	1
2	43521	27351.209625730263	0
2	43630	27424.350025480502	1
2	43631	27424.710248862816	0
2	43635	27424.94045242343	1
2	43636	27425.38481933759	0
2	43650	27434.450526636971	1
2	43651	27435.287518629854	0
2	43710	27491.988412387114	1
2	43711	27492.057317693725	0
2	43920	27710.705598472207	1
2	43921	27711.007683035916	0
2	43960	27729.952960359283	1
2	43961	27730.535507976785	0
2	43990	27748.74440325046	1
2	43991	27749.077060753002	0
2	44085	27801.277821056415	1
2	44086	27801.5325361242	0
2	44140	27855.420755973297	1
2	44141	27855.705097639316	0
2	44185	27890.730171283111	1
2	44186	27891.018532215573	0
2	44215	27926.308650930398	1
2	44216	27926.617570828944	0
2	44220	27926.731332108248	1
2	44221	27927.288558792527	0
2	44225	27927.315523090533	1
2	44226	27928.271722803329	0
2	44235	27929.095872692535	1
2	44236	27929.391689317792	0
2	44320	27986.706224233009	1
2	44321	27987.187547668246	0
2	44460	28095.121045217847	1
2	44461	28095.147458102263	0
2	44480	28099.000620043854	1
2	44481	28099.454020071257	0
2	44505	28127.563911552761	1
2	44506	28128.070256313361	0
2	44630	28239.791021234752	1
2	44631	28240.143889194864	0
2	44660	28260.79167402994	1
2	44661	28261.228028574819	0
2	44685	28279.767947538981	1
2	44686	28280.156211576198	0
2	44715	28314.129416163742	1
2	44716	28314.799645459154	0
2	44950	28486.265184773514	1
2	44951	28486.319473356294	0
2	45015	28529.86319433288	1
2	45016	28530.18071755176	0
2	45059	28552.138732148294	1
2	45060	28552.312636949599	0
2	45165	28629.648129816088	1
2	45166	28630.271312581339	0
2	45210	28649.178735638959	1
2	45211	28649.946100957047	0
2	45245	28665.801979974782	1
2	45246	28666.04813066529	0
2	45380	28785.14949918657	1
2	45381	28785.929547088109	0
2	45520	28896.987658669742	1
2	45521	28897.669261891017	0
2	45550	28917.497978497411	1
2	45551	28917.867384003713	0
2	45720	29002.861704487346	1
2	45721	29002.907655772379	0
2	45745	29011.999544682719	1
2	45746	29012.107394757928	0
2	45800	29069.822926359895	1
2	45801	29069.924420231329	0
2	45880	29117.950756313362	1
2	45881	29118.4394089732	0
2	45925	29167.120504092547	1
2	45926	29167.660997439092	0
2	45955	29174.240464732743	1
2	45956	29174.801184001991	0
2	45965	29175.368743918486	1
2	45966	29176.165982010269	0
2	45990	29186.859804568391	1
2	45993	29187.280725287684	0
2	46005	29188.915911897448	1
2	46006	29189.408532180627	0
2	46075	29237.099686978275	1
2	46076	29237.135038926116	0
2	46120	29283.087781545721	1
2	46121	29283.273013898562	0
2	46140	29287.953604977013	1
2	46141	29288.229691932925	0
2	46320	29448.435670017434	1
2	46321	29448.937678575506	0
2	46325	29449.137294134961	1
2	46326	29449.493137261308	0
2	46450	29511.695793741084	1
2	46451	29512.171014717426	0
2	46621	29664.88052324904	1
2	46622	29665.633848959912	0
2	46635	29668.464671467371	1
2	46636	29669.022212811472	0
2	46705	29729.651694156274	1
2	46706	29730.524698108313	0
2	46780	29800.448149778779	1
2	46781	29800.534531614592	0
2	46785	29801.06980310723	1
2	46786	29801.523482485477	0
2	46790	29801.850051265908	1
2	46791	29802.414041978622	0
2	46840	29844.574838314954	1
2	46841	29844.794099300256	0
2	46845	29844.881619994489	1
2	46846	29845.529775917105	0
3	0	0	0
3	5	3.109439495615	1
3	6	3.249692476662	0
3	40	22.938254533379	1
3	41	22.993935154046	0
3	330	255.884362046226	1
3	331	256.322203131096	0
3	360	264.147219487517	1
3	361	264.448089180245	0
3	365	264.588969840996	1
3	366	264.979663163993	0
3	370	265.779661890352	1
3	371	265.881573754793	0
3	407	277.859070931852	1
3	422	279.570079787121	2
3	428	280.974701944102	1
3	432	281.85527300197	2
3	433	281.946897922658	1
3	436	282.471127823383	0
3	565	399.942269778599	1
3	566	400.108813668315	0
3	610	421.398107109665	1
3	611	421.870198072171	0
3	695	459.414790413714	1
3	696	459.470390119911	0
3	705	461.499495993762	1
3	706	461.814590930075	0
3	745	475.575949127989	1
3	746	475.975410609815	0
3	800	505.813518185506	1
3	801	505.92855360811	0
3	850	534.444879145167	1
3	851	535.099577374768	0
3	935	587.839940312431	1
3	936	588.263539075398	0
3	940	588.725930418558	1
3	941	589.031717935263	0
3	945	589.267937059505	1
3	946	589.994465804065	0
3	970	607.306982888008	1
3	971	607.689512999155	0
3	985	614.949386030161	1
3	986	615.41789373381	0
3	1080	683.194221288548	1
3	1081	683.196293577594	0
3	1095	690.182379784591	1
3	1096	690.329507930868	0
3	1200	754.032784927542	1
3	1201	754.461901949464	0
3	1205	755.248249501707	1
3	1206	755.34311935024	0
3	1210	755.479356317642	1
3	1211	756.004174805923	0
3	1345	854.698798112749	1
3	1346	854.809404893042	0
3	1390	868.827785147718	1
3	1402	870.532651666317	2
3	1403	871.128208447962	1
3	1416	871.996079930943	2
3	1426	872.885965487477	3
3	1436	874.912040662965	4
3	1437	875.288819164472	3
3	1440	876.140851259945	2
3	1443	876.962148623463	1
3	1447	877.138761361436	2
3	1448	877.444318541154	1
3	1451	878.035546368282	0
3	1465	881.269380218609	1
3	1466	881.29367203461	0
3	1605	1005.787977816146	1
3	1606	1006.010256985701	0
3	1625	1037.122318060158	1
3	1626	1037.130903871111	0
3	1630	1037.822522545827	1
3	1631	1038.118453445086	0
3	1745	1099.447955671552	1
3	1747	1100.341511707683	2
3	1748	1100.345543716006	1
3	1751	1101.328302716879	0
3	1840	1169.917159575185	1
3	1841	1170.389271096361	0
3	1860	1172.789772993738	1
3	1861	1173.200638066398	0
3	1895	1181.347036210897	1
3	1896	1182.149572654671	0
3	1925	1210.412794406066	1
3	1926	1210.588643713139	0
3	2135	1328.445965356913	1
3	2136	1328.491223285891	0
3	2145	1329.450910681653	1
3	2146	1330.158139427364	0
3	2155	1332.243454135418	1
3	2156	1332.465385155519	0
3	2175	1337.374638790591	1
3	2176	1337.788640451715	0
3	2180	1338.495282129234	1
3	2182	1338.514962738592	2
3	2183	1338.742314740601	1
3	2186	1339.735579986456	0
3	2320	1398.970026933234	1
3	2321	1399.412766183631	0
3	2330	1408.215609960291	1
3	2331	1408.5627354682	0
3	2405	1456.30529435949	1
3	2406	1456.389669277241	0
3	2410	1457.037178129333	1
3	2412	1457.14672832596	2
3	2413	1457.334966543179	1
3	2416	1457.916794280337	0
3	2425	1459.442090789967	1
3	2426	1459.623972341176	0
3	2555	1550.133009116429	1
3	2556	1550.731867937533	0
3	2585	1562.709121659525	1
3	2586	1562.79415236157	0
3	2590	1562.866278646338	1
3	2591	1563.227712426052	0
3	2630	1577.461331799118	1
3	2631	1577.766845282509	0
3	2655	1588.470893094064	1
3	2656	1589.084889294096	0
3	2805	1687.345955273313	1
3	2806	1687.810888187842	0
3	2835	1696.355122030381	1
3	2836	1696.407032434364	0
3	2992	1828.197718934078	1
3	2996	1829.619607201129	0
3	3080	1905.828521006132	1
3	3082	1906.155581067104	2
3	3083	1906.714742819151	1
3	3086	1907.572766487744	0
3	3120	1942.441080819068	1
3	3122	1942.727754783921	2
3	3123	1942.740902661547	1
3	3126	1943.347869863283	0
3	3145	1974.854409745177	1
3	3146	1975.217289612269	0
3	3165	1981.835920979992	1
3	3166	1982.434343748005	0
3	3170	1983.347620827853	1
3	3172	1983.410444112812	2
3	3173	1983.418954353478	1
3	3176	1983.986306383066	0
3	3315	2093.676608231116	1
3	3316	2093.713817893754	0
3	3372	2117.030541388359	1
3	3376	2117.492117104861	0
3	3420	2140.349669263027	1
3	3421	2141.203886637209	0
3	3430	2142.49474474808	1
3	3431	2143.066868486652	0
3	3520	2222.683646752368	1
3	3521	2222.854931828803	0
3	3590	2257.441680542772	1
3	3591	2257.501266996791	0
3	3610	2269.315248125311	1
3	3612	2269.435058620825	2
3	3614	2269.591647219558	3
3	3615	2269.992330169619	2
3	3618	2270.639573431143	1
3	3622	2270.685551145961	2
3	3623	2271.220848709799	1
3	3631	2272.744171093626	0
3	3710	2329.693902159129	1
3	3711	2330.044242315314	0
3	3715	2330.74173090484	1
3	3716	2331.002823817351	0
3	3750	2354.815288244366	1
3	3752	2355.372667150829	2
3	3753	2355.629464016502	1
3	3756	2356.163706553468	0
3	3797	2371.334492489205	1
3	3802	2372.244693102389	2
3	3803	2372.33585559328	1
3	3806	2372.843162481654	0
3	3865	2409.739490337003	1
3	3866	2410.282857495716	0
3	3900	2428.068723197165	1
3	3906	2429.773616552648	0
3	3955	2459.138930516686	1
3	3956	2459.350349779642	0
3	3970	2461.272691147497	1
3	3971	2461.67238842135	0
3	4065	2510.562768962444	1
3	4066	2511.164023544299	0
3	4075	2512.547071037296	1
3	4076	2512.585194769208	0
3	4085	2514.364497423234	1
3	4086	2514.568119247566	0
3	4110	2521.276085051218	1
3	4111	2521.752527818264	0
3	4215	2587.469480032231	1
3	4216	2587.572070000184	0
3	4275	2653.788930453025	1
3	4276	2653.867192317018	0
3	4305	2675.825242286683	1
3	4306	2676.361991655397	0
3	4330	2698.23366072844	1
3	4331	2698.488228634055	0
3	4425	2763.132182670991	1
3	4426	2763.310777543012	0
3	4430	2763.675988871348	1
3	4431	2763.797129420044	0
3	4490	2782.989337701062	1
3	4491	2783.406188596536	0
3	4595	2860.990358008447	1
3	4596	2861.688311310464	0
3	4600	2861.819060244792	1
3	4601	2862.317686742849	0
3	4660	2893.990272036209	1
3	4661	2894.240873984358	0
3	4675	2897.359565487573	1
3	4676	2898.141227492629	0
3	4710	2919.114218557099	1
3	4711	2919.793464900868	0
3	4810	2983.0847564283	1
3	4811	2983.407514674001	0
3	4875	3030.36744812569	1
3	4876	3031.05062828728	0
3	4900	3042.051497632454	1
3	4901	3042.127896633422	0
3	4995	3111.666988220874	1
3	4996	3112.122070289764	0
3	5085	3161.662564229925	1
3	5086	3161.935980065901	0
3	5135	3193.313234329874	1
3	5136	3193.320280493008	0
3	5205	3237.761180811963	1
3	5206	3237.77297250752	0
3	5335	3343.914224847213	1
3	5336	3344.753853335682	0
3	5580	3487.809770383836	1
3	5582	3487.941349869244	2
3	5583	3488.047293699922	1
3	5586	3488.907737424288	0
3	5590	3489.107269944973	1
3	5591	3489.60549815513	0
3	5595	3489.65635410438	1
3	5596	3490.268844740063	0
3	5600	3490.647357095573	1
3	5601	3491.012000948906	0
3	5665	3530.024422341725	1
3	5666	3530.355389262598	0
3	5705	3551.583818488172	1
3	5707	3551.658701377513	2
3	5708	3551.725643720957	1
3	5711	3552.573872068538	0
3	5730	3557.983163883564	1
3	5731	3558.553091050306	0
3	5737	3559.115067353782	1
3	5741	3560.120593200478	0
3	5775	3573.854724199393	1
3	5776	3574.414662291434	0
3	5980	3724.736324608539	1
3	5981	3724.907619762873	0
3	5995	3729.766914060186	1
3	5996	3730.198115201223	0
3	6005	3734.66841285459	1
3	6006	3734.729655847005	0
3	6017	3736.787804299272	1
3	6022	3737.27216338664	2
3	6023	3737.834970472789	1
3	6026	3738.771872835642	0
3	6030	3739.145625048909	1
3	6031	3739.618873797113	0
3	6095	3777.500516969728	1
3	6096	3778.080490047847	0
3	6135	3797.337126257448	1
3	6136	3797.582119770515	0
3	6140	3798.471715639111	1
3	6141	3798.490513542694	0
3	6157	3810.855397896224	1
3	6172	3812.921364512865	2
3	6173	3813.163279097391	1
3	6181	3814.26146378322	0
3	6250	3844.206477101908	1
3	6251	3844.678663641159	0
3	6310	3879.141181268385	1
3	6311	3879.395719958516	0
3	6325	3887.922461375144	1
3	6326	3888.006991363326	0
3	6335	3889.077315552749	1
3	6336	3889.577493270336	0
3	6445	3971.050211938578	1
3	6446	3971.431782386632	0
3	6465	3986.298197762156	1
3	6466	3986.866113130398	0
3	6495	4011.171704901414	1
3	6496	4011.691272421413	0
3	6500	4012.100222150089	1
3	6501	4012.442703903745	0
3	6505	4012.773133280734	1
3	6506	4012.922351236547	0
3	6600	4076.010089936291	1
3	6601	4076.542151131274	0
3	6605	4076.655710031895	1
3	6606	4077.137818027733	0
3	6612	4077.334112398859	1
3	6616	4078.790440699158	0
3	6655	4104.329916051684	1
3	6656	4105.031819400228	0
3	6800	4217.843048818054	1
3	6801	4218.294645965537	0
3	6805	4218.319290914738	1
3	6806	4219.246461482178	0
3	6855	4260.621871898163	1
3	6856	4260.641146595313	0
3	6867	4262.24491244929	1
3	6871	4262.898793692936	0
3	6985	4351.611829183802	1
3	6996	4353.725362071354	0
3	7097	4432.764737547217	1
3	7101	4434.183234847701	0
3	7110	4435.244547645366	1
3	7111	4435.415903459946	0
3	7115	4435.972045791102	1
3	7116	4436.084673890043	0
3	7135	4441.022599881296	1
3	7136	4441.34070767645	0
3	7215	4467.652486490164	1
3	7216	4467.80312998426	0
3	7230	4480.701881484203	1
3	7231	4480.856736020994	0
3	7275	4499.801588117072	1
3	7276	4499.806732289521	0
3	7305	4518.422148494657	1
3	7306	4518.899618334463	0
3	7315	4520.458318304208	1
3	7316	4521.055436471261	0
3	7415	4632.37380268619	1
3	7416	4632.499015435707	0
3	7435	4637.821816584737	1
3	7436	4637.855770930534	0
3	7445	4638.85081600827	1
3	7446	4639.440202129844	0
3	7465	4648.425211634823	1
3	7466	4648.736788383591	0
3	7530	4708.166052460245	1
3	7531	4709.003500259577	0
3	7535	4709.124332929355	1
3	7536	4709.749661239751	0
3	7565	4714.523220357412	1
3	7566	4715.163889912859	0
3	7620	4739.266387796071	1
3	7621	4739.378668929194	0
3	7645	4747.548043637665	1
3	7646	4748.066863450767	0
3	7735	4812.153887708915	1
3	7736	4812.655481605824	0
3	7790	4844.135120104001	1
3	7796	4845.629280640473	0
3	7840	4891.688765566468	1
3	7841	4892.397946135151	0
3	7850	4906.748738880271	1
3	7851	4907.124849606667	0
3	7865	4909.503933671922	1
3	7866	4909.765193691231	0
3	7915	4979.589780563371	1
3	7916	4979.689887786794	0
3	7970	5004.676354816918	1
3	7971	5004.997020306585	0
3	7985	5012.080934468489	1
3	7986	5012.897397954324	0
3	8040	5053.808409077643	1
3	8046	5054.96747139109	0
3	8107	5100.255877301384	1
3	8111	5101.330877892542	0
3	8320	5239.849106422389	1
3	8321	5240.122312072049	0
3	8370	5283.208157066588	1
3	8371	5283.729495161654	0
3	8375	5283.756044203937	1
3	8376	5284.692952192271	0
3	8390	5289.071993706827	1
3	8391	5289.793002299873	0
3	8400	5292.122862668256	1
3	8401	5292.584265039556	0
3	8495	5360.316097654659	1
3	8496	5360.843854744566	0
3	8555	5397.553043989982	1
3	8556	5397.66624224822	0
3	8660	5454.270269616453	1
3	8661	5454.526318926228	0
3	8680	5459.398142650331	1
3	8681	5459.45396677854	0
3	8685	5459.740184572256	1
3	8686	5459.858397166314	0
3	8725	5485.65964746667	1
3	8726	5485.697949100308	0
3	8797	5532.284530899376	1
3	8801	5533.197518070123	0
3	8895	5582.570108228269	1
3	8896	5582.713385399063	0
3	8915	5592.36922032618	1
3	8916	5592.885087439819	0
3	8975	5650.748906303752	1
3	8976	5651.697529519929	0
3	8990	5655.019173297462	1
3	8991	5655.366588213207	0
3	9035	5671.213857851097	1
3	9036	5671.44421681108	0
3	9110	5737.278398476942	1
3	9111	5737.965186398258	0
3	9195	5784.112069456756	1
3	9196	5784.599033624028	0
3	9270	5825.05496723038	1
3	9271	5825.085382262603	0
3	9300	5845.494365995008	1
3	9301	5846.034028978273	0
3	9305	5846.268609220955	1
3	9306	5846.816011396702	0
3	9320	5859.61246883554	1
3	9321	5859.665560913451	0
3	9325	5859.872003490621	1
3	9326	5860.230209388111	0
3	9365	5907.586872534659	1
3	9366	5908.511646357886	0
3	9442	5958.737224390654	1
3	9446	5959.740541787123	0
3	9490	5998.703138703358	1
3	9491	5998.910590308585	0
3	9520	6015.36769130262	1
3	9521	6015.854666746203	0
3	9545	6022.872179006142	1
3	9546	6023.32314389797	0
3	9597	6064.945566199077	1
3	9606	6066.342384283679	0
3	9615	6068.432300490888	1
3	9616	6069.280480048148	0
3	9665	6091.529498958674	1
3	9666	6092.012511804453	0
3	9690	6119.839579812777	1
3	9691	6120.492163450073	0
3	9885	6271.788515341711	1
3	9886	6272.406052867626	0
3	9985	6351.910696650354	1
3	9986	6352.164367534076	0
3	10045	6396.138220371215	1
3	10046	6396.60690958531	0
3	10060	6402.945710392747	1
3	10061	6403.326316883696	0
3	10170	6491.488467994639	1
3	10171	6491.646450956175	0
3	10180	6497.00247596332	1
3	10181	6497.25341286183	0
3	10250	6549.30676094195	1
3	10251	6549.455675800901	0
3	10300	6588.939968982827	1
3	10301	6589.86522380423	0
3	10315	6601.359703978926	1
3	10316	6601.766874243184	0
3	10467	6683.892022308732	1
3	10472	6684.634267441359	2
3	10473	6685.132239465543	1
3	10481	6686.891017203347	0
3	10530	6713.517513458044	1
3	10532	6713.932200945102	2
3	10533	6713.954373635062	1
3	10536	6714.912196149341	0
3	10770	6896.199389972887	1
3	10771	6896.81467506782	0
3	10810	6926.149469349354	1
3	10811	6926.464080484138	0
3	10875	6962.556533738781	1
3	10876	6963.47120787407	0
3	10900	6974.709282666672	1
3	10906	6975.89375973162	0
3	10979	7022.347694591959	1
3	10986	7023.4807001159	0
3	11010	7031.479467048289	1
3	11012	7031.499699180048	2
3	11013	7031.631205073266	1
3	11016	7032.494338731129	0
3	11020	7032.910237171417	1
3	11021	7033.136541270173	0
3	11025	7033.229700365351	1
3	11026	7033.540293987502	0
3	11085	7066.175306451485	1
3	11096	7068.121801819468	0
3	11100	7068.49209814838	1
3	11101	7069.018618867548	0
3	11135	7081.603811957926	1
3	11136	7081.704898221249	0
3	11190	7126.650774242015	1
3	11191	7127.285294224706	0
3	11200	7128.990921286037	1
3	11201	7129.048863655375	0
3	11205	7129.357412942085	1
3	11211	7130.326588704344	0
3	11265	7152.320972612296	1
3	11272	7153.41502628361	2
3	11273	7153.733062217201	1
3	11276	7154.366159231498	0
3	11310	7174.735718596875	1
3	11311	7175.419190682318	0
3	11315	7175.581056842181	1
3	11322	7176.335552667603	2
3	11323	7176.992858068446	1
3	11342	7179.729376362834	2
3	11343	7179.946056012191	1
3	11346	7180.527702509413	0
3	11372	7192.890083104242	1
3	11376	7194.144116633824	0
3	11420	7235.750271922238	1
3	11421	7236.182105920519	0
3	11460	7250.879302609497	1
3	11461	7251.70690552419	0
3	11500	7283.715622918312	1
3	11501	7284.593068967835	0
3	11535	7319.497466704242	1
3	11536	7319.924582835191	0
3	11550	7329.508903524322	1
3	11551	7329.558167517734	0
3	11555	7329.776729120748	1
3	11556	7330.492198354974	0
3	11580	7338.517743626344	1
3	11581	7338.887910039799	0
3	11610	7365.135368516756	1
3	11611	7365.588448138174	0
3	11745	7452.853905565368	1
3	11746	7452.972599041177	0
3	11860	7531.683423532414	1
3	11861	7532.119253795043	0
3	11960	7611.146484629089	1
3	11961	7611.593092702566	0
3	12010	7637.094016017023	1
3	12012	7637.801218314044	2
3	12013	7637.804070081407	1
3	12016	7638.662726077702	0
3	12025	7639.660240014016	1
3	12031	7640.87282506267	0
3	12070	7662.416952683035	1
3	12071	7662.646227497319	0
3	12100	7667.976160917586	1
3	12101	7668.439519001089	0
3	12140	7700.684362157156	1
3	12141	7700.685785810685	0
3	12175	7743.12385765565	1
3	12176	7743.507775463625	0
3	12220	7757.481431437917	1
3	12221	7757.731305275041	0
3	12230	7758.303190350536	1
3	12231	7758.916485404896	0
3	12365	7863.303583926301	1
3	12366	7863.694644669746	0
3	12482	7922.45161770828	1
3	12486	7923.418622781831	0
3	12517	7938.083307699092	1
3	12521	7939.181703552203	0
3	12565	7968.169487590324	1
3	12566	7968.334608855992	0
3	12755	8109.343885512039	1
3	12756	8109.832091794508	0
3	12782	8118.483818458265	1
3	12786	8119.563920979592	0
3	12800	8127.275349613623	1
3	12801	8127.420971455409	0
3	12805	8127.495701902493	1
3	12807	8127.864373780464	2
3	12808	8128.27201933943	1
3	12811	8128.817310305063	0
3	12820	8135.767114114419	1
3	12821	8135.919416496174	0
3	12915	8228.202190382458	1
3	12916	8228.525053790196	0
3	13035	8294.470197718458	1
3	13036	8294.744025554216	0
3	13045	8295.455596703164	1
3	13047	8295.646289564569	2
3	13048	8295.924163838277	1
3	13057	8296.811942250452	2
3	13058	8297.098775662702	1
3	13061	8298.030823841911	0
3	13150	8370.032492836974	1
3	13151	8370.516842676014	0
3	13175	8389.734797464167	1
3	13176	8390.173783551604	0
3	13182	8390.372215772247	1
3	13196	8392.815021158783	0
3	13205	8396.799782606306	1
3	13206	8397.268388695767	0
3	13355	8489.64128378778	1
3	13356	8489.834312479692	0
3	13405	8508.650706071021	1
3	13406	8509.082090181494	0
3	13430	8514.860599173354	1
3	13431	8515.352955386182	0
3	13435	8515.620863544834	1
3	13436	8516.189630209235	0
3	13510	8595.920599342397	1
3	13511	8596.034420881924	0
3	13660	8743.240342510477	1
3	13661	8743.348958301706	0
3	13670	8748.051188439111	1
3	13671	8748.05823413028	0
3	13730	8802.623707203047	1
3	13731	8802.803927880563	0
3	13735	8803.142164755471	1
3	13736	8803.366888467912	0
3	13895	8872.122282640112	1
3	13896	8872.551286436367	0
3	13900	8872.577768779814	1
3	13902	8873.262164090161	2
3	13903	8873.314585703268	1
3	13906	8873.783257431613	0
3	13910	8873.981563287228	1
3	13911	8874.383986027801	0
3	13915	8874.479278124424	1
3	13917	8874.655575926474	2
3	13918	8875.076728890679	1
3	13922	8875.144180339203	2
3	13924	8875.839006576603	3
3	13925	8876.004162841412	2
3	13928	8876.869515479198	1
3	13931	8877.405120995203	0
3	13935	8877.442989105421	1
3	13936	8877.893666408751	0
3	13945	8879.595263661631	1
3	13946	8879.827687940302	0
3	13995	8915.518133805044	1
3	13996	8915.757171160402	0
3	14020	8923.46360731155	1
3	14021	8924.055256952297	0
3	14025	8924.177270715429	1
3	14026	8924.726840755481	0
3	14050	8947.211416660953	1
3	14051	8947.643458677955	0
3	14105	8979.681894821068	1
3	14106	8979.847780389489	0
3	14240	9095.872363574604	1
3	14242	9096.275033804159	2
3	14243	9096.603052472596	1
3	14246	9097.26110031185	0
3	14260	9100.953215773883	1
3	14261	9101.226967535222	0
3	14305	9156.104054638536	1
3	14306	9156.208686189101	0
3	14365	9199.643759270414	1
3	14366	9199.953023792604	0
3	14415	9228.429247472266	1
3	14416	9228.632223176827	0
3	14420	9228.781373243555	1
3	14421	9229.564038086274	0
3	14445	9245.677684319073	1
3	14446	9245.793199791676	0
3	14485	9264.250785384406	1
3	14486	9264.690142549544	0
3	14490	9265.433552432083	1
3	14491	9265.561391533229	0
3	14605	9327.350283057032	1
3	14606	9327.527904448296	0
3	14615	9330.297051351115	1
3	14616	9330.913625523036	0
3	14630	9334.292712660547	1
3	14631	9334.964962123436	0
3	14775	9392.534830476639	1
3	14776	9392.83882327788	0
3	14805	9408.172235845486	1
3	14807	9408.218215072586	2
3	14809	9408.665556218684	3
3	14810	9409.104410687101	2
3	14813	9409.773615671939	1
3	14822	9410.787246093274	2
3	14823	9411.305296246254	1
3	14827	9411.329538373664	2
3	14833	9412.83685387146	1
3	14836	9413.59724187624	0
3	14925	9482.426919023416	1
3	14927	9482.938340487048	2
3	14928	9483.047402098671	1
3	14931	9483.485684988823	0
3	15010	9575.867032118658	1
3	15011	9575.956637507962	0
3	15020	9577.03589723924	1
3	15021	9577.700898569095	0
3	15050	9596.451159727999	1
3	15051	9596.765872696736	0
3	15120	9638.839061263667	1
3	15126	9639.732422502144	0
3	15160	9661.90858813096	1
3	15161	9662.167654526843	0
3	15205	9690.38375855774	1
3	15206	9691.118112556991	0
3	15210	9691.486546294272	1
3	15212	9691.912822329136	2
3	15214	9691.973668063793	3
3	15215	9692.00531364603	2
3	15218	9692.750066811387	1
3	15222	9692.916996429726	2
3	15224	9692.976179040275	3
3	15225	9693.349401924555	2
3	15228	9694.158972629887	1
3	15231	9694.994084764021	0
3	15240	9700.72460435909	1
3	15241	9700.939327279059	0
3	15310	9748.034405576845	1
3	15311	9748.20141226058	0
3	15320	9749.048057669707	1
3	15321	9749.547228917729	0
3	15445	9806.559445251031	1
3	15446	9807.106326806314	0
3	15475	9813.367083925077	1
3	15476	9813.870933902018	0
3	15490	9816.024514089861	1
3	15491	9816.33637235697	0
3	15527	9841.542121030539	1
3	15531	9842.675539374243	0
3	15540	9843.298249873734	1
3	15541	9843.595049686249	0
3	15577	9861.274333184574	1
3	15582	9861.464455460781	2
3	15583	9861.943558057703	1
3	15586	9862.432900543304	0
3	15640	9911.96875483836	1
3	15641	9912.324132962223	0
3	15665	9940.748787520401	1
3	15666	9941.614626339495	0
3	15730	9990.017131036169	1
3	15736	9991.558725497278	0
3	15745	9995.604588468649	1
3	15746	9995.636607067038	0
3	15990	10151.302240032051	1
3	15991	10151.517263492109	0
3	15995	10151.606199703931	1
3	15996	10151.925781634455	0
3	16045	10197.705333195017	1
3	16046	10197.897933744865	0
3	16065	10210.771594657814	1
3	16071	10212.076909368345	0
3	16100	10227.595220787881	1
3	16106	10228.825567858641	0
3	16110	10228.870519766101	1
3	16111	10229.248044910443	0
3	16145	10239.477822882389	1
3	16151	10240.731008641779	0
3	16175	10268.508067290921	1
3	16177	10268.783057273591	2
3	16178	10268.942803909387	1
3	16182	10269.51180158746	2
3	16183	10269.62759413653	1
3	16186	10270.102462483374	0
3	16202	10272.957849924307	1
3	16206	10274.128636294542	0
3	16210	10274.77227306987	1
3	16211	10275.008006080505	0
3	16250	10288.948632111002	1
3	16251	10289.003373186235	0
3	16260	10290.480919600505	1
3	16261	10290.704272405898	0
3	16300	10303.79017613075	1
3	16301	10304.189105073858	0
3	16305	10304.229296781496	1
3	16307	10304.345343543143	2
3	16308	10305.107261579746	1
3	16312	10305.433906381886	2
3	16313	10305.927326886898	1
3	16316	10306.400487058034	0
3	16335	10308.888337531588	1
3	16336	10309.327622083469	0
3	16355	10333.718109621967	1
3	16356	10333.948075449163	0
3	16375	10340.305544983843	1
3	16376	10340.407882217202	0
3	16390	10343.851535269389	1
3	16391	10344.297942891512	0
3	16415	10377.306057956386	1
3	16416	10377.444936208731	0
3	16460	10402.842436834672	1
3	16461	10403.128008363035	0
3	16470	10404.770315528014	1
3	16481	10407.392065245465	0
3	16525	10455.802340849356	1
3	16526	10456.327442431524	0
3	16545	10462.484463739138	1
3	16546	10462.888647842497	0
3	16555	10464.88004839266	1
3	16557	10465.290250633879	2
3	16558	10465.305044789475	1
3	16561	10466.013251888615	0
3	16590	10474.244662449144	1
3	16591	10474.685545263072	0
3	16605	10482.344076156507	1
3	16606	10482.727096398427	0
3	16645	10489.153428076639	1
3	16646	10489.697010453847	0
3	16655	10490.686203461737	1
3	16656	10491.482417014026	0
3	16690	10502.777460988379	1
3	16691	10502.896395308145	0
3	16695	10503.016680447075	1
3	16696	10503.468250274372	0
3	16700	10504.327613681395	1
3	16701	10504.418879484192	0
3	16780	10548.853061672703	1
3	16781	10549.015456837146	0
3	16845	10626.475136579725	1
3	16846	10627.19608584359	0
3	16855	10634.713520198485	1
3	16856	10635.356897841721	0
3	16860	10636.14260180953	1
3	16861	10636.231790456177	0
3	16870	10638.627378607586	1
3	16872	10638.640448476535	2
3	16873	10639.321556279224	1
3	16876	10640.221367033685	0
3	16975	10706.379400754057	1
3	16977	10706.393195391555	2
3	16978	10706.689803283665	1
3	16981	10707.10895644259	0
3	17000	10723.42124682781	1
3	17001	10723.965335687356	0
3	17060	10755.855271400413	1
3	17061	10756.519249710135	0
3	17095	10774.285067297825	1
3	17096	10774.654067528712	0
3	17155	10812.315594184752	1
3	17156	10812.831156650952	0
3	17160	10813.312938375244	1
3	17161	10813.543616582195	0
3	17210	10843.603617349457	1
3	17211	10844.221118259834	0
3	17225	10849.514696940388	1
3	17231	10850.98157362188	0
3	17295	10880.376442753414	1
3	17296	10880.649389708251	0
3	17310	10886.053411527752	1
3	17311	10886.364933799241	0
3	17332	10898.896678301417	1
3	17336	10900.359039972833	0
3	17350	10909.979998067767	1
3	17351	10910.325274989611	0
3	17355	10910.39802172575	1
3	17362	10911.164099379164	2
3	17363	10911.885202337752	1
3	17367	10911.931854863827	2
3	17373	10913.674540557383	1
3	17376	10914.414841264017	0
3	17395	10925.090307688125	1
3	17396	10925.457225239854	0
3	17420	10938.57417370512	1
3	17421	10938.782499717019	0
3	17445	10950.980927370211	1
3	17446	10951.18155692012	0
3	17455	10952.979885036691	1
3	17456	10953.57464515463	0
3	17485	10987.929464650306	1
3	17486	10988.141642924849	0
3	17575	11037.347986358444	1
3	17576	11038.125523918074	0
3	17590	11053.541112884543	1
3	17591	11054.380758035671	0
3	17715	11170.524701655948	1
3	17716	11170.928837305934	0
3	17795	11276.187939263847	1
3	17796	11276.379650345579	0
3	17820	11290.494806488887	1
3	17821	11290.498798583876	0
3	17825	11290.756375877155	1
3	17826	11291.427053862912	0
3	17830	11291.544442158482	1
3	17831	11291.937862602304	0
3	17850	11298.372754667918	1
3	17852	11298.550881514108	2
3	17853	11298.848114674067	1
3	17856	11299.6524243263	0
3	17885	11318.37032204225	1
3	17886	11318.651109714885	0
3	17930	11355.171965932385	1
3	17931	11355.320408456823	0
3	17940	11356.494028731027	1
3	17942	11356.823743204737	2
3	17943	11357.128715366315	1
3	17946	11357.702811533309	0
3	17955	11359.287572585452	1
3	17956	11360.195546139867	0
3	18015	11395.111167995625	1
3	18016	11395.271477833479	0
3	18025	11396.489979206694	1
3	18026	11397.321673701301	0
3	18110	11462.542820115895	1
3	18111	11463.028777561139	0
3	18145	11480.859508841046	1
3	18146	11481.378815441638	0
3	18235	11565.861434403641	1
3	18236	11566.618736372129	0
3	18255	11574.956085046086	1
3	18257	11574.96371849824	2
3	18258	11575.191540023891	1
3	18261	11575.594159922257	0
3	18265	11575.888618194405	1
3	18267	11576.081414105701	2
3	18268	11576.383488563748	1
3	18272	11576.510674933825	2
3	18273	11577.376025816865	1
3	18281	11578.994171536781	0
3	18300	11596.347151412108	1
3	18301	11596.936449318587	0
3	18335	11628.509305799261	1
3	18336	11629.203932156426	0
3	18340	11629.233856387085	1
3	18341	11630.15624419438	0
[...]
6	42190	26428.972832632329	0.411048499495
6	42202	26444.687940818676	0.778180172155
6	42205	26445.175650698551	0.661917982172
6	42210	26447.78589712928	0.57369478601
6	42220	26450.2683952753	1.730897085874
6	42225	26454.842220567771	0.634343957342
6	42230	26459.648567688179	0.572053470649
6	42240	26469.89198054057	0.596282236855
6	42250	26475.041327299587	0.809132277872
6	42260	26481.367060492621	1.335598281575
6	42275	26489.623412504478	0.408909265976
6	42280	26493.50095960482	0.654407210741
6	42285	26498.755240639996	0.712495221011
6	42292	26501.131848583787	0.958282217942
6	42295	26501.839670973548	1.411645203307
6	42300	26509.489759168391	0.572804862447
6	42307	26513.317461605294	0.925703125726
6	42340	26526.160329242915	0.73432184956
6	42345	26529.178707344032	0.673808751581
6	42350	26538.632417299613	0.686805627123
6	42355	26540.673666718967	0.786841450585
6	42365	26555.763841617989	1.847758839314
6	42370	26560.850753555351	0.618294341257
6	42385	26566.63513335731	1.429857289086
6	42390	26569.580453834607	0.490740449447
6	42395	26572.368419294354	0.589682026766
6	42407	26574.885564281108	1.082597452721
6	42410	26575.631168726381	1.95704037915
6	42420	26584.160306830514	0.47790142959
6	42425	26591.996398568285	0.442397220386
6	42470	26616.136096215505	0.93666457762
6	42475	26618.283447453143	9.167916014137
6	42485	26633.827516130271	0.438975244574
6	42490	26638.22798942259	0.896788912127
6	42507	26645.899425067599	4.05416831669
6	42525	26651.380762245207	2.144594573573
6	42530	26652.92143322952	0.495513417339
6	42555	26660.281340046413	6.43658363753
6	42567	26668.678464236965	0.874158572496
6	42575	26670.074320580732	0.795018727612
6	42580	26680.162269771671	0.92619576049
6	42597	26683.75855516797	2.624919892447
6	42609	26685.257175535633	0.639785324596
6	42620	26688.33627900196	0.742678963393
6	42632	26691.386076220357	0.497747379215
6	42635	26691.994096186896	0.8892593838
6	42640	26697.879074402557	0.946092679072
6	42650	26703.693294111659	2.312461478882
6	42660	26707.72409695615	0.612359164655
6	42677	26726.317369006156	0.906475713057
6	42680	26726.829119024194	1.177860916288
6	42690	26730.352150662932	1.793695353276
6	42710	26750.185537292442	0.511892255442
6	42725	26776.85498697385	0.655566888116
6	42735	26780.923162395914	1.574886701994
6	42745	26792.465749910183	1.858846712615
6	42750	26797.07241910175	0.800692682061
6	42755	26799.688023341	0.619518553698
6	42760	26804.83596862033	0.514720512135
6	42765	26810.177339866725	0.78234176361
6	42775	26822.537613141577	4.277482539499
6	42785	26833.297648955313	0.412720035668
6	42790	26839.788883869141	0.522818002524
6	42800	26848.951136642547	0.948164737869
6	42805	26868.473008160215	0.904590599984
6	42810	26871.868445388046	0.463836784242
6	42815	26873.979030898713	0.6680824738
6	42820	26880.48872441909	0.748750224244
6	42825	26883.354783937615	0.414014123287
6	42837	26887.70988431921	0.89185643564
6	42840	26888.688025047898	3.362467185295
6	42845	26890.332201526352	0.615671305545
6	42852	26898.262972457593	0.610891767219
6	42855	26898.749895159274	1.027649749288
6	42865	26900.968111212304	1.705350078622
6	42877	26905.826571368988	0.90769920703
6	42882	26906.557232265317	2.915244706178
6	42887	26907.306175865376	1.41598954374
6	42890	26907.789827309878	1.028219944228
6	42895	26909.628103063694	0.87400203459
6	42900	26920.392014851333	0.783397125266
6	42910	26934.485693075693	0.407890586043
6	42915	26936.282333238809	0.793918968271
6	42920	26937.654967656318	0.828044189559
6	42930	26947.171789202891	0.916139367642
6	42935	26952.359398512434	0.927610060945
6	42945	26962.758236716639	1.374585268409
6	42955	26969.970000029152	0.755154276267
6	42967	26976.770774058709	0.951692356728
6	42970	26977.551297176061	1.262174513151
6	42980	26978.614957682814	0.986149328831
6	42990	26989.381187428689	0.75795163014
6	42997	27000.688668670221	0.781662371242
6	43005	27025.03429750174	0.80764066861
6	43015	27031.558026711201	0.502573480131
6	43030	27035.828745262462	1.632078272496
6	43035	27037.389573585937	3.518131443006
6	43040	27039.66283946058	0.620039394405
6	43089	27051.566009586287	2.65626180142
6	43092	27052.211883669655	6.271953878424
6	43100	27056.657428992852	16.667248872624
6	43105	27061.78496964863	0.708786958084
6	43115	27068.042539033827	1.582400335298
6	43130	27075.737684629542	0.786954802833
6	43145	27083.871145630281	2.294082029713
6	43150	27085.507335015287	0.733521547401
6	43155	27100.859640607498	0.713759996835
6	43165	27106.015100214936	0.744307651138
6	43187	27117.430059182495	0.86008023949
6	43192	27118.364277511453	1.63592079559
6	43200	27129.729649990047	0.681401136471
6	43210	27135.380084711683	0.536273328075
6	43262	27176.962746516623	0.847017795406
6	43265	27177.917127975364	1.484099460974
6	43280	27179.743524259665	0.805012894179
6	43285	27181.40992911162	3.223366814582
6	43290	27182.168939495975	0.738461567881
6	43295	27184.444253656954	0.413255985593
6	43315	27204.402135237822	1.776551405387
6	43325	27215.863204755803	0.880084089655
6	43365	27241.67474140791	0.947320723092
6	43370	27253.288513610013	0.887119771447
6	43375	27259.795997962834	0.6296622945
6	43397	27266.404769675074	3.179349701139
6	43400	27266.830458049396	2.027763404464
6	43415	27270.782423940342	1.204882172806
6	43420	27272.221387436079	0.607020433387
6	43425	27294.164183024532	0.733300044574
6	43437	27303.104532319578	0.749582174094
6	43445	27305.44644707645	2.980410699786
6	43450	27308.043388044965	0.696831529681
6	43470	27321.310733189389	0.771677039316
6	43480	27328.533049058683	0.911401506094
6	43500	27343.272406002805	0.949436376989
6	43507	27346.213733049536	0.613057616772
6	43515	27349.868716585884	4.215591513528
6	43535	27356.424111343734	1.319342008227
6	43555	27370.833876762328	0.958688004455
6	43565	27381.08076551851	0.670114921313
6	43577	27384.230643334921	2.051643184252
6	43580	27384.93394758369	0.799655523359
6	43585	27387.082100168219	0.403865122003
6	43590	27388.507247638278	0.487261700211
6	43595	27391.742982465307	0.478627594933
6	43605	27395.75767268201	0.579528623307
6	43620	27404.989148409885	2.515933474473
6	43665	27446.897831408264	0.722631779499
6	43670	27449.469906602463	0.447161442321
6	43675	27458.56394385501	0.469577204529
6	43692	27468.183014146971	0.639127613138
6	43695	27468.884045267325	1.307468698043
6	43700	27472.460509091691	0.790436623199
6	43712	27492.057317693725	0.432918942627
6	43740	27519.132702201248	1.832545874908
6	43750	27525.62643478295	2.616625937587
6	43760	27543.559007598064	0.57567994534
6	43770	27559.581751879959	1.147839837358
6	43775	27564.745303551179	0.62561884122
6	43785	27573.582103810111	1.540972499308
6	43815	27591.012354566508	1.740245378355
6	43835	27598.273723927216	3.579671244484
6	43840	27611.737718505164	0.677354563586
6	43845	27613.629655782749	0.426815122273
6	43850	27614.288995198405	0.46236423431
6	43855	27628.749131235713	0.855859316466
6	43860	27634.590801841017	0.463230076386
6	43865	27641.755446702102	0.988489729865
6	43870	27654.003290094935	0.853061473928
6	43875	27658.696517557075	0.909995858418
6	43880	27678.839433940316	0.722609395348
6	43885	27681.955657181597	0.535545847192
6	43890	27688.372922606668	0.534864316601
6	43912	27704.715929960815	3.385458655179
6	43915	27705.506987852912	3.214476732267
6	43922	27711.007683035916	0.884409054182
6	43930	27715.871753428458	0.865519276727
6	43945	27724.847653370442	0.50070850493
6	43955	27729.093942022402	0.54877983504
6	43970	27732.167818469923	2.425635037791
6	43975	27739.946590183447	0.704880314786
6	43980	27744.512267860467	0.685347989015
6	44005	27751.402701215838	3.228626607089
6	44022	27755.961347235976	0.783065920019
6	44025	27756.601238613859	0.725386939645
6	44030	27759.296187339624	0.921270129504
6	44035	27768.023621283724	0.670855744369
6	44040	27770.602890414005	0.469863829855
6	44045	27778.703582263877	0.747580325557
6	44050	27779.62595148036	0.881423665024
6	44060	27791.890137180404	0.728531316109
6	44065	27793.371748092444	0.523124769982
6	44077	27795.548413822859	1.912405669595
6	44080	27796.401736117307	1.353715273617
6	44095	27815.162047680095	0.70052484558
6	44100	27827.639632519774	0.412621633802
6	44107	27829.824360707413	0.79550309726
6	44110	27830.433213871868	1.189357264851
6	44120	27833.126927883234	0.790512277419
6	44125	27836.907274760496	0.529578773119
6	44135	27853.538598652642	2.611500564623
6	44150	27868.960115197813	0.513145159837
6	44160	27872.562510190227	0.750239442149
6	44170	27882.935791140038	1.654730759587
6	44175	27883.529027815297	2.355128153466
6	44180	27887.487096946074	0.834377491614
6	44187	27891.018532215573	0.474455394782
6	44200	27903.120394082436	2.615644572827
6	44207	27921.74247822959	0.495064782118
6	44210	27922.143366281614	0.444679705313
6	44217	27926.617570828944	0.41587153445
6	44250	27931.734014722657	2.743056781377
6	44255	27947.892811191594	0.455489667784
6	44260	27951.248375600399	0.739882314857
6	44275	27962.306651473017	1.041659173819
6	44290	27971.063034415085	0.863376049622
6	44295	27973.355996416522	3.598491144632
6	44300	27974.347016696415	0.743567733048
6	44307	27980.078614978941	0.872264959477
6	44310	27980.6689332933	1.065471826933
6	44315	27982.351565775514	0.986521892995
6	44330	27988.644718449227	2.315639653383
6	44335	27991.768364998928	0.552306730067
6	44340	27998.05596252677	0.875959543558
6	44355	28016.203789067309	0.777813434135
6	44365	28019.821358018405	0.559419346554
6	44375	28029.670219361907	0.971741240472
6	44380	28033.188950027461	0.901960143913
6	44392	28043.689442140055	0.638460801728
6	44400	28046.260467429381	3.047165324735
6	44405	28052.764011425497	0.810219917959
6	44420	28061.975180599219	0.504917766852
6	44425	28063.273692995375	0.475880289264
6	44445	28086.21109638528	0.881277946895
6	44462	28095.147458102263	0.720867063791
6	44482	28099.454020071257	5.357257633337
6	44490	28108.87451210801	0.73495300198
6	44495	28111.378199360282	0.481404584134
6	44507	28128.070256313361	0.519039925607
6	44535	28138.762859749082	5.547362924864
6	44540	28147.655273567445	0.498518519197
6	44545	28153.938969120262	0.778417393425
6	44565	28167.981912388228	2.460414026581
6	44570	28174.095579834207	0.400591334328
6	44575	28181.493181563897	0.952340299496
6	44585	28187.543783522767	1.147281499184
6	44595	28190.724653630372	0.710046410002
6	44605	28204.352007898202	0.549763337104
6	44615	28206.643394110829	2.013313196651
6	44620	28211.088411290775	0.572682329221
6	44632	28240.143889194864	0.4671898284
6	44652	28249.807657686094	0.882238994678
6	44655	28250.67567081287	1.405686580509
6	44662	28261.228028574819	0.521877022414
6	44670	28265.261393927368	0.413519992493
6	44695	28282.794292787168	0.534222509805
6	44700	28284.061939772894	0.621582518704
6	44710	28306.83623867965	0.786802061228
6	44717	28314.799645459154	0.790168807982
6	44730	28323.504950977686	0.89440650451
6	44735	28333.586849884916	0.995278164512
6	44745	28340.387936730219	0.863154907944
6	44772	28355.665244545245	3.098462175491
6	44775	28356.116539244836	1.519463438041
6	44785	28368.363798147491	0.87116503641
6	44800	28378.119568468578	0.753867270518
6	44810	28380.346044611083	2.184039373211
6	44815	28389.832500268101	0.51995693082
6	44820	28395.215979812592	0.963597593037
6	44825	28402.938423510966	0.963736934075
6	44830	28404.355470217237	0.963728507329
6	44840	28407.230730584941	2.103535724549
6	44845	28411.143592684267	0.716720404848
6	44850	28411.907383854718	0.720913678361
6	44865	28416.566749301381	0.85377811254
6	44875	28433.070616472333	0.521427640785
6	44880	28438.119208242263	0.754198141955
6	44885	28439.188389219659	0.424677623669
6	44905	28450.612111907524	0.715254666051
6	44915	28452.433695170873	1.772423021486
6	44920	28453.774353233093	0.482019806886
6	44925	28454.851575317186	0.871187497955
6	44940	28478.65370607277	0.756691587577
6	44952	28486.319473356294	0.69643201353
6	44960	28490.228948898578	0.828519706242
6	44965	28499.644089329101	0.799536769558
6	44970	28507.071332017654	0.487809467642
6	44975	28516.129500000755	0.459751974512
6	44990	28523.841400617352	1.272023894348
6	44995	28524.946521168506	2.887749346442
6	45010	28528.67188216426	2.716211163092
6	45025	28531.599872707115	2.106890445063
6	45030	28542.984253047327	0.676529779425
6	45053	28550.826994458038	3.020469053174
6	45056	28551.32155230391	1.291521696058
6	45061	28552.312636949599	1.797486328676
6	45077	28555.471035885169	4.875183298375
6	45080	28556.444344848451	7.999404528131
6	45085	28562.849381482213	0.532528378675
6	45100	28573.662514379142	0.817116083251
6	45120	28596.004387068572	0.547270825924
6	45130	28599.544003021551	0.50772745721
6	45140	28604.815220901234	2.08681113435
6	45150	28618.165740228463	0.575140211405
6	45180	28635.177644929404	0.60323858629
6	45190	28639.712915280644	3.388490014251
6	45200	28646.057347668039	1.473166570229
6	45205	28648.855791272809	0.734781459626
6	45212	28649.946100957047	0.850169163849
6	45230	28653.395401283816	0.435362138599
6	45247	28666.04813066529	0.67173363575
6	45260	28675.519301829574	0.913354461035
6	45265	28678.065969722885	0.47151171607
6	45280	28707.265234515197	1.23106949646
6	45290	28717.64847861993	0.563820512639
6	45295	28718.673871687131	0.54248512648
6	45305	28731.489914639587	1.46854467685
6	45310	28735.321688284182	0.871662585344
6	45329	28745.800126392916	0.690632729651
6	45337	28747.183388214242	1.46110451422
6	45340	28748.012724836972	2.673501895203
6	45355	28754.550371325754	0.59239167003
6	45360	28764.490204081203	0.500640890421
6	45370	28773.597437701749	0.978886994394
6	45375	28778.088771257127	0.910050960211
6	45382	28785.929547088109	0.823182112118
6	45395	28789.68169104829	0.695624910714
6	45410	28797.794079002028	2.729897551123
6	45420	28800.803285770887	0.998295906584
6	45425	28805.697069901808	0.96791949803
6	45437	28808.519174774431	0.743908815463
6	45440	28809.475457449977	2.309602602712
6	45450	28820.13538529338	0.758888718532
6	45455	28828.796739894231	0.553111062245
6	45470	28835.503558453598	0.895739721088
6	45485	28846.58985763841	0.558856581524
6	45490	28847.931185029741	0.762546193413
6	45495	28852.95822470887	0.581036118511
6	45505	28873.886145286813	0.751093905931
6	45522	28897.669261891017	0.99724246813
6	45535	28907.582769923149	1.405652605279
6	45540	28909.733013042293	0.615655117156
6	45575	28928.453075674256	1.412744377218
6	45580	28937.314037866483	0.845277597755
6	45585	28940.754309904747	0.84323849068
6	45592	28943.120890263142	0.440361655643
6	45602	28944.665416732196	1.601831939639
6	45610	28946.78419987118	2.517824754852
6	45634	28960.682343027349	2.591105789941
6	45642	28962.254400729462	2.389970014096
6	45649	28963.086420886525	3.297382786409
6	45662	28965.72242289563	3.302553097493
6	45670	28968.719793011149	5.843797793246
6	45675	28970.210111688411	0.563223825349
6	45680	28980.659122327418	0.674850129848
6	45700	28989.501539194463	0.760900406027
6	45710	28996.534542674702	0.733927946351
6	45730	29004.654545341524	2.150838795025
6	45735	29007.071745438935	0.866926608887
6	45747	29012.107394757928	1.008746801169
6	45760	29014.529147566102	3.909753168911
6	45770	29037.262078495287	0.627395441616
6	45780	29040.978380321725	3.199263053761
6	45790	29066.717599229096	0.70986025366
6	45810	29071.436026589554	4.377059116624
6	45815	29073.847006301046	0.74215014996
6	45820	29080.598515373097	0.621429963037
6	45825	29081.268259323379	0.633813052904
6	45837	29097.669232733187	0.41883512605
6	45845	29099.086996273397	3.151638270502
6	45857	29103.123394505039	0.823385844054
6	45860	29103.97065805631	1.44451770508
6	45865	29112.289907802466	0.898777133925
6	45890	29119.984474136928	1.265095610678
6	45900	29122.056286812837	4.4683203804
6	45905	29137.748424685569	0.876949610887
6	45915	29147.019254913762	0.418903227057
6	45935	29168.629016448986	1.749378279783
6	45967	29176.165982010269	3.02357082469
6	45985	29184.684668594316	0.746161386417
6	46000	29188.398132841792	1.282002911144
6	46007	29189.408532180627	0.926281591458
6	46020	29192.463186372125	0.5662862706
6	46025	29210.364010567781	0.974946267903
6	46040	29219.115246042055	0.879576468887
6	46062	29226.280314978319	1.542860840709
6	46065	29226.726005514539	2.005598001385
6	46070	29229.956634761761	0.891898509581
6	46095	29277.39992263021	0.877666323818
6	46105	29279.389269167561	1.058747762297
6	46155	29291.645324251077	5.757222621194
6	46170	29315.365091089399	0.466543415748
6	46185	29334.620613512668	3.505483453685
6	46195	29344.442317661697	0.467643950135
6	46205	29356.45146309953	0.701551051484
6	46215	29361.646351409941	0.778460441623
6	46220	29371.515389514511	0.850742371473
6	46225	29379.190315290796	0.822219921323
6	46235	29395.940461686128	0.759279610822
6	46240	29398.528729370678	0.739560286468
6	46245	29400.207270249105	0.402408964839
6	46270	29426.741631631961	0.440222865436
6	46282	29431.709293969451	0.642900598777
6	46285	29432.147390686917	1.708581147949
6	46300	29435.200587355576	1.777666584178
6	46310	29446.680142077434	0.732578561362
6	46340	29451.802790841508	1.823977288197
6	46345	29453.727851443084	0.621799199143
6	46354	29455.290787823897	0.860914486833
6	46362	29456.606164429689	1.938511258679
6	46365	29457.015501649238	2.349376360671
6	46380	29466.408776126059	2.341914007363
6	46385	29475.025937099364	0.75191187812
6	46390	29477.925422469627	0.680973238219
6	46402	29483.830199678288	0.573196138628
6	46405	29484.58249002546	1.310698567905
6	46410	29485.430235453679	0.759170026239
6	46415	29487.544167259505	0.506757690152
6	46420	29492.152504354648	0.475986487698
6	46425	29494.835985640159	0.778691496747
6	46442	29507.906322422873	2.446607232328
6	46445	29508.626595734449	2.334496624547
6	46460	29513.530556675345	2.006759328023
6	46470	29520.612415786498	2.996917296124
6	46475	29528.460976827472	0.931155331479
6	46480	29535.853365025321	0.409237175668
6	46490	29554.983813573008	0.484034831496
6	46505	29564.490441943162	0.45230453941
6	46517	29571.314284384595	0.882868480496
6	46522	29571.936629322888	3.436415892539
6	46525	29572.473292324105	1.069008402325
6	46530	29578.890494526446	0.426724027609
6	46540	29584.488803227319	1.163241233765
6	46565	29628.608699200514	0.516294973437
6	46575	29639.525474685726	0.522908043163
6	46580	29641.454698724407	0.434600730287
6	46585	29643.310373939841	0.679711172543
6	46600	29658.551591916726	0.684067483013
6	46618	29664.875406006916	1.183581336802
6	46623	29665.633848959912	1.636544820303
6	46629	29667.15295467801	3.147024973607
6	46632	29668.032742866507	3.876589618966
6	46637	29669.022212811472	5.689631217484
6	46650	29676.103481385687	1.565671754627
6	46655	29677.904261335055	0.57570584584
6	46665	29684.259198222738	0.52486200463
6	46670	29690.190065536429	0.980763557367
6	46675	29692.287588635788	0.611462664092
6	46680	29699.576986978282	0.851565446146
6	46685	29709.617712581444	0.846575824358
6	46700	29729.186940134356	0.659343650611
6	46707	29730.524698108313	0.897630502144
6	46725	29753.682407232465	0.917966418015
6	46740	29764.693623335747	2.454746645143
6	46770	29790.397493076476	0.820400267001
6	46782	29800.534531614592	0.503190346016
6	46805	29819.521882603406	1.449543166392
6	46820	29836.138624714714	1.661542060817
6	46825	29837.127107341165	0.46857651677
6	46830	29838.622870484305	0.623838418676
6	46835	29839.828719219104	0.701187742501
6	46842	29844.794099300256	0.595598977897
6	46865	29856.218273897864	0.434283047915
6	46870	29868.127776428305	0.409166674362
6	46875	29888.321062489379	0.605498646479
6	46880	29889.579436729978	0.893642625073
6	46895	29904.43494847094	2.444522515487
6	46910	29908.4135795253	2.563670195905
6	46925	29911.547451219538	1.540346977574
6	46940	29934.307009775981	0.462960340874
6	46955	29943.277640294684	0.451912477706
6	46960	29946.592886248927	0.484898030479
6	46965	29958.353991068378	0.781408795761
6	46970	29972.70175985717	0.544775041891
6	46975	29974.900565230814	0.836596724251
6	46980	29976.490106265437	0.523011587886
6	46985	29979.60567501163	0.679610652849
6	46990	29984.30146977476	0.711410758924
6	47012	29996.0542677969	1.520656780155
6	47015	29996.8621483919	1.22537447018

