version 2
run First_exit_5-4-20191017-13:43:28-1831
attr configname First_exit_5
attr datetime 20191017-13:43:28
attr experiment First_exit_5
attr inifile omnetpp.ini
attr iterationvars ""
attr iterationvarsf ""
attr measurement ""
attr network ResponseTimeNetwork
attr processid 1831
attr repetition 4
attr replication #4
attr resultdir results
attr runnumber 4
attr seedset 4
param **.Source.interArrivalTime exponential(4s)
param **.jobPriority bernoulli(0.4)
param **.PS.serviceTimeU1 "uniform(0.4s, 1.0s)"
param **.PS.serviceTimeU2 "uniform(1s, 1.2s)"
param **.SS1.serviceTime exponential(0.4s)
param **.SS2.serviceTime exponential(0.8s)
param **.PS.exitProbability bernoulli(0.5)

vector 0 ResponseTimeNetwork.SS1 queueLength:vector ETV
attr interpolationmode sample-hold
attr title "queue length, vector"
vector 1 ResponseTimeNetwork.SS2 queueLength:vector ETV
attr interpolationmode sample-hold
attr title "queue length, vector"
vector 2 ResponseTimeNetwork.QueueU1 queueLength:vector ETV
attr interpolationmode sample-hold
attr title "queue length, vector"
vector 3 ResponseTimeNetwork.QueueU2 queueLength:vector ETV
attr interpolationmode sample-hold
attr title "queue length, vector"
vector 4 ResponseTimeNetwork.sink lifeTimeU2:vector ETV
attr interpolationmode none
attr title "lifetime of arrived jobs U2, vector"
attr unit s
vector 5 ResponseTimeNetwork.sink lifeTime:vector ETV
attr interpolationmode none
attr title "lifetime of arrived jobs, vector"
attr unit s
vector 6 ResponseTimeNetwork.sink lifeTimeU1:vector ETV
attr interpolationmode none
attr title "lifetime of arrived jobs U1, vector"
attr unit s
0	0	0	0
0	1387	509.985175307926	1
0	1389	510.040472986485	0
0	3377	1402.808062296028	1
0	3379	1403.191033751588	0
0	9815	4002.336068649015	1
0	9816	4002.393882274441	0
0	11087	4553.962585380942	1
0	11089	4554.081526644272	0
0	12005	4893.212861517857	1
0	12006	4893.298926225707	0
0	13404	5499.874909603419	1
0	13406	5500.585851371355	0
0	13632	5597.626252352047	1
0	13636	5598.359705754316	0
0	14955	6130.463867990286	1
0	14957	6130.626121112021	0
0	17740	7228.752849921629	1
0	17741	7229.011009303628	0
0	17745	7229.52900301894	1
0	17746	7229.864104353985	0
0	18089	7343.66048995918	1
0	18096	7344.387671431658	0
0	18282	7384.61763555607	1
0	18289	7385.358639275765	0
0	20175	8129.970407019851	1
0	20176	8130.036984712546	0
0	20180	8130.515365557521	1
0	20181	8131.736836171946	0
0	20185	8132.467198294359	1
0	20186	8132.947080728531	0
0	23260	9427.38578830151	1
0	23261	9427.58868870175	0
0	23417	9498.795250917308	1
0	23419	9499.149129261422	0
0	23441	9501.747243481073	1
0	23443	9502.11548101603	0
0	24080	9758.623052910007	1
0	24081	9758.673759471509	0
0	27272	11012.648079341778	1
0	27274	11013.001514816018	0
0	27282	11014.031302895525	1
0	27286	11014.655856764609	0
0	27830	11321.85070699597	1
0	27831	11322.345766760647	0
0	28170	11430.865547474857	1
0	28174	11430.971768600429	0
0	29432	11916.445172631378	1
0	29439	11917.296871011448	0
0	30436	12307.543094119018	1
0	30441	12308.842875882418	0
0	34545	13963.189579245643	1
0	34546	13963.391734662465	0
0	35185	14218.420350272624	1
0	35186	14218.422536913153	0
0	36432	14721.293443671868	1
0	36435	14721.973225003595	2
0	36436	14722.920273115825	1
0	36439	14723.370808723743	0
0	38892	15834.548351634731	1
0	38896	15835.993633499954	0
0	39976	16234.154379162903	1
0	39978	16234.212225157059	0
0	41677	16922.982272751581	1
0	41679	16923.619097214835	0
0	46900	18967.972172156659	1
0	46901	18968.754355487555	0
0	47809	19338.650305259675	1
0	47811	19338.953672805373	0
0	48010	19436.498385071368	1
0	48011	19436.533940287775	0
0	48652	19687.594334108768	1
0	48654	19687.996175583414	0
0	49535	19977.908622872012	1
0	49539	19978.201109120275	0
0	50480	20337.551336950894	1
0	50481	20337.830817589327	0
0	50777	20443.443606318798	1
0	50779	20443.836408271185	0
0	52514	21095.279654733251	1
0	52519	21095.855493719646	0
0	52630	21133.44539406279	1
0	52631	21133.485585360236	0
0	52762	21205.203987290464	1
0	52764	21205.349676027606	0
0	53280	21381.714442443207	1
0	53281	21382.202265220967	0
0	55465	22513.100319296429	1
0	55466	22513.150088112088	0
0	56052	22722.137129194151	1
0	56054	22722.137427490602	0
0	56842	23047.241592848421	1
0	56844	23047.489947899016	0
0	56850	23048.691431656973	1
0	56851	23048.774689770568	0
0	58600	23798.683719661892	1
0	58601	23799.753319605639	0
0	60114	24479.471335307823	1
0	60116	24479.850789406026	0
0	60600	24676.915841572028	1
0	60601	24677.105276676659	0
0	62040	25270.231307267295	1
0	62041	25271.410230819546	0
0	62720	25521.104240300042	1
0	62721	25521.437362604168	0
0	64755	26339.503737065564	1
0	64756	26339.983528357992	0
0	66180	26908.511958523035	1
0	66181	26908.629582666564	0
0	67250	27306.31411242144	1
0	67251	27306.849003922703	0
0	68200	27742.663825004087	1
0	68201	27745.58604690317	0
0	68685	27895.520273718919	1
0	68686	27895.694892960478	0
0	69130	28134.562809046005	1
0	69131	28134.575905503584	0
0	70342	28659.378376742941	1
0	70344	28659.501259423103	0
1	0	0	0
1	369	188.812609858402	1
1	374	189.895989433919	0
1	377	190.333486457785	1
1	379	190.456773227048	0
1	550	234.424732729382	1
1	551	234.580532548876	0
1	795	324.889512500733	1
1	796	326.494949014667	0
1	937	372.081570553973	1
1	939	372.204568707966	0
1	990	387.989143185191	1
1	1001	389.227732272944	2
1	1003	389.352859736185	1
1	1005	389.832305086409	0
1	1013	390.766105025107	1
1	1016	391.52979155661	2
1	1018	392.080911464929	1
1	1021	392.519298678389	2
1	1023	392.919167452827	1
1	1028	393.371138005037	2
1	1030	393.500939022304	1
1	1035	394.980154171818	0
1	1066	399.663087882785	1
1	1068	399.803011487425	0
1	1570	598.960382643206	1
1	1571	601.399563624734	0
1	3067	1248.754781292615	1
1	3069	1248.821352193454	0
1	3559	1477.756862662627	1
1	3565	1478.19037262485	0
1	4885	2038.553485365201	1
1	4886	2038.638548187246	0
1	5249	2155.054264797549	1
1	5251	2155.218270385795	0
1	5259	2156.539339869748	1
1	5268	2157.746558192876	0
1	5271	2158.043388675478	1
1	5273	2158.140270353827	0
1	6570	2667.172410894031	1
1	6571	2667.553190609547	0
1	7277	2977.406691158629	1
1	7280	2977.990279322184	2
1	7281	2980.693019640509	1
1	7284	2980.750144147614	0
1	7287	2981.396024744183	1
1	7289	2981.459447868849	0
1	7350	2996.05020372573	1
1	7351	2996.926185129876	0
1	7355	2997.811346877427	1
1	7356	2997.818820753708	0
1	7380	3001.523433308271	1
1	7381	3002.916136618736	0
1	7530	3062.181550317143	1
1	7531	3063.051884537958	0
1	7815	3204.990782793957	1
1	7816	3205.256275344106	0
1	7929	3263.43080579041	1
1	7931	3264.032051570357	0
1	7990	3272.507942284258	1
1	7991	3275.231344677301	0
1	9440	3880.635926926874	1
1	9441	3882.465310439119	0
1	10120	4134.689333292192	1
1	10121	4136.668084940735	0
1	11425	4684.979795500747	1
1	11429	4686.701193203118	0
1	11437	4687.792906219838	1
1	11440	4688.250637538777	2
1	11441	4689.750770645017	1
1	11444	4689.919927328843	0
1	11447	4690.407379713828	1
1	11449	4690.557990945637	0
1	11452	4690.968328550399	1
1	11454	4691.320917946436	0
1	11930	4869.222545443856	1
1	11931	4869.305258707943	0
1	11950	4871.817558248674	1
1	11951	4872.895855018383	0
1	12095	4928.50058085246	1
1	12096	4929.720088170979	0
1	12425	5045.634145938858	1
1	12426	5046.388941234922	0
1	12690	5180.616810216131	1
1	12691	5181.930890296792	0
1	12870	5278.307782591213	1
1	12871	5278.696818368844	0
1	12875	5279.319182575037	1
1	12876	5279.526873786215	0
1	13472	5510.288484776914	1
1	13476	5511.459014956241	0
1	13490	5513.812718525769	1
1	13491	5515.383675823089	0
1	13830	5649.474345370843	1
1	13831	5650.227599258604	0
1	14115	5784.285275491445	1
1	14116	5784.976546540964	0
1	14485	5925.813577576212	1
1	14491	5927.637382663364	0
1	15690	6477.184246703477	1
1	15691	6477.195046636866	0
1	15722	6490.363820269234	1
1	15729	6491.040938472999	0
1	15785	6499.876791557743	1
1	15786	6499.946005177797	0
1	16075	6627.436159642533	1
1	16076	6628.199539668228	0
1	16490	6780.736476485814	1
1	16491	6780.954704171475	0
1	16772	6894.339627404925	1
1	16774	6894.43533272764	0
1	16880	6912.067245759184	1
1	16881	6912.635597366705	0
1	16925	6928.616083236312	1
1	16926	6929.77576684414	0
1	17195	6996.870767201776	1
1	17200	6997.968101895086	2
1	17201	6997.987696421045	1
1	17205	6998.629960103138	2
1	17206	6999.557807131405	1
1	17212	7000.475785139357	2
1	17214	7000.522628274431	1
1	17216	7000.755217982408	0
1	17219	7001.074946087892	1
1	17221	7001.427190936323	0
1	17472	7101.754127656121	1
1	17474	7102.447255144132	0
1	17479	7102.67054035092	1
1	17484	7104.206432703885	0
1	17616	7162.835327948866	1
1	17624	7164.333083768867	0
1	17635	7165.858060382357	1
1	17639	7167.917723151773	0
1	18005	7331.585234073009	1
1	18006	7331.895532024642	0
1	18057	7338.889133590411	1
1	18061	7339.716692006637	0
1	18179	7357.596659202599	1
1	18181	7357.92893627826	0
1	18202	7360.930564775182	1
1	18209	7361.813686727617	0
1	18630	7552.575502320059	1
1	18631	7553.9758974236	0
1	18640	7555.478209781604	1
1	18641	7555.598576887643	0
1	18702	7583.645831398326	1
1	18704	7584.137618468107	0
1	18775	7615.552312615329	1
1	18776	7616.326812224531	0
1	18857	7634.090447682525	1
1	18859	7634.47625315513	0
1	18862	7634.572040574775	1
1	18866	7635.347541321459	0
1	18870	7635.787634069024	1
1	18871	7636.870719728506	0
1	18877	7637.710665380842	1
1	18881	7638.151566925636	0
1	19015	7679.943217712242	1
1	19016	7679.990072254914	0
1	19035	7683.221566499103	1
1	19036	7683.363898759217	0
1	19040	7684.090699795562	1
1	19041	7684.296380974678	0
1	19165	7741.045102822732	1
1	19166	7741.477502470959	0
1	19175	7742.621490676311	1
1	19176	7742.934256947904	0
1	19617	7913.025917397387	1
1	19619	7913.313701176357	0
1	19627	7914.844694982277	1
1	19651	7917.787020244565	0
1	19654	7918.17525306623	1
1	19659	7919.087875135619	0
1	20492	8250.712604461022	1
1	20496	8252.103612216643	0
1	20502	8252.757785120501	1
1	20504	8253.439095205933	0
1	20510	8254.055743218992	1
1	20511	8254.176156658799	0
1	20844	8425.824600495061	1
1	20846	8426.121744703745	0
1	20945	8446.601356199157	1
1	20949	8447.398798581342	0
1	21120	8495.366783364419	1
1	21121	8496.12192830504	0
1	21125	8496.887032942521	1
1	21126	8497.565266780543	0
1	21130	8498.431960045627	1
1	21131	8498.52954853325	0
1	21137	8499.473954007717	1
1	21139	8499.781632573134	0
1	21395	8614.344663121311	1
1	21399	8615.068325367306	0
1	21665	8688.281375631379	1
1	21666	8689.152959441465	0
1	21770	8735.791650964166	1
1	21771	8736.173702041339	0
1	21775	8736.931712462008	1
1	21779	8737.344553137012	0
1	21972	8822.15501974853	1
1	21974	8822.576364374664	0
1	21985	8824.48396161957	1
1	21986	8825.636629747816	0
1	22220	8949.329406203215	1
1	22221	8950.441858143255	0
1	22232	8951.851641790092	1
1	22236	8954.276611381928	0
1	22650	9177.473797581488	1
1	22651	9177.801335839908	0
1	22915	9292.898441302886	1
1	22919	9293.30866221697	0
1	22980	9302.04037835789	1
1	22984	9302.561292852899	0
1	22987	9303.002784175493	1
1	22989	9303.224185830348	0
1	23370	9478.568979555668	1
1	23371	9479.155000370236	0
1	23540	9528.483886639468	1
1	23541	9529.03217563366	0
1	24555	9998.165719638271	1
1	24556	9998.762647164691	0
1	25125	10206.705906815753	1
1	25126	10207.055522994615	0
1	25442	10320.898747892339	1
1	25449	10322.394434420893	0
1	25535	10362.363744892583	1
1	25536	10362.922325424343	0
1	25725	10417.230353127966	1
1	25726	10417.502142818783	0
1	26194	10584.662652679682	1
1	26196	10585.537155845083	0
1	26199	10585.638838880845	1
1	26202	10586.385471859817	2
1	26204	10586.595554790623	1
1	26206	10586.625833320053	0
1	26334	10627.31421579996	1
1	26342	10628.396233109412	2
1	26347	10629.249165907017	3
1	26349	10629.601919590847	2
1	26357	10630.652159382057	3
1	26366	10632.089592948047	2
1	26375	10632.478542978612	1
1	26377	10632.599944276168	0
1	26396	10635.327651699985	1
1	26398	10635.735359941497	0
1	26432	10640.87334413368	1
1	26434	10641.470567562551	0
1	26437	10641.720235090076	1
1	26441	10642.194776305248	0
1	26444	10642.22388321988	1
1	26446	10642.627906509389	0
1	26520	10666.634734146325	1
1	26521	10667.714398109879	0
1	26532	10669.137407057838	1
1	26535	10669.580588811369	2
1	26536	10672.072645998652	1
1	26539	10672.073421380146	0
1	26542	10672.495408153766	1
1	26544	10672.746099414446	0
1	26547	10672.912598679167	1
1	26549	10673.065342334821	0
1	27527	11166.047643643135	1
1	27529	11166.300917764199	0
1	27995	11349.426626934484	1
1	27996	11350.333453787373	0
1	28235	11460.916305451267	1
1	28236	11461.024895135093	0
1	28240	11461.474052707258	1
1	28241	11462.662336116896	0
1	28245	11463.516999350029	1
1	28246	11463.567184682991	0
1	28575	11596.720347648782	1
1	28576	11597.20890674087	0
1	28620	11620.306869167827	1
1	28621	11621.281485109362	0
1	28625	11621.697240663278	1
1	28626	11622.553584194327	0
1	28630	11623.248969491156	1
1	28631	11623.543405427934	0
1	28880	11683.333637163932	1
1	28881	11683.548233323336	0
1	29155	11828.469449740162	1
1	29156	11828.48373208791	0
1	29690	12045.838132461792	1
1	29691	12045.899701836147	0
1	29774	12057.27537371181	1
1	29776	12057.626733957201	0
1	30322	12284.9905019497	1
1	30324	12285.313476877057	0
1	30327	12285.594755640343	1
1	30329	12285.811853169089	0
1	30340	12287.31279760976	1
1	30341	12287.350454402535	0
1	30875	12427.978880329405	1
1	30876	12428.609144993752	0
1	31015	12488.163224763468	1
1	31016	12489.29895305492	0
1	31285	12569.76190643532	1
1	31292	12572.039861475099	2
1	31296	12572.578496672346	1
1	31299	12573.020016308902	2
1	31301	12573.620609255275	1
1	31304	12573.768635470355	2
1	31307	12574.526522475602	3
1	31310	12574.959304593298	4
1	31311	12575.210279681897	3
1	31314	12576.13142476895	2
1	31329	12579.276625886293	1
1	31331	12579.786538317824	0
1	31554	12651.804814217145	1
1	31556	12652.50915877296	0
1	31625	12683.218397089679	1
1	31626	12684.424131927115	0
1	31632	12685.285723916196	1
1	31634	12685.532229748397	0
1	31862	12766.746118171462	1
1	31864	12766.869815204349	0
1	33060	13298.877845833646	1
1	33061	13299.240374299356	0
1	33080	13302.638028216113	1
1	33081	13302.880208641116	0
1	33715	13571.816549549309	1
1	33721	13572.958965282244	0
1	34485	13917.690768689108	1
1	34486	13918.147547465398	0
1	34490	13918.737629069502	1
1	34491	13920.185329921213	0
1	34590	13975.577898679447	1
1	34594	13976.355338190251	0
1	34597	13976.974175148356	1
1	34599	13977.129649232135	0
1	34615	13980.007422488733	1
1	34616	13981.812739486592	0
1	34782	14042.721366553228	1
1	34791	14044.38135846266	0
1	34895	14113.933595078891	1
1	34901	14116.067337570059	0
1	35000	14171.430266742884	1
1	35004	14171.921235549222	0
1	35275	14236.167196609721	1
1	35276	14237.211737986479	0
1	35300	14248.199853309035	1
1	35301	14249.605331425857	0
1	35390	14302.377991629306	1
1	35396	14304.384824256637	0
1	35400	14305.128652714929	1
1	35401	14305.299981908319	0
1	35405	14305.794870487466	1
1	35406	14305.855276822831	0
1	35410	14306.534369916768	1
1	35411	14306.809212232131	0
1	35537	14359.793667504545	1
1	35541	14361.101598996139	0
1	35547	14361.990383202332	1
1	35549	14362.117637122069	0
1	36015	14550.58911951044	1
1	36016	14550.688954981719	0
1	36095	14597.568654231244	1
1	36096	14598.997320535535	0
1	36477	14731.858115575782	1
1	36480	14732.415615968865	2
1	36481	14732.57223182172	1
1	36484	14732.926475259112	0
1	37570	15237.312445717454	1
1	37571	15237.540032358537	0
1	38015	15495.432627027325	1
1	38016	15496.373067737824	0
1	38020	15497.184136997803	1
1	38021	15497.780272490484	0
1	38055	15511.141960657736	1
1	38056	15512.684876737236	0
1	38060	15513.257755006296	1
1	38061	15513.639538299359	0
1	38785	15793.159601002426	1
1	38789	15793.693301476548	0
1	38792	15794.590904769275	1
1	38794	15794.883681067864	0
1	39410	16033.615032029919	1
1	39411	16033.833265590398	0
1	39425	16037.161719720301	1
1	39426	16038.469406826689	0
1	39542	16089.183427009114	1
1	39545	16089.720156805019	2
1	39546	16091.895427095991	1
1	39549	16092.086456601415	0
1	39572	16096.179459818149	1
1	39574	16096.420014179976	0
1	39580	16097.391833068266	1
1	39581	16097.446278662358	0
1	39730	16144.564781822915	1
1	39731	16145.585196312856	0
1	40025	16242.328487441649	1
1	40026	16243.062367262232	0
1	40037	16244.780953770417	1
1	40041	16245.45491785643	0
1	40267	16342.914210482712	1
1	40269	16343.096052194471	0
1	40285	16346.021447559081	1
1	40286	16346.67640899747	0
1	40500	16437.937357463865	1
1	40501	16438.597684688546	0
1	40765	16566.686615553599	1
1	40766	16567.049259318569	0
1	40770	16567.62903962668	1
1	40771	16567.892469278512	0
1	41020	16675.159278280014	1
1	41021	16675.354091460463	0
1	41185	16757.537442105416	1
1	41186	16757.728876448161	0
1	41190	16758.387756283506	1
1	41191	16758.40588416218	0
1	41195	16758.92319467555	1
1	41196	16759.241240310074	0
1	41200	16759.981396347714	1
1	41201	16762.430564464092	0
1	41295	16783.202964973622	1
1	41296	16783.335353974394	0
1	41627	16909.119417062423	1
1	41629	16909.236514928695	0
1	41785	16958.482149730038	1
1	41786	16958.920198044393	0
1	42817	17350.481490745107	1
1	42821	17351.886632805225	0
1	42825	17352.703543107445	1
1	42829	17353.292800230058	0
1	43585	17656.558762210917	1
1	43586	17656.753919220266	0
1	43592	17657.504745458362	1
1	43594	17657.694360537453	0
1	44104	17844.259287552987	1
1	44112	17846.03064071097	2
1	44116	17846.83210972868	1
1	44121	17847.414527721074	0
1	44192	17863.21597399312	1
1	44195	17863.966245849486	2
1	44199	17864.911260612531	1
1	44201	17865.089886046422	0
1	44350	17918.429870662025	1
1	44351	17918.536887290826	0
1	44400	17928.457268810867	1
1	44401	17928.691796445226	0
1	44407	17929.621208252137	1
1	44409	17929.630190746915	0
1	45395	18327.808822522195	1
1	45396	18328.735785404493	0
1	45500	18366.059743792118	1
1	45501	18366.473357882228	0
1	45652	18414.953500907788	1
1	45654	18415.364632859952	0
1	46090	18567.712020960928	1
1	46096	18568.265283511848	0
1	46114	18570.38363362433	1
1	46116	18570.622409922683	0
1	46124	18572.257639032916	1
1	46129	18573.139367006148	2
1	46131	18573.616922911383	1
1	46146	18575.508481216498	0
1	46430	18728.232124802093	1
1	46434	18728.76458129638	0
1	46540	18781.927087351918	1
1	46551	18784.24238526082	0
1	46995	19012.626472838454	1
1	46996	19013.35177260666	0
1	47040	19026.092588733607	1
1	47041	19026.523163352803	0
1	47740	19317.95010384702	1
1	47741	19318.006859933928	0
1	47745	19318.652574710705	1
1	47746	19319.453331689293	0
1	48330	19575.996122507189	1
1	48331	19576.206502824765	0
1	48335	19576.892221952159	1
1	48339	19578.130274513764	0
1	48360	19581.472908919262	1
1	48364	19582.093166776278	0
1	48384	19584.291810506502	1
1	48387	19585.202785279289	2
1	48389	19585.441982303903	1
1	48392	19585.712419567503	2
1	48394	19585.906621707823	1
1	48396	19586.031740016159	0
1	48630	19684.478493315485	1
1	48631	19684.736174124074	0
1	49105	19833.514160905344	1
1	49106	19835.256789524302	0
1	49222	19875.949336677439	1
1	49224	19875.970980105953	0
1	49585	19993.837464801247	1
1	49586	19994.50002401857	0
1	49997	20153.808950211133	1
1	50004	20154.352285073616	0
1	50025	20157.513630641603	1
1	50026	20157.568927305859	0
1	50095	20168.242168774845	1
1	50104	20170.188533286879	0
1	50545	20354.17844185834	1
1	50546	20354.627687018788	0
1	50579	20359.610707799968	1
1	50586	20360.926425945847	0
1	50589	20361.143482506852	1
1	50593	20361.577216911295	0
1	50812	20452.716763998735	1
1	50814	20452.887464192777	0
1	51000	20518.052937888782	1
1	51001	20521.030511560389	0
1	51265	20654.242048453962	1
1	51266	20656.979940668926	0
1	51270	20657.716666294787	1
1	51271	20657.724388899844	0
1	51297	20662.273406632946	1
1	51299	20662.651339394559	0
1	51942	20890.569524364964	1
1	51946	20891.058084095769	0
1	52240	20977.431064117288	1
1	52241	20977.435507697419	0
1	52504	21094.045507818294	1
1	52506	21094.778300710439	0
1	53080	21321.649252044417	1
1	53084	21324.173844092135	0
1	53107	21327.641896922176	1
1	53111	21328.757900979679	0
1	53174	21352.32914396457	1
1	53179	21352.841702407456	0
1	53185	21354.342309090425	1
1	53186	21354.374140439833	0
1	53245	21362.135911619801	1
1	53246	21362.436884006598	0
1	53250	21362.951645209799	1
1	53251	21365.543297420071	0
1	53480	21444.453157684741	1
1	53481	21445.486528436338	0
1	53505	21448.874135927679	1
1	53506	21449.532410584998	0
1	53510	21450.402938417255	1
1	53511	21451.186900015335	0
1	53515	21451.614367610236	1
1	53516	21452.096702767047	0
1	54990	22290.316352697668	1
1	54994	22291.375622896822	0
1	54997	22291.692459194264	1
1	55000	22292.51252361	2
1	55001	22292.580487879884	1
1	55004	22292.653422613144	0
1	55104	22345.638996806789	1
1	55106	22346.329586334481	0
1	55485	22515.762252386411	1
1	55486	22518.009293462719	0
1	55490	22518.576240655604	1
1	55494	22519.651723568763	0
1	55502	22520.543139378885	1
1	55506	22522.033091396932	0
1	55660	22573.897085618111	1
1	55661	22573.936788877338	0
1	55727	22589.558364228194	1
1	55729	22589.616032679152	0
1	55765	22595.546740460151	1
1	55766	22595.794003690916	0
1	56400	22863.446477072743	1
1	56401	22863.975594829695	0
1	56692	22976.978189162634	1
1	56694	22977.909841517497	0
1	56890	23054.434663737271	1
1	56891	23055.965910808837	0
1	57029	23117.400860594017	1
1	57031	23117.735848252711	0
1	57172	23175.761136903695	1
1	57174	23176.074786866776	0
1	57177	23176.76056770751	1
1	57186	23177.891031501654	0
1	57407	23262.772961857143	1
1	57411	23263.366724866296	0
1	57507	23295.944571447327	1
1	57509	23296.263563547929	0
1	57517	23297.220395484009	1
1	57519	23297.666399992992	0
1	57522	23297.878512213986	1
1	57526	23298.877698100015	0
1	57530	23299.577779871068	1
1	57531	23300.049331684461	0
1	57535	23300.593967095999	1
1	57541	23301.067565389523	0
1	58815	23900.581478404403	1
1	58819	23900.889700071793	0
1	59372	24100.07717323415	1
1	59376	24100.646791470911	0
1	60247	24522.223054744369	1
1	60249	24522.566164219216	0
1	60310	24543.406056169194	1
1	60311	24544.251773583243	0
1	60490	24624.632872430912	1
1	60491	24624.933960351224	0
1	60497	24625.673416163276	1
1	60499	24626.272200185456	0
1	60632	24681.167917131885	1
1	60636	24682.276338891283	0
1	60640	24683.179971185064	1
1	60641	24685.145197012257	0
1	61270	24938.655726053429	1
1	61271	24938.824792494437	0
1	61535	25044.302993607999	1
1	61536	25044.312173663451	0
1	61540	25045.211577851743	1
1	61541	25045.27230800724	0
1	61625	25089.742150029473	1
1	61626	25091.514295382252	0
1	61630	25092.233867996898	1
1	61639	25093.386029024687	0
1	61855	25223.349522609046	1
1	61856	25223.977160482311	0
1	61870	25225.566172493438	1
1	61871	25225.602181933441	0
1	62077	25279.819103267395	1
1	62079	25280.220163762021	0
1	62090	25282.096215855728	1
1	62091	25282.221737780913	0
1	62095	25283.150969545382	1
1	62096	25285.505365108934	0
1	62112	25287.95032415353	1
1	62116	25290.465555943367	0
1	62120	25291.178878530865	1
1	62121	25292.339072338954	0
1	62125	25293.12461009151	1
1	62126	25293.339430859449	0
1	62130	25294.332810777981	1
1	62131	25294.916873585913	0
1	62257	25349.074563726851	1
1	62266	25350.270135873664	0
1	62315	25367.945314140641	1
1	62316	25368.134818975003	0
1	62325	25369.436647000844	1
1	62329	25370.937590620965	0
1	62410	25388.498422404742	1
1	62411	25389.293411586478	0
1	62965	25617.706631484586	1
1	62966	25618.288703015603	0
1	63420	25789.754904010622	1
1	63421	25791.493499750981	0
1	63500	25829.106292868988	1
1	63501	25829.260753979953	0
1	64092	26067.524284544052	1
1	64096	26068.535590457714	0
1	64210	26109.24881289877	1
1	64211	26109.385457120952	0
1	64215	26109.877801909833	1
1	64216	26109.997187670182	0
1	64387	26191.17385550361	1
1	64390	26191.698525305613	2
1	64391	26193.532397130333	1
1	64396	26194.375263117553	0
1	64455	26203.036080615662	1
1	64456	26204.032263806002	0
1	64920	26386.889321878339	1
1	64921	26389.496844188387	0
1	65235	26492.026739258748	1
1	65239	26492.565693428769	0
1	65250	26494.351590854534	1
1	65254	26495.113246558675	0
1	65540	26631.399149602546	1
1	65541	26631.860011568153	0
1	66370	27013.701517307897	1
1	66371	27015.362177901568	0
1	66444	27042.244866152514	1
1	66446	27042.262812744221	0
1	66955	27209.482965159037	1
1	66956	27209.795849411857	0
1	67190	27292.160444337135	1
1	67191	27292.245035736188	0
1	67195	27292.882554310998	1
1	67196	27294.584524240225	0
1	67735	27517.478814342389	1
1	67736	27518.061945973203	0
1	67855	27578.530158701351	1
1	67856	27578.892094051507	0
1	68145	27713.594401825347	1
1	68146	27715.762300741089	0
1	68150	27716.722194013347	1
1	68151	27717.234624815312	0
1	68760	27924.39889218829	1
1	68761	27924.81946209807	0
1	68907	27973.227367424814	1
1	68909	27973.589048098654	0
1	69180	28162.157406644064	1
1	69181	28162.554946621801	0
1	69277	28195.650835532363	1
1	69286	28196.729884835125	0
1	70005	28517.734280237737	1
1	70006	28517.7932727896	0
1	70010	28518.237869659005	1
1	70019	28520.09806129428	0
1	70237	28616.384077134824	1
1	70241	28617.119401198364	0
1	70374	28663.862479249039	1
1	70379	28664.635378344927	0
1	70795	28797.91626746522	1
1	70796	28797.927891213663	0
1	71135	28984.254313200853	1
1	71136	28987.131386485777	0
1	71577	29160.398677950674	1
1	71584	29162.28124198998	0
1	72280	29416.246121280971	1
1	72281	29417.107842362344	0
1	72510	29497.939292942976	1
1	72515	29499.140455094835	2
1	72516	29500.227644035414	1
1	72519	29500.634705660239	0
1	72522	29501.109221576115	1
1	72526	29501.658264797699	0
1	72540	29503.503868938289	1
1	72541	29503.704269698621	0
1	72605	29554.554606331741	1
1	72609	29555.051567314755	0
1	72617	29555.787110133324	1
1	72619	29555.990875167186	0
1	72625	29557.712114862393	1
1	72631	29558.910986198418	0
1	72750	29579.567614136905	1
1	72751	29580.493319981801	0
1	73080	29735.517840931093	1
1	73081	29736.36241172743	0
1	73135	29748.976435175502	1
1	73141	29749.991468887078	0
1	73251	29788.250312249897	1
1	73253	29788.514047284032	0
1	73302	29796.455473344563	1
1	73304	29797.015756942409	0
1	73310	29798.167826398857	1
1	73311	29799.535131662343	0
1	73677	29934.910802269659	1
1	73680	29935.725168228547	2
1	73691	29938.401659937597	1
1	73694	29938.422023171738	0
1	73699	29938.861341364843	1
1	73711	29940.088334170762	0
2	0	0	0
2	25	36.018943908439	1
2	26	36.150586686221	0
2	130	90.884393054337	1
2	131	91.035457271542	0
2	142	92.671733519998	1
2	143	92.725945783145	0
2	147	92.768655125715	1
2	150	93.50848002403	0
2	154	93.783978074209	1
2	155	93.953903849208	0
2	159	94.416724528426	1
2	160	94.904933672649	0
2	167	96.273252481112	1
2	168	96.489790162602	0
2	177	97.640150779171	1
2	178	98.375336371986	0
2	235	123.39874714169	1
2	238	124.023728569624	0
2	405	193.462294888667	1
2	406	193.71357479795	0
2	413	195.178892634536	1
2	414	195.591295240225	0
2	421	196.590099085273	1
2	422	197.175905140314	0
2	437	200.122882140657	1
2	438	200.324617000169	0
2	445	200.899343683401	1
2	446	201.694013781951	0
2	475	211.862397289641	1
2	476	212.523671656849	0
2	510	228.83015928742	1
2	511	228.903817309867	0
2	515	228.910734857347	1
2	519	229.211546580023	2
2	520	229.360265695406	1
2	524	229.447004903175	2
2	525	230.082934697121	1
2	529	230.792926895442	2
2	530	230.956606202116	1
2	534	231.249173324798	2
2	535	231.583313211761	1
2	538	232.218314046561	0
2	585	242.332020619566	1
2	586	242.876356719444	0
2	590	243.097566323397	1
2	591	243.438576008482	0
2	625	252.289135623175	1
2	626	252.625796915791	0
2	650	282.099849399892	1
2	651	282.854746753381	0
2	680	287.514539676269	1
2	681	287.79398020846	0
2	695	289.933834085951	1
2	697	290.263227254813	2
2	698	290.357936459747	1
2	703	290.851855783411	0
2	712	291.534291673277	1
2	713	292.01748083971	0
2	782	322.161098133456	1
2	783	322.475653205727	0
2	865	352.918336137902	1
2	866	353.570511556455	0
2	890	357.046559644383	1
2	891	357.916996648679	0
2	900	358.877679826437	1
2	901	359.72721612807	0
2	915	368.526605402077	1
2	916	369.19501917755	0
2	1107	406.477304824244	1
2	1109	406.63777401018	2
2	1110	406.928966197032	1
2	1113	407.501825636984	0
2	1120	408.599469735871	1
2	1121	409.018307446255	0
2	1155	436.757755327236	1
2	1156	436.865607903234	0
2	1165	437.759322600928	1
2	1166	438.133599618113	0
2	1177	439.562749537521	1
2	1178	439.587556010753	0
2	1185	440.562431505542	1
2	1186	441.357197408786	0
2	1197	441.919952321925	1
2	1198	442.704630546959	0
2	1270	462.067656114467	1
2	1271	462.626590439099	0
2	1280	463.193426802201	1
2	1281	463.947938548661	0
2	1295	465.856808654208	1
2	1296	466.353360925259	0
2	1365	506.013503004657	1
2	1366	506.273828715684	0
2	1370	506.761458361434	1
2	1371	507.215933338033	0
2	1375	507.71582477169	1
2	1376	508.198876564337	0
2	1380	508.284814260205	1
2	1381	509.173747839492	0
2	1390	510.040472986485	1
2	1391	510.55804899404	0
2	1395	510.763767320669	1
2	1396	511.263909613054	0
2	1490	562.327375651842	1
2	1491	562.49662227519	0
2	1595	614.200988396309	1
2	1596	614.41836641343	0
2	1700	680.395221645198	1
2	1701	681.109467615674	0
2	1715	683.959040612424	1
2	1716	684.076465028976	0
2	1725	684.610471991094	1
2	1726	685.227273754063	0
2	1782	706.454440463258	1
2	1783	706.966017184636	0
2	1789	707.593280829084	1
2	1790	707.798189306302	0
2	1794	707.80401846532	1
2	1797	708.525383382939	0
2	1852	722.329059725807	1
2	1853	722.927636638529	0
2	1857	723.606749156103	1
2	1858	723.717349594471	0
2	1862	723.811755626983	1
2	1863	724.440762242407	0
2	1867	724.935192576499	1
2	1868	725.260928526486	0
2	1872	725.752742602198	1
2	1873	725.938851644204	0
2	1880	726.590872016464	1
2	1881	727.315046785085	0
2	1885	728.063917146637	1
2	1886	728.169620428106	0
2	1890	728.385529044673	1
2	1891	729.086396342201	0
2	1900	731.18354898943	1
2	1901	731.223375215802	0
2	1950	748.48638770898	1
2	1951	748.721263999855	0
2	2030	779.656673746026	1
2	2031	779.83709184984	0
2	2070	809.602070041324	1
2	2071	810.101620694627	0
2	2095	818.754471291376	1
2	2096	819.114102540795	0
2	2230	872.963582619802	1
2	2231	873.263285227598	0
2	2245	889.96297025804	1
2	2246	890.4507517035	0
2	2272	909.322292355165	1
2	2273	909.665873805079	0
2	2280	910.312814246692	1
2	2281	910.804849254032	0
2	2300	937.445191125217	1
2	2301	937.71840936131	0
2	2310	939.203281207414	1
2	2311	939.338355957709	0
2	2335	943.963107532436	1
2	2336	943.998089798653	0
2	2340	944.396717311348	1
2	2341	944.609911503104	0
2	2345	944.738437639945	1
2	2346	945.254167429191	0
2	2350	945.430804550118	1
2	2351	945.739652968078	0
2	2405	964.277898413979	1
2	2406	964.457417389652	0
2	2505	1044.595002114692	1
2	2506	1044.937183880996	0
2	2650	1104.606467360479	1
2	2651	1104.646676663852	0
2	2665	1112.405339776577	1
2	2666	1112.883445268154	0
2	2675	1113.882516973712	1
2	2676	1114.701645225869	0
2	2747	1146.249583329165	1
2	2750	1146.813147096972	0
2	2765	1149.530457176937	1
2	2768	1150.16563158126	0
2	2792	1154.796195118831	1
2	2793	1155.464079881949	0
2	2797	1155.510559181609	1
2	2798	1156.019214743819	0
2	2802	1156.186880786674	1
2	2803	1156.446805084428	0
2	2810	1157.408897286407	1
2	2812	1157.792044399713	2
2	2813	1158.025998435241	1
2	2816	1159.008685162456	0
2	2825	1159.641087721409	1
2	2826	1160.228312391239	0
2	2850	1168.177799566013	1
2	2851	1168.936734676572	0
2	2865	1171.113674741449	1
2	2866	1171.763711225766	0
2	2925	1202.721922032383	1
2	2926	1203.403096080649	0
2	2930	1203.584399248265	1
2	2931	1204.317446295715	0
2	3020	1240.277652621285	1
2	3021	1240.680225336338	0
2	3035	1243.367660361353	1
2	3037	1243.88653116256	2
2	3038	1243.969716929138	1
2	3041	1244.478987502825	0
2	3055	1247.246232870439	1
2	3058	1247.425043951025	0
2	3065	1248.113921502372	1
2	3066	1248.754781292615	0
2	3077	1249.771771469071	1
2	3078	1250.033089852104	0
2	3127	1310.93835232831	1
2	3128	1310.956167027337	0
2	3260	1378.837502697181	1
2	3263	1379.173639589668	0
2	3272	1379.861289110212	1
2	3273	1380.336252792625	0
2	3277	1380.432013411033	1
2	3279	1380.665710313109	2
2	3280	1381.008864769785	1
2	3283	1381.561172488079	0
2	3310	1387.405908032387	1
2	3313	1387.664430052766	0
2	3370	1401.93554158014	1
2	3371	1402.214877976796	0
2	3375	1402.459381284955	1
2	3376	1402.808062296028	0
2	3380	1403.191033751588	1
2	3381	1403.313374819786	0
2	3385	1403.910736474629	1
2	3386	1404.108786411251	0
2	3390	1404.135970219254	1
2	3391	1404.603053283406	0
2	3395	1405.335694608193	1
2	3396	1405.558076266752	0
2	3400	1405.936601017554	1
2	3401	1406.524996368255	0
2	3450	1417.023698440997	1
2	3451	1417.677769699941	0
2	3460	1429.105401508907	1
2	3461	1429.121768571385	0
2	3465	1429.699587623788	1
2	3466	1429.874445845787	0
2	3562	1477.815389232251	1
2	3564	1477.959586273127	2
2	3569	1478.689205471879	1
2	3574	1479.522726262441	0
2	3780	1591.566221019831	1
2	3781	1591.972776561507	0
2	3792	1593.708846207002	1
2	3793	1593.770743322019	0
2	3800	1594.624214731166	1
2	3801	1595.10899757158	0
2	3845	1615.666437046769	1
2	3846	1615.821544919144	0
2	3850	1615.845136115381	1
2	3851	1616.237239342164	0
2	3855	1616.276332516362	1
2	3857	1616.364360478473	2
2	3858	1617.061800959641	1
2	3862	1617.228578163614	2
2	3863	1617.984718436822	1
2	3867	1618.438688495503	2
2	3868	1618.954289822029	1
2	3871	1619.398437724989	0
2	3875	1619.984954951487	1
2	3876	1620.172357582655	0
2	3900	1630.358486346757	1
2	3901	1630.431025904802	0
2	3907	1630.545669052488	1
2	3908	1631.369613561186	0
2	4020	1664.540177813153	1
2	4021	1665.079016184102	0
2	4095	1686.232209883428	1
2	4098	1686.398966894479	0
2	4102	1686.572252570666	1
2	4103	1686.919369671721	0
2	4152	1703.76692108634	1
2	4153	1703.830278951373	0
2	4160	1704.556394029797	1
2	4162	1704.573948980759	2
2	4164	1704.781107988949	3
2	4165	1705.17226724045	2
2	4170	1705.739432661073	1
2	4174	1706.034701281109	2
2	4175	1706.408924395708	1
2	4179	1706.452139495141	2
2	4182	1706.820092201257	1
2	4186	1707.211526764394	2
2	4187	1707.453319988331	1
2	4190	1708.23402812977	0
2	4215	1714.86641228591	1
2	4216	1715.054881812831	0
2	4220	1715.078947618412	1
2	4221	1715.561916764466	0
2	4300	1753.697921630716	1
2	4301	1754.166572911108	0
2	4355	1764.944448829867	1
2	4356	1765.175005653404	0
2	4380	1771.437529383461	1
2	4381	1771.738906082014	0
2	4405	1777.359957206263	1
2	4406	1777.761733569709	0
2	4435	1802.658157760062	1
2	4436	1802.823542722448	0
2	4455	1805.584312699667	1
2	4456	1805.996530037702	0
2	4485	1812.311651897994	1
2	4486	1812.71313091361	0
2	4495	1813.823481800464	1
2	4496	1814.368134352314	0
2	4505	1815.004792872045	1
2	4506	1815.330913720541	0
2	4775	1991.961520223232	1
2	4776	1992.594806829494	0
2	4825	2006.817528790382	1
2	4826	2006.984146272773	0
2	4835	2007.566491557179	1
2	4838	2008.270475122389	0
2	4965	2062.290357732779	1
2	4966	2062.542671221134	0
2	5040	2107.714567366361	1
2	5041	2108.236995671437	0
2	5057	2111.516703064729	1
2	5058	2112.126950455254	0
2	5065	2113.264406130761	1
2	5066	2113.3006416831	0
2	5130	2134.600988230469	1
2	5131	2134.86045107979	0
2	5190	2146.793890529592	1
2	5193	2147.153161156597	0
2	5207	2148.362230625739	1
2	5208	2148.750615327619	0
2	5217	2150.055789372783	1
2	5218	2150.354947041627	0
2	5230	2151.841088312239	1
2	5233	2152.671673282049	0
2	5247	2154.420222041688	1
2	5248	2155.054264797549	0
2	5257	2155.992687055036	1
2	5258	2156.539339869748	0
2	5294	2161.636711924367	1
2	5295	2161.916018819063	0
2	5305	2163.256322864279	1
2	5308	2163.855373800079	0
2	5317	2165.091611211488	1
2	5318	2165.239144328328	0
2	5325	2166.239890561535	1
2	5326	2167.001325895403	0
2	5395	2195.177684015073	1
2	5396	2195.467633941966	0
2	5430	2203.990425265851	1
2	5432	2204.327478275567	2
2	5433	2204.42112543154	1
2	5438	2204.887665874646	0
2	5442	2204.942667755343	1
2	5443	2205.876961876261	0
2	5447	2206.655403166778	1
2	5448	2206.72441408643	0
2	5455	2207.532958097411	1
2	5456	2208.155135643989	0
2	5530	2226.005578090945	1
2	5531	2226.382465898043	0
2	5540	2227.039510041642	1
2	5541	2227.781099246892	0
2	5625	2264.946442475044	1
2	5626	2265.0758804232	0
2	5635	2270.903065545046	1
2	5636	2271.033283590509	0
2	5750	2318.53358681119	1
2	5751	2319.149243585379	0
2	5785	2331.008414113495	1
2	5786	2331.658235088537	0
2	5830	2355.999249586987	1
2	5831	2356.354012728988	0
2	5840	2357.422458519826	1
2	5841	2357.428776223554	0
2	5932	2405.851321890573	1
2	5933	2405.875923222413	0
2	5940	2406.689431648826	1
2	5941	2407.422101922257	0
2	5965	2412.748631051528	1
2	5966	2413.212070092568	0
2	5985	2432.653284859748	1
2	5986	2433.256432539158	0
2	6020	2441.565443432798	1
2	6021	2442.22440704997	0
2	6025	2442.427038670996	1
2	6026	2442.663992126755	0
2	6030	2442.927335849921	1
2	6031	2443.312436718124	0
2	6035	2443.645029160146	1
2	6036	2444.259069596187	0
2	6040	2444.338344893645	1
2	6041	2444.894367698536	0
2	6105	2476.808044511084	1
2	6106	2476.994747987166	0
2	6140	2486.700738248829	1
2	6141	2486.969867475589	0
2	6200	2513.077352891622	1
2	6201	2513.563692376226	0
2	6220	2517.73763657608	1
2	6223	2518.239247509389	0
2	6355	2598.76294124282	1
2	6356	2598.812008213885	0
2	6360	2599.137086356647	1
2	6361	2599.425975882383	0
2	6365	2599.840801511292	1
2	6366	2599.848632647637	0
2	6390	2604.192871101597	1
2	6391	2604.536700232889	0
2	6485	2643.075245207775	1
2	6486	2643.697840676887	0
2	6505	2647.054593384672	1
2	6506	2647.2753044988	0
2	6515	2648.263653604742	1
2	6518	2648.971613517121	0
2	6610	2682.798378688879	1
2	6613	2683.249053197541	0
2	6675	2721.131269494417	1
2	6676	2721.522967412953	0
2	6690	2723.475940297543	1
2	6691	2723.681141805522	0
2	6935	2837.293588205133	1
2	6938	2837.783021799185	0
2	6955	2850.054653089171	1
2	6956	2850.064901548855	0
2	7065	2913.662245479692	1
2	7066	2913.979372692063	0
2	7070	2914.752905776361	1
2	7072	2914.774350176491	2
2	7073	2914.841613139679	1
2	7076	2915.394113371709	0
2	7080	2915.499728743724	1
2	7081	2916.321787375679	0
2	7120	2929.41094363794	1
2	7121	2930.043966793726	0
2	7150	2945.026534976293	1
2	7152	2945.029656232415	2
2	7153	2945.439909330597	1
2	7156	2945.854112853464	0
2	7160	2945.957304319707	1
2	7163	2946.45790217801	0
2	7182	2948.710937983382	1
2	7185	2949.673798220912	0
2	7191	2950.285514779999	1
2	7192	2950.409844631823	0
2	7196	2950.533059649058	1
2	7197	2951.071049653068	0
2	7201	2951.380437196587	1
2	7202	2951.882323820265	0
2	7315	2990.955511595938	1
2	7316	2991.29061828745	0
2	7320	2991.333120211368	1
2	7321	2991.755958281648	0
2	7325	2992.273871402243	1
2	7326	2992.292559620696	0
2	7415	3028.058543629806	1
2	7416	3028.067127195948	0
2	7420	3028.431795682763	1
2	7421	3028.627680454745	0
2	7610	3084.450191147276	1
2	7611	3084.636300740522	0
2	7620	3085.620409732508	1
2	7621	3086.514062369373	0
2	7655	3104.638558634021	1
2	7656	3104.731285945646	0
2	7665	3117.65952278641	1
2	7666	3118.118682803277	0
2	7770	3179.907072247099	1
2	7771	3180.394509157913	0
2	7895	3258.23225348655	1
2	7896	3258.498628034987	0
2	7905	3259.767761325449	1
2	7908	3260.150281700152	0
2	7919	3261.17920257347	1
2	7920	3261.79808094854	0
2	7927	3263.227676764061	1
2	7928	3263.43080579041	0
2	7937	3264.252429003563	1
2	7940	3265.18400180683	0
2	7949	3266.051548051467	1
2	7950	3266.560967143192	0
2	7957	3267.715352140634	1
2	7958	3268.064415091356	0
2	7967	3268.769342677695	1
2	7969	3268.968271074316	2
2	7970	3269.182388278363	1
2	7977	3269.88344061541	0
2	8017	3278.990271377307	1
2	8018	3279.599042080825	0
2	8027	3280.546665447541	1
2	8028	3281.066782298096	0
2	8035	3281.942384647748	1
2	8036	3282.479624731204	0
2	8045	3283.19597704002	1
2	8048	3283.887809306704	0
2	8115	3319.616244687028	1
2	8116	3319.998404313558	0
2	8155	3339.567367644175	1
2	8156	3339.778350374748	0
2	8200	3360.463718812007	1
2	8202	3360.995991698644	2
2	8203	3361.245577199202	1
2	8206	3361.920092681706	0
2	8250	3380.899065045293	1
2	8251	3380.968964978384	0
2	8280	3391.883625996982	1
2	8281	3391.980576982478	0
2	8345	3427.992104080887	1
2	8348	3428.44216426341	0
2	8352	3428.516780991243	1
2	8355	3429.167343232177	0
2	8359	3429.219469482396	1
2	8360	3429.7006855906	0
2	8390	3448.554457283799	1
2	8391	3449.415530348123	0
2	8395	3449.535223664975	1
2	8396	3450.033892408871	0
2	8415	3456.874045720312	1
2	8416	3457.291632499508	0
2	8425	3458.503889497367	1
2	8427	3459.146584740122	2
2	8428	3459.152110150997	1
2	8431	3459.88965170512	0
2	8450	3462.123458966854	1
2	8453	3462.960468264637	0
2	8462	3463.92948689588	1
2	8463	3464.378487866852	0
2	8470	3465.341684286872	1
2	8471	3465.861161003835	0
2	8502	3476.170747967382	1
2	8503	3476.314093552841	0
2	8512	3476.932142079827	1
2	8513	3477.452911564647	0
2	8530	3479.859825311933	1
2	8533	3480.26874007433	0
2	8542	3481.361371675859	1
2	8543	3481.652145493863	0
2	8550	3482.746552020029	1
2	8551	3483.20400049956	0
2	8635	3521.780349864357	1
2	8637	3522.151838613541	2
2	8638	3522.285398218005	1
2	8643	3522.874505717835	0
2	8650	3523.493974697426	1
2	8651	3524.31406323129	0
2	8755	3585.665011220223	1
2	8756	3585.948779268608	0
2	8830	3611.446823008307	1
2	8831	3611.639290996973	0
2	8835	3612.108218072813	1
2	8836	3612.608222280821	0
2	8875	3636.131986907749	1
2	8878	3636.243677183408	0
2	8882	3636.591284066902	1
2	8884	3636.632308068751	2
2	8885	3637.143864474473	1
2	8889	3637.590613200061	2
2	8890	3637.767190877469	1
2	8893	3638.723957251971	0
2	8900	3639.756156718037	1
2	8901	3639.803456293912	0
2	8935	3647.991953419301	1
2	8936	3648.07555204644	0
2	8975	3657.125080550445	1
2	8976	3657.367293786526	0
2	9117	3740.121984243096	1
2	9118	3740.123403376879	0
2	9127	3741.268576867184	1
2	9128	3741.474975116903	0
2	9137	3743.165612728329	1
2	9138	3743.239855204875	0
2	9145	3744.387304587187	1
2	9146	3744.508440892611	0
2	9155	3746.490937388064	1
2	9156	3747.245106398652	0
2	9195	3767.464480010133	1
2	9196	3767.486416495627	0
2	9200	3767.539382132268	1
2	9203	3768.014947921306	0
2	9207	3768.135924327513	1
2	9209	3768.536633842639	2
2	9210	3768.845138574474	1
2	9214	3768.904867327994	2
2	9215	3769.651071344957	1
2	9219	3769.904793671571	2
2	9220	3770.209828732524	1
2	9223	3770.874156136613	0
2	9315	3826.358771680391	1
2	9316	3827.141949763029	0
2	9330	3833.980990176024	1
2	9331	3834.169525468868	0
2	9335	3834.533411032021	1
2	9336	3835.007300482091	0
2	9340	3835.129081813106	1
2	9341	3835.907299299218	0
2	9390	3867.034366880347	1
2	9391	3867.817164459061	0
2	9395	3867.885653325041	1
2	9398	3868.447144827787	0
2	9475	3892.190042216463	1
2	9476	3892.472203473629	0
2	9482	3893.072064409932	1
2	9483	3893.329729921719	0
2	9487	3893.938683424313	1
2	9488	3894.034156591142	0
2	9495	3894.913396381986	1
2	9496	3894.942645959858	0
2	9540	3904.226643599981	1
2	9541	3904.556680084363	0
2	9545	3904.745080720178	1
2	9546	3905.104365965927	0
2	9565	3918.492843647626	1
2	9568	3919.077421148452	0
2	9572	3919.372750287118	1
2	9573	3919.518327978584	0
2	9590	3921.36640730523	1
2	9591	3921.871291812879	0
2	9595	3922.060473440213	1
2	9596	3922.868142106009	0
2	9600	3922.901814167396	1
2	9601	3923.46469664322	0
2	9605	3923.475291354119	1
2	9606	3924.068599199036	0
2	9610	3924.390048599222	1
2	9611	3924.973661438793	0
2	9680	3956.012337031492	1
2	9681	3956.831817258052	0
2	9760	3985.318433579253	1
2	9761	3985.986653788459	0
2	9790	3999.428212125996	1
2	9791	3999.46240708547	0
2	9800	4000.074368165511	1
2	9801	4000.730103817613	0
2	9810	4001.526889287934	1
2	9811	4001.812077573997	0
2	9820	4002.476079382513	1
2	9823	4002.952279121009	0
2	9835	4004.077394109454	1
2	9836	4004.664506254731	0
2	9900	4020.229881100517	1
2	9901	4020.879730418629	0
2	9915	4023.077806409762	1
2	9916	4023.742525055837	0
2	10045	4122.552092777734	1
2	10050	4123.009908493491	0
2	10067	4125.417962224128	1
2	10068	4126.035655071004	0
2	10089	4128.638230004341	1
2	10090	4128.737316439462	0
2	10140	4145.642836120126	1
2	10141	4146.237908769139	0
2	10230	4185.782414182356	1
2	10231	4185.984222320389	0
2	10250	4189.526717161388	1
2	10251	4189.681355704905	0
2	10255	4189.725184281038	1
2	10258	4190.527515294848	0
2	10265	4191.149776278235	1
2	10266	4191.896596275436	0
2	10285	4196.489982499992	1
2	10286	4196.851861343708	0
2	10295	4197.541433261484	1
2	10296	4198.461413981056	0
2	10360	4231.254632679589	1
2	10361	4231.348346517498	0
2	10470	4274.586937905316	1
2	10471	4274.904884581798	0
2	10630	4364.957283351914	1
2	10632	4365.006584737876	2
2	10633	4365.756475115634	1
2	10636	4366.323610462268	0
2	10640	4366.349038140051	1
2	10643	4366.947671962922	0
2	10647	4367.14609106907	1
2	10648	4367.704503942208	0
2	10685	4407.057425174261	1
2	10686	4407.242659384711	0
2	10740	4425.405254247962	1
2	10741	4425.864753953902	0
2	10820	4454.38677326357	1
2	10821	4454.825502594322	0
2	10827	4455.772330740296	1
2	10828	4455.774252522917	0
2	10890	4482.517612435909	1
2	10891	4483.200793058879	0
2	10900	4483.886647786728	1
2	10901	4484.594526291953	0
2	10910	4485.699199032567	1
2	10911	4486.185936591437	0
2	10925	4488.144768653616	1
2	10926	4488.910754319713	0
2	10975	4526.846470433538	1
2	10976	4526.923859045959	0
2	10980	4527.123038205959	1
2	10981	4527.685703701178	0
2	10985	4527.807525275506	1
2	10986	4528.280670235563	0
2	10990	4528.394264582409	1
2	10991	4528.706596455887	0
2	10995	4529.241638099165	1
2	10996	4529.49620943193	0
2	11000	4529.96930988004	1
2	11001	4530.096633851646	0
2	11005	4530.701635353882	1
2	11006	4530.721134769802	0
2	11047	4547.939773261089	1
2	11048	4548.215234729683	0
2	11052	4548.333818882867	1
2	11053	4549.178508556483	0
2	11057	4549.207927420684	1
2	11058	4549.723714433646	0
2	11062	4549.869248765381	1
2	11063	4550.403777803423	0
2	11067	4550.611929937578	1
2	11068	4551.075907391019	0
2	11072	4551.078321422431	1
2	11073	4551.692192742776	0
2	11077	4552.025800777222	1
2	11078	4552.278375091951	0
2	11082	4552.6170594235	1
2	11083	4553.109393201571	0
2	11090	4554.081526644272	1
2	11092	4554.211585999888	2
2	11093	4554.717706302962	1
2	11096	4555.418230281573	0
2	11100	4555.469912812378	1
2	11101	4556.417718609411	0
2	11120	4563.929573073697	1
2	11121	4564.260412164528	0
2	11130	4565.061445198706	1
2	11131	4565.742693588075	0
2	11135	4565.890266521853	1
2	11136	4566.268121743605	0
2	11275	4612.007474636059	1
2	11276	4612.40004598273	0
2	11300	4618.410368579655	1
2	11301	4618.961854327429	0
2	11305	4619.03207309479	1
2	11306	4619.452448787453	0
2	11310	4619.703851884613	1
2	11311	4620.412654392334	0
2	11315	4621.018461277779	1
2	11316	4621.137342801277	0
2	11360	4653.159731808786	1
2	11361	4653.611809724213	0
2	11487	4696.711182558072	1
2	11488	4696.826060059926	0
2	11494	4697.210894430952	1
2	11497	4697.605430121607	0
2	11504	4698.578324140402	1
2	11505	4699.144529556137	0
2	11512	4700.673837498609	1
2	11513	4701.129754735882	0
2	11535	4704.426895298304	1
2	11536	4704.620348897858	0
2	11550	4706.70777661218	1
2	11551	4707.316291834195	0
2	11575	4725.820882938538	1
2	11576	4725.833736191349	0
2	11585	4726.821315420168	1
2	11586	4727.122664752774	0
2	11650	4756.955415103614	1
2	11651	4757.093649839592	0
2	11690	4773.24428301824	1
2	11691	4773.679617503624	0
2	11695	4774.004729425924	1
2	11696	4774.319320589875	0
2	11765	4808.485539073127	1
2	11766	4808.74877609877	0
2	11775	4809.88645635418	1
2	11776	4810.549378869972	0
2	11825	4832.156371394281	1
2	11827	4832.180597629505	2
2	11828	4832.708173894108	1
2	11831	4833.128706048214	0
2	11835	4833.290615760795	1
2	11836	4833.915085999872	0
2	11840	4834.583866061829	1
2	11841	4834.59922581424	0
2	11970	4875.884561649411	1
2	11971	4876.806994116705	0
2	12000	4892.644715838996	1
2	12001	4892.703268228325	0
2	12010	4893.514777487381	1
2	12011	4894.002710758366	0
2	12030	4900.068272641616	1
2	12032	4900.417801705208	2
2	12033	4900.675251822223	1
2	12036	4901.205964093798	0
2	12060	4909.466042103404	1
2	12061	4909.599249094304	0
2	12125	4936.848059365058	1
2	12126	4937.582520627231	0
2	12140	4939.413403326311	1
2	12141	4939.516869131757	0
2	12215	4967.818534762255	1
2	12217	4968.358939371099	2
2	12218	4968.752831229722	1
2	12223	4969.1899040864	0
2	12227	4969.996580597774	1
2	12228	4970.158231028324	0
2	12235	4971.163801288364	1
2	12236	4971.975653945949	0
2	12255	4975.118031301049	1
2	12256	4975.76463231246	0
2	12275	4998.853723865947	1
2	12276	4999.39639405742	0
2	12400	5041.664328445144	1
2	12401	5042.146383381143	0
2	12415	5043.506302460812	1
2	12416	5043.874520997397	0
2	12450	5050.720389928135	1
2	12451	5050.771036352889	0
2	12520	5078.408374516529	1
2	12521	5079.003422019395	0
2	12530	5080.102883380183	1
2	12531	5080.460787009631	0
2	12555	5086.034640275719	1
2	12556	5086.503062209446	0
2	12630	5154.032907503034	1
2	12631	5154.201588062616	0
2	12665	5173.663327450653	1
2	12666	5173.940665026403	0
2	12682	5179.385546937097	1
2	12683	5179.462459670921	0
2	12700	5182.919414430558	1
2	12701	5183.238463760965	0
2	12720	5186.379613235173	1
2	12721	5186.765513513548	0
2	12770	5225.080733253255	1
2	12771	5225.344118089487	0
2	12845	5263.986089097009	1
2	12846	5264.816517796211	0
2	12885	5280.817978682438	1
2	12886	5281.186490194405	0
2	12915	5288.700539048007	1
2	12916	5289.122070968902	0
2	12955	5305.549755135401	1
2	12956	5305.665233607183	0
2	12960	5306.061710308018	1
2	12961	5306.386932420091	0
2	13015	5333.439732860882	1
2	13016	5333.89200644714	0
2	13050	5340.868344271108	1
2	13051	5341.498939301787	0
2	13110	5369.448149774819	1
2	13111	5370.125504100859	0
2	13145	5388.568164274129	1
2	13146	5388.907467772892	0
2	13155	5389.786589764636	1
2	13156	5390.292474658542	0
2	13165	5391.181138988677	1
2	13166	5391.771770242038	0
2	13190	5411.883774506462	1
2	13191	5412.438459147132	0
2	13230	5430.979391664209	1
2	13231	5431.324826831763	0
2	13235	5431.586888636275	1
2	13236	5432.321370208237	0
2	13245	5433.037026613121	1
2	13246	5433.895814010195	0
2	13262	5435.954527480608	1
2	13265	5436.265631385066	0
2	13335	5489.595709953018	1
2	13338	5490.19628276632	0
2	13342	5490.939556873496	1
2	13343	5491.149139515663	0
2	13347	5491.200784031809	1
2	13350	5491.904585643931	0
2	13354	5492.052694554214	1
2	13355	5492.485492583624	0
2	13362	5493.096144726846	1
2	13363	5493.422650636946	0
2	13367	5493.860929647052	1
2	13368	5494.286653765272	0
2	13372	5494.310982190015	1
2	13373	5494.734554831059	0
2	13377	5495.013412566518	1
2	13378	5495.673323180461	0
2	13392	5497.996417915628	1
2	13393	5498.617433798648	0
2	13397	5499.009096736515	1
2	13400	5499.091936609717	0
2	13407	5500.585851371355	1
2	13408	5500.648821448963	0
2	13412	5500.764963436212	1
2	13415	5501.621401036214	0
2	13421	5501.733194203039	1
2	13423	5501.845037943477	2
2	13424	5502.040560119189	1
2	13428	5502.223547239111	2
2	13429	5502.478579805148	1
2	13432	5503.151726680164	0
2	13436	5503.261488817354	1
2	13437	5504.138307429765	0
2	13444	5504.957932367886	1
2	13445	5505.710231365924	0
2	13454	5506.885124135704	1
2	13455	5507.095004855804	0
2	13495	5515.926035744159	1
2	13498	5516.332777786868	0
2	13575	5572.322245982434	1
2	13576	5572.710275159983	0
2	13595	5581.856080981746	1
2	13596	5582.483630531131	0
2	13620	5596.430780955715	1
2	13621	5596.698384662319	0
2	13625	5596.808953943115	1
2	13626	5597.176966546822	0
2	13637	5598.359705754316	1
2	13638	5598.511874811883	0
2	13644	5598.676982442238	1
2	13645	5599.021929086112	0
2	13675	5603.293079736327	1
2	13676	5603.560935859502	0
2	13690	5608.085555099761	1
2	13691	5608.466386830218	0
2	13700	5609.565666186402	1
2	13701	5609.85054920811	0
2	13720	5612.973291267374	1
2	13721	5613.262134162734	0
2	13745	5618.166924699921	1
2	13746	5618.497333131114	0
2	13750	5618.610368069039	1
2	13752	5618.935820132261	2
2	13753	5619.204361842515	1
2	13756	5620.07763842101	0
2	13760	5620.153005799172	1
2	13763	5621.029395108565	0
2	13767	5621.13648231216	1
2	13768	5621.956642098713	0
2	13772	5622.046584870132	1
2	13773	5622.887170579785	0
2	13880	5675.169855165288	1
2	13881	5675.785809877779	0
2	13890	5677.158270971375	1
2	13891	5677.64505186747	0
2	13995	5722.972524253736	1
2	13996	5723.572015731468	0
2	14000	5724.084273074498	1
2	14001	5724.168852223748	0
2	14010	5725.797833691012	1
2	14011	5726.01142126677	0
2	14080	5763.15436369161	1
2	14081	5763.335703214067	0
2	14150	5795.178538951805	1
2	14151	5795.771623746365	0
2	14160	5796.962741112728	1
2	14162	5797.233030385336	2
2	14163	5797.542801964616	1
2	14166	5798.513386050665	0
2	14175	5799.790560121775	1
2	14177	5800.151670714109	2
2	14178	5800.211579354346	1
2	14185	5801.110514510615	0
2	14195	5802.29643057968	1
2	14196	5802.862291571923	0
2	14255	5820.477493988707	1
2	14256	5820.866917800402	0
2	14285	5837.379940363605	1
2	14286	5837.748164685993	0
2	14315	5844.07295759788	1
2	14316	5844.787428314613	0
2	14360	5872.902203155087	1
2	14361	5873.473012488602	0
2	14447	5918.446788539479	1
2	14448	5918.457091337795	0
2	14605	5987.729627246482	1
2	14606	5988.285964216663	0
2	14667	6013.897079303901	1
2	14668	6014.244616142174	0
2	14680	6016.431888653003	1
2	14681	6016.545177876185	0
2	14700	6023.628771584705	1
2	14701	6023.900839195736	0
2	14720	6029.868463763001	1
2	14721	6030.287820322794	0
2	14905	6124.306341543512	1
2	14908	6125.091907258178	0
2	14912	6125.825725283482	1
2	14913	6125.846458965433	0
2	14917	6125.978149351076	1
2	14918	6126.276288942048	0
2	14922	6126.737008571885	1
2	14923	6127.127542770128	0
2	14927	6127.318614026719	1
2	14930	6127.939800670729	0
2	14934	6128.047039918451	1
2	14936	6128.061542221342	2
2	14940	6128.56490812386	3
2	14941	6128.702096006493	2
2	14945	6129.016834631024	3
2	14946	6129.192795673651	2
2	14950	6129.280226869756	3
2	14951	6130.027705177651	2
2	14954	6130.463867990286	1
2	14958	6130.626121112021	2
2	14960	6130.831558463778	3
2	14962	6130.932265361647	4
2	14963	6130.981088286298	3
2	14966	6131.781096965107	2
2	14970	6132.042040065317	3
2	14971	6132.273546080883	2
2	14974	6133.038158523091	1
2	14978	6133.081568050167	2
2	14979	6133.843110698354	1
2	14984	6134.470928650894	0
2	15045	6173.597718545206	1
2	15046	6174.488075511645	0
2	15055	6176.81621478126	1
2	15056	6177.057517592802	0
2	15105	6203.960455018175	1
2	15108	6204.704255637297	0
2	15135	6213.55642275655	1
2	15136	6214.128252747476	0
2	15240	6308.643855612736	1
2	15241	6309.266395933818	0
2	15257	6311.699655009647	1
2	15260	6312.324534572443	0
2	15267	6312.924791106959	1
2	15268	6313.374898428671	0
2	15365	6369.393441158	1
2	15366	6369.637156266626	0
2	15375	6370.960061161807	1
2	15376	6371.104233644248	0
2	15390	6372.625556181898	1
2	15391	6372.907261904657	0
2	15410	6386.905777233611	1
2	15411	6387.633090147166	0
2	15425	6411.848830281996	1
2	15426	6411.913320139542	0
2	15435	6413.22092629587	1
2	15436	6413.282660599824	0
2	15440	6413.369175715291	1
2	15441	6414.162135534946	0
2	15450	6415.25104438144	1
2	15451	6415.692910534728	0
2	15465	6418.205968018534	1
2	15466	6418.552631637078	0
2	15480	6420.159837444833	1
2	15481	6420.832635626979	0
2	15605	6447.681698470384	1
2	15606	6447.976258648743	0
2	15610	6448.905666780477	1
2	15611	6448.948357640577	0
2	15650	6471.188404586604	1
2	15651	6471.735840066404	0
2	15665	6473.314261111349	1
2	15666	6474.031145709946	0
2	15672	6474.568254841614	1
2	15673	6474.935618973903	0
2	15677	6474.965666285395	1
2	15680	6475.406466973859	0
2	15736	6491.614716774166	1
2	15737	6491.665941869277	0
2	15770	6496.615383645703	1
2	15771	6496.939489059209	0
2	15820	6532.536059549082	1
2	15821	6533.081145452738	0
2	15830	6534.269933421167	1
2	15831	6534.737246090809	0
2	15895	6581.216964816006	1
2	15896	6582.114383116313	0
2	15905	6584.257437942635	1
2	15906	6584.297298668536	0
2	15910	6584.658401403249	1
2	15911	6585.161582882448	0
2	15915	6585.361675666902	1
2	15916	6586.007451153478	0
2	15920	6586.373575276301	1
2	15921	6586.777410614981	0
2	15935	6593.772427530009	1
2	15936	6594.400785838901	0
2	15995	6612.55503741146	1
2	15996	6612.906487840711	0
2	16012	6617.703537430056	1
2	16013	6617.767806901196	0
2	16017	6617.989914151745	1
2	16020	6618.624590129843	0
2	16027	6619.668305645835	1
2	16028	6619.815776190739	0
2	16032	6619.875486932091	1
2	16033	6620.389946215292	0
2	16050	6623.720143465299	1
2	16051	6623.938387605761	0
2	16057	6624.731549120954	1
2	16058	6624.836949427592	0
2	16062	6625.412906539848	1
2	16063	6625.650068316589	0
2	16110	6636.38481624231	1
2	16111	6637.30548774687	0
2	16120	6638.470826040219	1
2	16121	6638.493240735711	0
2	16137	6639.882255843717	1
2	16140	6640.328923604996	0
2	16147	6641.193599054458	1
2	16148	6641.477716046372	0
2	16167	6643.975536763373	1
2	16168	6644.414200399698	0
2	16177	6645.87102757586	1
2	16178	6646.348784695401	0
2	16185	6647.362617422168	1
2	16186	6647.542838398575	0
2	16600	6834.111966870727	1
2	16602	6834.485158859984	2
2	16604	6834.660577266864	3
2	16605	6834.782493416866	2
2	16608	6835.682861427212	1
2	16612	6836.039708977052	2
2	16613	6836.407853351993	1
2	16616	6837.067677087703	0
2	16620	6837.139632885292	1
2	16621	6837.724328697047	0
2	16630	6838.994057369724	1
2	16631	6839.40124622443	0
2	16640	6840.264868510235	1
2	16641	6840.443722325743	0
2	16645	6840.797094229703	1
2	16646	6840.922973131242	0
2	16732	6888.391361999263	1
2	16733	6888.531181352441	0
2	16742	6889.339873336447	1
2	16745	6889.980375719625	0
2	16752	6890.93171459232	1
2	16753	6891.371177971312	0
2	16797	6897.53095946765	1
2	16798	6897.896711090249	0
2	16815	6900.769934975598	1
2	16818	6901.084075694503	0
2	16827	6902.185420229751	1
2	16828	6902.621016587661	0
2	16832	6903.249847755702	1
2	16835	6903.338087876578	0
2	16845	6904.86648733069	1
2	16848	6905.54207408891	0
2	16855	6906.782390384954	1
2	16858	6907.137535807695	0
2	16970	6936.878195547803	1
2	16971	6937.327609430277	0
2	16990	6940.556824429653	1
2	16991	6940.987191823557	0
2	17005	6943.299276486522	1
2	17006	6943.543510009386	0
2	17035	6950.590716458562	1
2	17036	6951.315118339337	0
2	17045	6953.427306596745	1
2	17046	6953.455840442467	0
2	17050	6953.482293363353	1
2	17051	6954.001115824047	0
2	17055	6954.252844168158	1
2	17056	6954.838131275352	0
2	17060	6954.937552358779	1
2	17061	6955.271832903054	0
2	17100	6963.920473288918	1
2	17101	6964.422088214233	0
2	17224	7001.597531964665	1
2	17229	7001.836379438932	0
2	17238	7003.26275033937	1
2	17239	7003.472499199831	0
2	17246	7004.775229732869	1
2	17247	7004.933628184968	0
2	17256	7005.876744509181	1
2	17259	7006.739564075056	0
2	17269	7008.317509994819	1
2	17270	7008.806103028791	0
2	17280	7010.361538852491	1
2	17281	7010.785071939618	0
2	17330	7041.720968995971	1
2	17331	7041.871378440463	0
2	17425	7085.064818301548	1
2	17426	7085.509463919313	0
2	17477	7102.501903022027	1
2	17478	7102.67054035092	0
2	17570	7156.249620757979	1
2	17575	7157.165030537129	0
2	17601	7160.647699386138	1
2	17604	7161.089941834196	0
2	17730	7227.633621579082	1
2	17731	7227.879349401917	0
2	17735	7227.917142064763	1
2	17736	7228.286688398661	0
2	17752	7230.309708065907	1
2	17753	7230.815814425865	0
2	17920	7310.787650792573	1
2	17921	7311.143397513026	0
2	17927	7311.794445419441	1
2	17928	7311.931607269909	0
2	17935	7313.252303242107	1
2	17936	7313.268056395877	0
2	17990	7328.804367644392	1
2	17991	7328.981211286863	0
2	18025	7334.782073779746	1
2	18026	7334.929534077804	0
2	18040	7336.902224193449	1
2	18041	7337.120067509244	0
2	18055	7338.719721361169	1
2	18056	7338.889133590411	0
2	18065	7339.859667258099	1
2	18067	7339.974939370053	2
2	18071	7340.027810378525	3
2	18072	7340.693469718986	2
2	18077	7341.299988976869	1
2	18081	7341.67398170883	2
2	18082	7342.151970732448	1
2	18085	7343.068940648486	0
2	18097	7344.387671431658	1
2	18099	7344.481565979382	2
2	18100	7345.068027374571	1
2	18104	7345.513109717712	2
2	18107	7345.554433575835	1
2	18111	7345.88650753931	2
2	18112	7346.33109060503	1
2	18115	7347.028699908689	0
2	18119	7347.307610096	1
2	18120	7347.802574700075	0
2	18124	7347.893353461269	1
2	18125	7348.591001594071	0
2	18132	7349.86316791637	1
2	18133	7350.51908312296	0
2	18147	7352.802824772059	1
2	18148	7353.393411072487	0
2	18164	7354.917762647929	1
2	18167	7355.529229564084	0
2	18192	7359.559823989343	1
2	18193	7359.816131017222	0
2	18200	7360.578197110971	1
2	18201	7360.930564775182	0
2	18265	7381.467687150878	1
2	18267	7381.489171034518	2
2	18268	7382.003560264075	1
2	18272	7382.163969796335	2
2	18273	7382.916590850467	1
2	18277	7383.106204601847	2
2	18278	7383.770346977973	1
2	18281	7384.61763555607	0
2	18290	7385.358639275765	1
2	18292	7385.546905794722	2
2	18294	7385.879925704533	3
2	18295	7386.183947333919	2
2	18298	7386.724680842545	1
2	18301	7387.375433366925	0
2	18310	7387.888516854106	1
2	18311	7388.386903045609	0
2	18320	7389.872433916833	1
2	18321	7390.17832640312	0
2	18325	7390.246817289817	1
2	18326	7391.099127084998	0
2	18355	7404.159962783754	1
2	18356	7404.91651696584	0
2	18395	7423.17511900479	1
2	18396	7423.701375645851	0
2	18407	7424.59975481211	1
2	18408	7425.14168897605	0
2	18415	7426.191949829038	1
2	18416	7426.61696701188	0
2	18550	7523.265011514323	1
2	18551	7523.846178022781	0
2	18560	7524.909574915921	1
2	18561	7525.536347087392	0
2	18790	7619.389642321309	1
2	18793	7620.004665891066	0
2	18797	7620.458494781199	1
2	18798	7620.563168525494	0
2	18875	7637.230820437622	1
2	18876	7637.710665380842	0
2	18880	7638.03184558901	1
2	18883	7638.419913393193	0
2	18889	7638.550587540183	1
2	18890	7639.305407729912	0
2	18897	7640.263031980934	1
2	18898	7640.77314704515	0
2	18905	7641.75473628007	1
2	18906	7642.563379388098	0
2	18915	7643.343484955569	1
2	18916	7644.205450567492	0
2	18965	7665.119185195433	1
2	18966	7665.225464754701	0
2	19000	7678.222549261208	1
2	19001	7678.276955817536	0
2	19235	7759.972337938155	1
2	19236	7760.54284326798	0
2	19255	7766.192576523611	1
2	19256	7766.473577976964	0
2	19310	7784.889097603602	1
2	19311	7785.616592741299	0
2	19325	7789.706906583119	1
2	19326	7789.82561976009	0
2	19445	7859.642324795228	1
2	19446	7859.64896602422	0
2	19450	7860.066933521044	1
2	19451	7860.282463493999	0
2	19530	7885.33313835842	1
2	19531	7885.738004371153	0
2	19535	7885.825910674395	1
2	19536	7886.323920374039	0
2	19565	7900.482379356337	1
2	19566	7900.785290723841	0
2	19575	7902.633964222396	1
2	19578	7902.976358523522	0
2	19595	7909.093852688829	1
2	19596	7909.428156113189	0
2	19605	7910.345990267287	1
2	19606	7911.286486564886	0
2	19630	7914.850426184632	1
2	19631	7915.432236808952	0
2	19635	7915.493892794562	1
2	19636	7915.90567570575	0
2	19640	7915.914270525034	1
2	19643	7916.727066687862	0
2	19650	7917.743105411999	1
2	19653	7918.17525306623	0
2	19740	7954.900835576671	1
2	19741	7955.742942211925	0
2	19785	7986.981311796206	1
2	19786	7987.288536863061	0
2	19825	7995.041857810128	1
2	19826	7995.619408445239	0
2	19930	8034.793187614891	1
2	19931	8035.061041747138	0
2	19935	8035.284519378219	1
2	19936	8036.045450073958	0
2	19940	8036.27467343344	1
2	19941	8036.70388373473	0
2	20000	8064.519730816882	1
2	20001	8064.561144183916	0
2	20040	8084.658862279488	1
2	20041	8084.734864635416	0
2	20082	8097.044581079296	1
2	20083	8097.551544220764	0
2	20127	8113.006729086443	1
2	20128	8113.256472065185	0
2	20170	8128.768105272615	1
2	20171	8129.316940082346	0
2	20190	8133.52729518527	1
2	20191	8133.722968044344	0
2	20197	8133.985023121522	1
2	20198	8134.565926086044	0
2	20202	8134.643164061456	1
2	20203	8135.125415844496	0
2	20207	8135.198979737666	1
2	20208	8135.662103332325	0
2	20225	8145.066501204386	1
2	20226	8145.458591524621	0
2	20235	8146.180674081109	1
2	20236	8146.496266637061	0
2	20250	8147.89002015593	1
2	20251	8148.251679724662	0
2	20260	8149.265287484264	1
2	20261	8149.605049175883	0
2	20305	8179.81820784198	1
2	20306	8180.486669398438	0
2	20315	8186.375896117701	1
2	20316	8186.821229074943	0
2	20325	8187.403282227803	1
2	20326	8188.259546443914	0
2	20340	8190.211073076355	1
2	20341	8190.765019384356	0
2	20350	8191.814167782097	1
2	20351	8192.336252984314	0
2	20365	8196.794941318567	1
2	20366	8197.103040164303	0
2	20430	8234.519677588821	1
2	20431	8234.878663356752	0
2	20440	8235.517340030037	1
2	20441	8235.875753834807	0
2	20471	8246.820967033878	1
2	20472	8247.22591805362	0
2	20522	8255.011320451776	1
2	20523	8255.312780638997	0
2	20532	8256.200098532106	1
2	20533	8256.752005847989	0
2	20540	8257.618169073893	1
2	20541	8258.302604092498	0
2	20650	8349.239964637965	1
2	20651	8349.423594147698	0
2	20720	8368.778475526017	1
2	20721	8369.038790786154	0
2	20725	8369.191130013499	1
2	20726	8369.946093835243	0
2	20735	8371.177587283864	1
2	20736	8371.352215831775	0
2	20745	8371.963307853986	1
2	20746	8372.708040284484	0
2	20765	8393.010065062026	1
2	20766	8393.014320291427	0
2	20810	8420.976682295374	1
2	20813	8421.670663323849	0
2	20819	8421.959760748116	1
2	20820	8422.340549635039	0
2	20826	8422.695710017315	1
2	20829	8422.915465184477	0
2	20905	8439.805097922757	1
2	20906	8439.864833169927	0
2	20930	8443.283070309067	1
2	20931	8444.039073029819	0
2	20957	8448.28905163591	1
2	20958	8448.58458631113	0
2	20967	8449.552417387431	1
2	20968	8449.88009144007	0
2	20977	8450.58980777822	1
2	20980	8451.481410119028	0
2	21000	8455.057963303907	1
2	21001	8455.353516244186	0
2	21014	8456.219163024564	1
2	21015	8456.844148298442	0
2	21022	8457.485081924125	1
2	21025	8457.887367336867	0
2	21032	8458.716212040962	1
2	21033	8458.956262445957	0
2	21040	8459.707405863144	1
2	21041	8460.335213164608	0
2	21065	8478.311585342352	1
2	21066	8478.506370279882	0
2	21075	8479.406428131777	1
2	21076	8479.799859451307	0
2	21165	8505.628812138632	1
2	21166	8506.265634369469	0
2	21250	8562.833098657232	1
2	21251	8562.851618837422	0
2	21285	8570.666729326186	1
2	21286	8571.202352313347	0
2	21350	8605.793903581741	1
2	21352	8606.417047916627	2
2	21353	8606.426175221531	1
2	21358	8606.855245239623	0
2	21365	8608.098034302502	1
2	21366	8608.3214586984	0
2	21425	8619.937733351278	1
2	21426	8620.562386358752	0
2	21442	8622.776464272628	1
2	21444	8622.816683146201	2
2	21445	8622.851249372181	1
2	21448	8623.407642262862	0
2	21452	8623.741577647434	1
2	21453	8624.074734898019	0
2	21457	8624.209575127449	1
2	21460	8624.487192042419	0
2	21530	8651.842179936457	1
2	21531	8652.577332589382	0
2	21535	8652.659978682964	1
2	21536	8653.350091769991	0
2	21540	8653.819554311669	1
2	21541	8654.315449915992	0
2	21597	8668.228674997796	1
2	21598	8668.649692877161	0
2	21602	8669.076918564821	1
2	21603	8669.225929523504	0
2	21607	8669.587849895912	1
2	21608	8670.004524871858	0
2	21630	8674.138654849769	1
2	21631	8674.61806616637	0
2	21695	8700.783154339135	1
2	21696	8701.00439326854	0
2	21860	8764.445775805574	1
2	21861	8764.657287237718	0
2	21935	8805.473806669125	1
2	21936	8805.855528912783	0
2	21970	8821.313666827354	1
2	21971	8822.15501974853	0
2	22165	8918.867555854846	1
2	22166	8919.260593954774	0
2	22325	9004.633556849561	1
2	22326	9004.659733667484	0
2	22510	9105.40979444769	1
2	22511	9105.445182037479	0
2	22680	9182.63795530844	1
2	22681	9183.290023906553	0
2	22855	9267.214570659345	1
2	22856	9267.754191599678	0
2	22865	9268.694532335683	1
2	22866	9269.004445768878	0
2	22890	9286.689587687458	1
2	22891	9287.242465271392	0
2	22940	9296.3727142534	1
2	22941	9296.499847979305	0
2	23055	9338.889705437347	1
2	23058	9339.284474884552	0
2	23100	9346.345552749049	1
2	23101	9347.169387893761	0
2	23115	9350.312301944205	1
2	23116	9350.642113114912	0
2	23210	9397.977890636623	1
2	23211	9398.436121585947	0
2	23220	9399.31281102293	1
2	23221	9399.989395231131	0
2	23255	9426.392801212932	1
2	23256	9426.610364948205	0
2	23265	9427.874721098194	1
2	23266	9428.454363983018	0
2	23300	9448.512518102365	1
2	23301	9449.116527041596	0
2	23305	9449.474632279184	1
2	23306	9450.014093759692	0
2	23310	9450.272723028968	1
2	23311	9450.947145958188	0
2	23410	9497.822192825873	1
2	23411	9498.261887548946	0
2	23420	9499.149129261422	1
2	23422	9499.593025299974	2
2	23423	9499.652758247953	1
2	23430	9500.145388362127	0
2	23434	9500.433374101799	1
2	23435	9501.027844094661	0
2	23439	9501.248815713756	1
2	23440	9501.747243481073	0
2	23444	9502.11548101603	1
2	23445	9502.247624325882	0
2	23455	9503.688790544649	1
2	23456	9503.980088438596	0
2	23480	9509.48319027177	1
2	23481	9510.108705847739	0
2	23555	9531.888177748058	1
2	23556	9531.950928580888	0
2	23610	9551.825182462515	1
2	23611	9552.090185231214	0
2	23632	9558.321603996218	1
2	23633	9558.810701844038	0
2	23642	9559.938280890131	1
2	23643	9560.511676927877	0
2	23660	9566.809599659639	1
2	23661	9567.075650359683	0
2	23720	9589.337502817551	1
2	23721	9589.567806265519	0
2	23735	9591.23131265099	1
2	23737	9591.76579523575	2
2	23738	9591.935509198454	1
2	23743	9592.919625490966	0
2	23800	9607.502286432501	1
2	23801	9607.98439632431	0
2	23877	9628.142213584687	1
2	23878	9628.257817998816	0
2	24045	9741.458527497387	1
2	24046	9742.165173758101	0
2	24070	9756.904478518105	1
2	24071	9757.382759750546	0
2	24085	9758.984190938023	1
2	24087	9759.30900293119	2
2	24088	9759.498496478354	1
2	24093	9760.447465975653	0
2	24120	9774.527550555234	1
2	24121	9774.831158357412	0
2	24145	9785.530874208507	1
2	24146	9785.793872619314	0
2	24150	9785.825373559235	1
2	24151	9786.486318474203	0
2	24155	9786.575219751518	1
2	24156	9787.268793473892	0
2	24200	9809.617019869732	1
2	24201	9809.761201531853	0
2	24205	9809.958359135647	1
2	24206	9810.468263036752	0
2	24220	9811.901387290548	1
2	24221	9812.443231625689	0
2	24230	9813.655452208118	1
2	24231	9813.941302037306	0
2	24260	9850.498331499781	1
2	24261	9850.84594831146	0
2	24315	9910.446172341829	1
2	24316	9910.504818896492	0
2	24345	9930.669250232574	1
2	24346	9931.49195634136	0
2	24355	9932.489455054879	1
2	24356	9932.865931341565	0
2	24365	9934.13990165085	1
2	24366	9934.599006220839	0
2	24375	9935.355863404177	1
2	24376	9935.721588485431	0
2	24385	9936.81292824195	1
2	24386	9937.116643522203	0
2	24490	9988.145370763462	1
2	24492	9988.388231225966	2
2	24493	9988.885645738639	1
2	24498	9989.402441142289	0
2	24505	9990.178603021545	1
2	24510	9990.949754136451	0
2	24523	9991.941915285941	1
2	24524	9992.197749322676	0
2	24667	10057.002313972951	1
2	24668	10057.016401330062	0
2	24672	10057.28943764795	1
2	24673	10057.50112456992	0
2	24682	10058.669683640679	1
2	24683	10058.854626141728	0
2	24715	10067.030110278697	1
2	24717	10067.475403865532	2
2	24718	10067.635997319039	1
2	24723	10068.270731471017	0
2	24810	10103.420442050293	1
2	24811	10104.024039890191	0
2	24820	10105.362973182513	1
2	24821	10105.552881080278	0
2	24830	10106.735879308328	1
2	24831	10106.80566231631	0
2	24840	10108.298844343675	1
2	24843	10109.185243071661	0
2	24850	10110.479971982453	1
2	24851	10111.007031961716	0
2	24902	10138.513488200437	1
2	24903	10138.651342282293	0
2	24907	10138.715360332582	1
2	24910	10139.354586345505	0
2	24914	10139.518961793541	1
2	24915	10140.145245642902	0
2	24919	10140.635360881084	1
2	24920	10140.654892366787	0
2	24926	10141.242348966903	1
2	24927	10141.464669754624	0
2	24931	10141.632710441824	1
2	24932	10142.417617410317	0
2	24936	10142.904909938116	1
2	24937	10143.389924507763	0
2	24944	10144.34684235229	1
2	24945	10144.922688270395	0
2	24957	10146.015329738435	1
2	24960	10146.496240368847	0
2	25020	10159.434353148296	1
2	25021	10159.793829272893	0
2	25035	10161.459363107913	1
2	25036	10161.802453506384	0
2	25065	10173.641717236213	1
2	25066	10173.912469559088	0
2	25195	10250.349309435082	1
2	25196	10250.791467178739	0
2	25265	10285.385716711737	1
2	25267	10285.583496968372	2
2	25268	10285.840910757031	1
2	25271	10286.737236781768	0
2	25280	10288.227658883296	1
2	25281	10288.319201470283	0
2	25290	10289.017700994146	1
2	25291	10289.373705049442	0
2	25340	10298.85647961795	1
2	25341	10299.376993652986	0
2	25350	10300.504711321795	1
2	25351	10300.870329680149	0
2	25365	10303.023251449171	1
2	25368	10303.811338633671	0
2	25375	10304.832327424321	1
2	25376	10305.066378873772	0
2	25405	10314.459604089795	1
2	25406	10315.012721284721	0
2	25430	10318.82321947987	1
2	25431	10319.049652178774	0
2	25475	10337.25887688037	1
2	25476	10337.346281793322	0
2	25480	10337.551731575065	1
2	25481	10338.109397783903	0
2	25552	10364.838958141713	1
2	25553	10364.986815558612	0
2	25557	10365.400633827426	1
2	25560	10365.735767529817	0
2	25564	10365.962596220991	1
2	25565	10366.232230792526	0
2	25577	10367.992001111233	1
2	25578	10368.14122203887	0
2	25615	10375.360361409676	1
2	25616	10376.220101567913	0
2	25625	10377.549085813783	1
2	25626	10377.774101944497	0
2	25650	10387.597806368187	1
2	25651	10387.641516146932	0
2	25710	10414.34251993023	1
2	25713	10414.799926823924	0
2	25755	10423.689664401025	1
2	25756	10424.525219103179	0
2	25785	10435.230234916057	1
2	25788	10435.976791496281	0
2	25845	10465.682644698944	1
2	25846	10466.086068061128	0
2	25855	10466.930156650027	1
2	25856	10467.779236214788	0
2	25870	10470.200411834936	1
2	25871	10470.505519988623	0
2	25880	10470.980791862421	1
2	25882	10471.227063567439	2
2	25883	10471.468914138994	1
2	25888	10472.298385187614	0
2	25897	10473.640713148767	1
2	25898	10473.791789160579	0
2	25920	10477.949934677781	1
2	25921	10477.96617776693	0
2	25955	10509.811738621571	1
2	25956	10509.984613390228	0
2	25960	10510.216050043636	1
2	25961	10510.539685342841	0
2	25965	10510.801276701316	1
2	25966	10511.323311116927	0
2	25970	10511.905644864538	1
2	25971	10512.252790995509	0
2	25990	10521.31546841233	1
2	25991	10521.871590279155	0
2	26060	10547.971000303695	1
2	26061	10548.929216696931	0
2	26070	10550.744122750317	1
2	26071	10551.026124261195	0
2	26135	10577.496967436501	1
2	26138	10577.959145314535	0
2	26150	10579.141049279692	1
2	26153	10579.755010510524	0
2	26159	10580.215047009764	1
2	26162	10580.408432731134	0
2	26166	10580.729633245059	1
2	26167	10580.932118698171	0
2	26171	10581.098441657843	1
2	26172	10581.419114995197	0
2	26179	10582.952465488986	1
2	26180	10582.953657496869	0
2	26240	10592.936383307629	1
2	26241	10593.615603844524	0
2	26295	10622.396138433772	1
2	26298	10623.277234770802	0
2	26305	10624.367080556358	1
2	26308	10624.788841666167	0
2	26312	10624.963804156389	1
2	26313	10625.221057771824	0
2	26345	10629.219751713804	1
2	26346	10629.249165907017	0
2	26355	10630.362923931267	1
2	26356	10630.652159382057	0
2	26369	10632.130510151197	1
2	26372	10632.303483828277	0
2	26380	10632.913498176035	1
2	26381	10633.095460055376	0
2	26424	10639.727888975382	1
2	26425	10639.82353382672	0
2	26465	10646.72434440214	1
2	26466	10646.94345629851	0
2	26670	10751.576441399032	1
2	26671	10751.858852309612	0
2	26675	10751.912505643679	1
2	26677	10752.506235010999	2
2	26678	10752.831456710649	1
2	26684	10752.962603246902	2
2	26685	10753.437168055884	1
2	26688	10754.297838729498	0
2	26692	10754.393047981459	1
2	26693	10754.756627662311	0
2	26700	10756.01240243323	1
2	26701	10756.237849093199	0
2	26775	10780.372680655133	1
2	26776	10780.918812004249	0
2	26870	10825.16310837359	1
2	26871	10825.541995377105	0
2	26950	10865.557660121493	1
2	26953	10866.240605851971	0
2	27020	10885.917719053895	1
2	27021	10886.362902374576	0
2	27185	10986.306324503341	1
2	27186	10986.755875867532	0
2	27215	10993.849046298961	1
2	27216	10994.160594393644	0
2	27220	10994.222084830027	1
2	27221	10994.784886265598	0
2	27225	10995.139489860586	1
2	27226	10995.675640062434	0
2	27230	10995.712743622216	1
2	27231	10996.087325811903	0
2	27235	10996.580169206476	1
2	27236	10996.810967258695	0
2	27240	10997.08305168639	1
2	27241	10997.538352089427	0
2	27265	11011.565926384612	1
2	27266	11011.719491294899	0
2	27270	11012.045380755714	1
2	27271	11012.648079341778	0
2	27275	11013.001514816018	1
2	27277	11013.02821655703	2
2	27278	11013.362504953088	1
2	27281	11014.031302895525	0
2	27290	11015.013126208935	1
2	27291	11015.220181308048	0
2	27390	11101.321000918934	1
2	27391	11101.922810147758	0
2	27405	11103.515226873426	1
2	27406	11103.741534246016	0
2	27477	11146.838947091662	1
2	27478	11147.357438951568	0
2	27625	11227.754419333837	1
2	27626	11227.950408416609	0
2	27680	11276.692770762605	1
2	27681	11277.225746840819	0
2	27750	11301.43225780363	1
2	27751	11301.769668681757	0
2	27755	11301.930587891273	1
2	27756	11302.576682222099	0
2	27760	11303.03249557022	1
2	27761	11303.190945473663	0
2	27785	11313.923322789007	1
2	27786	11314.452284071149	0
2	27800	11315.832940376104	1
2	27801	11316.673774315472	0
2	27815	11319.212064757838	1
2	27816	11319.314340152509	0
2	27835	11322.408904882913	1
2	27837	11322.603476155031	2
2	27838	11322.953701552381	1
2	27842	11323.23043795575	2
2	27843	11323.83089771667	1
2	27847	11323.86616735661	2
2	27848	11324.534543637656	1
2	27852	11324.68349795177	2
2	27853	11325.343573894076	1
2	27856	11325.962978879692	0
2	27860	11326.236337007576	1
2	27863	11326.822403842261	0
2	27867	11327.146848847218	1
2	27868	11327.73402770921	0
2	27872	11327.931752639618	1
2	27873	11328.210089483721	0
2	27877	11328.632151799474	1
2	27878	11328.717667099045	0
2	27882	11329.384419617666	1
2	27883	11329.607024199239	0
2	27890	11330.163632310788	1
2	27891	11330.905141222526	0
2	27905	11333.404011534414	1
2	27906	11333.689375400155	0
2	27920	11335.904820625971	1
2	27922	11336.052724412036	2
2	27923	11336.294023604735	1
2	27926	11336.961054777351	0
2	27930	11337.438269562135	1
2	27932	11337.472383444141	2
2	27933	11337.843884425887	1
2	27937	11338.166571144794	2
2	27938	11338.602051625026	1
2	27942	11338.941404462441	2
2	27943	11339.598287781279	1
2	27946	11340.049918116021	0
2	27950	11340.200032494593	1
2	27951	11340.621916453584	0
2	27955	11340.943809203621	1
2	27956	11341.45668667969	0
2	27970	11344.542430630997	1
2	27971	11344.588023324262	0
2	28035	11373.217068705059	1
2	28036	11373.503112492656	0
2	28040	11373.664037871239	1
2	28041	11374.385406194619	0
2	28045	11374.700246582877	1
2	28046	11375.342372124494	0
2	28050	11375.738625404423	1
2	28051	11375.811066364535	0
2	28130	11417.134246202765	1
2	28131	11417.163488676798	0
2	28150	11419.384544520673	1
2	28151	11420.170859737891	0
2	28165	11430.039494230858	1
2	28166	11430.363720002409	0
2	28175	11430.971768600429	1
2	28177	11431.213609634902	2
2	28178	11431.95927885697	1
2	28181	11432.736800586905	0
2	28195	11439.323642597019	1
2	28196	11439.470920536896	0
2	28310	11493.254990740748	1
2	28311	11493.948537418907	0
2	28410	11549.241489709241	1
2	28411	11549.379512392625	0
2	28417	11549.840972002788	1
2	28418	11549.861212148832	0
2	28440	11553.856920170167	1
2	28441	11553.987551653191	0
2	28445	11554.036185797718	1
2	28448	11554.600960385233	0
2	28455	11555.424402390458	1
2	28458	11556.087622966424	0
2	28465	11557.409279037911	1
2	28466	11557.586561897995	0
2	28495	11577.131444999163	1
2	28496	11577.291911764847	0
2	28525	11589.344666844976	1
2	28526	11589.603271441036	0
2	28530	11589.866749553931	1
2	28531	11590.537265333501	0
2	28535	11591.069096426778	1
2	28536	11591.126143391026	0
2	28540	11591.150961955904	1
2	28541	11591.981086669272	0
2	28547	11592.298142436113	1
2	28548	11592.483169796473	0
2	28715	11651.014392040891	1
2	28716	11651.0457108462	0
2	28740	11657.39159768437	1
2	28741	11657.706306565848	0
2	28752	11659.189304404473	1
2	28753	11659.245730297094	0
2	28760	11660.580923533417	1
2	28761	11660.600665515068	0
2	28802	11666.598617224509	1
2	28803	11667.192982849567	0
2	28820	11672.779493032514	1
2	28822	11673.371938982948	2
2	28823	11673.775347386361	1
2	28828	11674.51594928537	0
2	28832	11674.543414130536	1
2	28833	11675.425922548691	0
2	28842	11676.014249739232	1
2	28843	11676.94493307631	0
2	29165	11830.171127738357	1
2	29166	11830.399470257261	0
2	29177	11831.423668484092	1
2	29178	11831.809464297271	0
2	29290	11886.464528323631	1
2	29291	11886.747028511684	0
2	29355	11902.596409077065	1
2	29356	11902.966891370789	0
2	29375	11905.547738346205	1
2	29376	11905.616975770066	0
2	29390	11908.591010301646	1
2	29393	11909.325032064029	0
2	29397	11909.665710179145	1
2	29398	11910.051928682568	0
2	29410	11913.204867117275	1
2	29411	11913.498331566901	0
2	29420	11914.762452408746	1
2	29422	11914.910325152766	2
2	29423	11915.179465631872	1
2	29428	11915.878102017344	0
2	29440	11917.296871011448	1
2	29442	11917.88184198584	2
2	29443	11918.00007490815	1
2	29446	11918.617275203172	0
2	29460	11932.377679982976	1
2	29461	11932.642532604093	0
2	29485	11943.841370542445	1
2	29486	11944.536063050259	0
2	29565	11986.627174987534	1
2	29566	11986.930753467103	0
2	29570	11987.379480236871	1
2	29571	11987.453208462392	0
2	29575	11987.565611055258	1
2	29576	11988.086529683379	0
2	29580	11988.416885199561	1
2	29581	11988.85242315001	0
2	29585	11989.389170069927	1
2	29586	11989.682216365181	0
2	29645	12027.580459000881	1
2	29646	12028.540567738237	0
2	29702	12046.905474932321	1
2	29703	12047.282875592309	0
2	29712	12048.852637151044	1
2	29713	12048.964875207004	0
2	29725	12050.574965347171	1
2	29727	12050.610359058161	2
2	29732	12051.481556835539	1
2	29735	12052.081669072668	0
2	29739	12052.270109025963	1
2	29742	12052.895588709741	0
2	29749	12053.863527176135	1
2	29750	12054.139280874702	0
2	29772	12056.507261281692	1
2	29773	12057.27537371181	0
2	29895	12118.903450817956	1
2	29896	12119.124066183732	0
2	29920	12127.173602012655	1
2	29923	12127.623145084657	0
2	29930	12128.846735349718	1
[...]
6	61800	25194.827437913455	6.665064999381
6	61805	25203.099204925421	0.610658110492
6	61822	25208.373745500302	0.942897781495
6	61845	25212.829861420437	3.197240881662
6	61910	25233.312700438513	0.463093822822
6	61969	25255.270962088719	1.035510275402
6	61979	25256.683236138127	3.610696702775
6	61982	25257.300052198465	1.2223673005
6	61992	25259.03422054213	1.058882547762
6	62000	25261.339931104883	7.946940687429
6	62015	25265.30461727248	1.136385406863
6	62047	25271.921705194787	6.536613295511
6	62055	25273.637747836446	5.935881415708
6	62062	25276.965997926947	0.448262460483
6	62065	25277.566935719652	0.98994530988
6	62187	25320.550534372915	1.922308195306
6	62190	25321.212425867001	0.760659965301
6	62247	25347.677325267925	2.07141335886
6	62278	25351.062007691314	2.099819987248
6	62281	25351.978570197265	1.287728636189
6	62295	25355.011451142663	0.6588671837
6	62334	25371.496978964116	0.731670917617
6	62392	25384.3081095507	4.281976196236
6	62457	25396.559477758443	2.480112074802
6	62490	25409.7889559877	0.549532641703
6	62500	25423.065447766206	1.772494156164
6	62519	25427.554115599857	2.649989510515
6	62545	25431.710024593905	6.213388691004
6	62595	25447.548977804983	3.642937888624
6	62615	25473.919842633503	0.900320753036
6	62635	25481.089818370823	3.58740133002
6	62660	25491.260181767391	3.576026665371
6	62672	25499.841372790037	0.421624421561
6	62729	25521.891758804767	3.614426482471
6	62732	25522.376849201879	1.750115795803
6	62750	25525.893055843436	1.576870281646
6	62795	25544.352421243096	0.751428064611
6	62815	25557.074085464481	0.610152874866
6	62830	25560.239961594677	4.690527898254
6	62840	25561.528865688342	1.2575270567
6	62845	25564.310644271336	0.649564474542
6	62852	25566.88957826983	0.992274464946
6	62864	25568.551779228112	1.496520571248
6	62905	25596.615742196597	0.544073759206
6	62926	25611.522034460962	2.729160892251
6	62929	25612.497138084568	1.428026187536
6	62952	25616.128246620154	0.851345677674
6	62975	25619.798579213731	0.469614971709
6	62990	25622.5914116853	0.901049830053
6	63009	25628.651484955148	0.915305843525
6	63012	25629.497605471452	1.416167653428
6	63030	25634.38070004748	0.906462873379
6	63040	25639.9633226703	0.577733484237
6	63071	25648.936305101318	3.164338941966
6	63092	25652.759881155017	5.65987338964
6	63120	25660.645497273683	3.461306149663
6	63167	25681.145698969729	4.134181660145
6	63190	25688.906303548822	0.519379175175
6	63215	25695.351651482413	4.809220864651
6	63275	25710.289146863736	7.079713692023
6	63310	25717.894575795841	1.66851174426
6	63320	25721.741963385358	0.659937776532
6	63340	25739.032799546189	4.687953477847
6	63380	25769.964030073778	0.951737924842
6	63435	25800.365574537613	0.518876674213
6	63480	25814.580702240979	2.458599501145
6	63485	25816.029912858961	0.755676418263
6	63490	25825.601556266778	0.531680486025
6	63520	25833.678313020335	0.950161545165
6	63525	25836.251709610862	0.573585416004
6	63555	25863.495239388264	0.461163560208
6	63562	25869.833164825665	0.666711960966
6	63570	25871.96286578672	0.974455742585
6	63595	25881.992427667068	1.452687472524
6	63637	25904.524008815019	4.785246112927
6	63667	25912.400470093244	1.043266655444
6	63680	25918.828768516025	1.827985013444
6	63700	25923.496241132278	2.040820567197
6	63714	25927.421908215768	0.951926499303
6	63717	25928.033293205462	2.403064828645
6	63737	25931.336940690627	2.472716733824
6	63765	25950.608793027019	0.773120911419
6	63775	25953.690401758931	0.46483559222
6	63785	25958.045022028773	1.603639809283
6	63827	25970.741850235451	2.627564390258
6	63835	25972.527566704925	5.149654372842
6	63854	25979.594305978846	0.762052106624
6	63857	25980.25501711363	1.353905690851
6	63916	26024.070523859816	0.862374943914
6	63929	26026.333281959662	4.40888356903
6	63932	26026.736725404601	2.714547669682
6	63940	26028.051135909718	0.857619169944
6	63959	26036.508246653769	1.943575571857
6	63999	26048.809101464317	2.411113155649
6	64012	26050.708202298215	2.137461077107
6	64037	26059.083773038635	1.709319828311
6	64052	26061.690683391584	3.930380176534
6	64095	26068.183977351501	0.97540208763
6	64125	26088.059406427357	0.886257905187
6	64250	26134.281763774304	2.910711484551
6	64300	26158.523999251346	0.825070500001
6	64340	26167.048798744792	0.70661692163
6	64355	26178.486856394045	0.826679287353
6	64495	26232.333365902192	0.82868438228
6	64515	26241.089545543087	0.663842226984
6	64530	26246.361464557838	1.409127221947
6	64552	26255.341698346877	0.918106481293
6	64605	26271.800789508775	0.646026056632
6	64627	26276.535113913933	1.464220717663
6	64640	26292.389101190019	0.626095588924
6	64650	26299.579209465647	0.783221998112
6	64662	26315.275546021966	1.992742234087
6	64700	26322.516639822769	8.078432235449
6	64762	26340.585726476988	3.886027809159
6	64770	26342.079444291984	4.120511370565
6	64785	26346.64283846129	2.702315933515
6	64827	26360.598924511746	2.64736237666
6	64842	26363.716379654193	0.803705986449
6	64850	26366.014893463247	6.023920377574
6	64890	26376.936540870134	9.93404225139
6	64915	26386.144901807627	5.158109572241
6	64940	26392.760100498651	0.441386555647
6	64962	26403.342074161167	1.748578324418
6	64980	26405.608533566198	4.187900382587
6	65000	26410.313232015088	3.645691866584
6	65020	26421.510926252229	3.216780867416
6	65062	26431.958606320274	0.890638515706
6	65067	26432.469355948948	4.081298397528
6	65090	26438.434907162038	0.962857368449
6	65102	26448.23954829897	1.583004049979
6	65110	26449.897070817124	1.809899503788
6	65140	26461.815339099016	2.69746547002
6	65190	26477.405173291271	0.784978132757
6	65217	26489.022962550363	1.436544634353
6	65244	26492.975449916207	0.649923572876
6	65257	26495.613753443614	0.814506137557
6	65325	26541.361890790454	0.812088597892
6	65350	26560.885848770433	1.646069909337
6	65406	26580.826923898676	1.02112720564
6	65417	26583.279412467939	5.357469330102
6	65442	26592.851114460294	1.696957291773
6	65445	26593.43156580611	1.396829901477
6	65490	26612.314863120236	7.605374135043
6	65520	26627.413662751555	4.549581295681
6	65525	26628.328493787141	2.414925391415
6	65572	26665.369520684355	1.013813199344
6	65592	26670.272897384476	1.384385455192
6	65620	26678.584986562663	0.811889839638
6	65637	26690.6188064901	0.749022057466
6	65650	26702.556945719353	0.896096756216
6	65655	26703.421772532817	0.6603948473
6	65682	26714.255202398049	0.781618247185
6	65710	26720.333660602558	9.693240536612
6	65722	26722.456018332599	0.639987115981
6	65725	26723.369980423918	2.666531170372
6	65780	26742.655333711642	7.369118834704
6	65805	26750.610393412724	0.799866329087
6	65835	26761.207840968505	3.853420213002
6	65860	26773.383815954163	6.214338719472
6	65875	26778.814672812658	2.860586004809
6	65885	26792.12146875777	0.695614600834
6	65895	26794.772003986584	1.493132913348
6	65910	26802.702669537661	2.198212506389
6	66002	26851.279649900593	1.320101893299
6	66005	26851.714335577557	2.007676695566
6	66015	26853.592371206376	0.752714914872
6	66040	26860.227132606179	0.724997627689
6	66070	26874.832596188495	0.588073346345
6	66092	26887.257205784555	0.560774308303
6	66155	26899.97100774854	1.657092467649
6	66187	26909.217033798113	4.507989315252
6	66190	26910.015264385385	5.055183502193
6	66205	26925.511492943001	0.921831583045
6	66220	26928.248853237826	2.584691882597
6	66230	26930.652578373047	1.439146591496
6	66235	26932.108778814223	0.67286064364
6	66240	26937.115201615478	0.541370690707
6	66245	26939.93773947988	0.905127282627
6	66250	26953.298935881738	0.470209567435
6	66317	26985.04683155979	6.343217081123
6	66325	26986.612151160998	0.666759062232
6	66362	27012.203987391012	1.349328790513
6	66395	27029.416801623357	0.565811181534
6	66402	27032.547328241743	0.726134265028
6	66412	27033.575071123143	1.378464439069
6	66451	27043.103056870761	0.965835639946
6	66490	27050.940758582585	3.901030913825
6	66495	27054.285047004887	0.808022289397
6	66527	27063.90244561673	0.893991406681
6	66545	27067.384303046769	6.232704588033
6	66560	27074.408365914921	1.591800017603
6	66615	27103.394903163132	1.617840299666
6	66625	27106.886379762073	1.761095049338
6	66640	27118.025547735847	1.55771870518
6	66662	27127.981944397801	2.012262254739
6	66670	27130.472708063004	2.962415263208
6	66682	27132.75995148251	1.220082091135
6	66687	27133.559614286136	2.15087664309
6	66720	27140.046666274303	2.507721765915
6	66732	27141.974992188856	1.305247981552
6	66780	27165.721482160759	1.344513854364
6	66785	27171.102708860362	0.54720423785
6	66810	27177.674442982117	3.274363412202
6	66872	27189.891581240516	3.979914940553
6	66925	27198.166791384148	5.452876288531
6	66942	27204.073346189628	2.743822509035
6	66980	27214.76322730827	0.911081072502
6	67045	27250.762421109563	4.513808675588
6	67065	27257.981594696884	5.884788166655
6	67100	27265.004595036242	4.449378278635
6	67129	27269.780214588132	2.418478468708
6	67147	27275.489733681482	0.997678801795
6	67180	27288.728983254194	4.198232664986
6	67217	27297.239593319802	2.302608971603
6	67262	27308.738799766214	2.8722210249
6	67299	27315.749913557299	11.835724863324
6	67334	27328.870203126156	1.097868087268
6	67337	27329.735424180915	1.681546715012
6	67375	27346.384477627148	2.534828292514
6	67415	27363.284446807516	3.946223754199
6	67425	27368.749078289728	1.970481232296
6	67472	27404.882155694895	5.083452449301
6	67475	27405.440733277228	1.249315879361
6	67480	27411.930045948144	0.816330042621
6	67505	27421.818192468131	3.962369837519
6	67630	27474.994982316319	2.789148465349
6	67635	27490.838498561589	0.907002845081
6	67650	27499.580199848553	1.075292900304
6	67655	27504.559575622934	0.76055514859
6	67711	27512.520372283629	6.646902160932
6	67772	27530.467649758465	0.944242245629
6	67789	27534.086980162392	1.303302778805
6	67820	27542.133546581615	2.852366713541
6	67840	27571.504979554057	0.598426199565
6	67880	27583.343666497823	0.905058881687
6	67885	27586.418884104487	0.994121321896
6	67895	27589.206241717678	1.594522110409
6	67902	27592.342516742157	0.604925925704
6	67910	27593.911850113236	1.663609179646
6	67937	27605.256485641533	2.305627807879
6	67969	27609.488553778066	2.263920060846
6	67977	27610.61974862817	1.514652448921
6	67990	27613.470262377936	8.047119684481
6	68000	27618.38420004669	2.056635299718
6	68005	27622.445223000299	0.848924860684
6	68015	27632.018587799756	1.972436815985
6	68035	27649.239285274984	0.674836786697
6	68040	27651.000780313985	0.775704069948
6	68062	27677.452449840431	2.603897524164
6	68070	27679.774298261379	0.888786274148
6	68095	27695.657715604971	1.984114635003
6	68105	27697.919104456215	1.279892692684
6	68209	27746.224528515487	7.774670223913
6	68212	27747.152927511473	5.054965886384
6	68225	27750.761483312424	1.569659638673
6	68242	27753.358978130999	2.480886919514
6	68265	27762.767562749803	1.463214219776
6	68307	27790.351363477195	0.879268615413
6	68335	27795.415357883105	3.870625404005
6	68350	27799.37311082381	1.355299383027
6	68372	27812.762036523037	3.672492846151
6	68399	27816.134452469647	3.564659504846
6	68410	27818.355343435881	5.374639416389
6	68450	27838.201234510325	4.587311704137
6	68465	27842.067756578039	0.45654017687
6	68497	27849.627098868925	4.685425794596
6	68500	27850.132939676799	3.160008665246
6	68545	27858.619955974723	7.251972418698
6	68577	27863.786422885115	0.855533599219
6	68587	27865.444332324899	0.842663190272
6	68625	27872.52708753466	2.731177615457
6	68655	27883.066246597906	0.912314687343
6	68675	27887.880295814613	0.558546277881
6	68694	27896.589874973445	2.425770475844
6	68697	27897.001885955705	2.036795091109
6	68700	27897.807316863368	1.263140455298
6	68757	27923.92867031189	3.584902917777
6	68824	27949.516685841855	0.669961849097
6	68849	27952.958230360986	3.501949575912
6	68865	27955.30672232658	3.312294117591
6	68875	27960.980471524346	1.158579777047
6	68880	27962.132075192934	0.720402190741
6	68924	27975.006864099845	2.04360110896
6	68945	27986.584187539818	0.784371073497
6	68950	27990.497620249028	0.446499386802
6	68955	27993.665351667444	0.903436803911
6	68980	28030.63557629193	1.597085664194
6	69020	28056.228579985669	2.376937256627
6	69030	28066.503812020393	0.727425465221
6	69040	28070.277267784954	1.676901233566
6	69070	28075.808503568866	4.948677037415
6	69090	28080.432808462968	3.573340389684
6	69110	28105.880936593341	0.403153446596
6	69117	28121.63218958239	0.575931495754
6	69144	28135.783104806738	2.369670423474
6	69147	28136.316419483786	3.115970608079
6	69165	28153.702448689592	0.862338438071
6	69225	28176.961608136826	0.690269703558
6	69272	28195.046010049799	1.148398538725
6	69291	28197.223261845851	1.343064167489
6	69306	28199.99478319119	3.620685707289
6	69325	28203.09967502504	2.1547296454
6	69347	28212.804175887448	0.429759392329
6	69360	28215.586753902291	2.697017236625
6	69412	28241.809198486664	0.671502471063
6	69445	28248.894921391509	2.685552995262
6	69487	28278.651153350934	0.644667250397
6	69530	28286.59785726728	7.91138970775
6	69562	28292.903349160996	2.699165776141
6	69572	28294.670522050743	0.782887519524
6	69575	28295.271452911335	5.838110430666
6	69582	28298.672300864267	0.954856548226
6	69620	28316.938597739341	0.618446865352
6	69715	28377.630440265576	4.045946830837
6	69725	28381.454410542296	0.442084818194
6	69764	28398.009865651559	0.581797138322
6	69777	28399.965416884887	8.742765358679
6	69795	28419.561969814177	0.587791759381
6	69800	28430.148667274592	0.429679588927
6	69820	28440.298685768711	3.293279100608
6	69842	28453.672756279357	1.980453498722
6	69850	28455.501277685861	2.125027098938
6	69870	28470.349930378939	3.00596939418
6	69890	28477.971643277261	1.044822915105
6	69895	28479.587005867726	0.699918275606
6	69925	28501.967400212641	2.350919669613
6	69960	28507.556484458274	4.146881924614
6	69982	28512.865746424802	0.921473039174
6	70042	28523.501395388942	4.772102700435
6	70142	28572.639256639297	4.693885419428
6	70157	28574.914742852334	0.855902319262
6	70160	28575.435710181208	1.225374357357
6	70165	28581.698502953025	0.97393749035
6	70187	28607.834177203298	0.607041413612
6	70234	28615.813171627282	3.446262808068
6	70302	28626.244467312919	0.974158672849
6	70315	28631.176020880762	0.854373152647
6	70358	28660.869747954211	4.449130603624
6	70361	28661.387993332534	2.709379087076
6	70377	28664.61348720023	1.081666380873
6	70395	28671.32718044641	0.452529581636
6	70415	28679.561464758168	4.22744642667
6	70425	28687.733037362153	0.515930580813
6	70440	28700.480571021607	2.121965402647
6	70445	28702.975182481849	0.491409216076
6	70477	28710.844508582966	0.607399674552
6	70485	28712.587748102501	3.018103729747
6	70492	28719.405492646379	0.75706632738
6	70507	28721.486141359178	1.117666091979
6	70520	28723.677528985073	4.53760227027
6	70559	28731.875202899253	2.042859159265
6	70562	28732.417903346907	4.703968051543
6	70622	28749.209366668262	3.019468530654
6	70640	28752.907513179957	9.444398540782
6	70744	28788.380153470099	2.319528800296
6	70780	28794.718866843275	4.148866416035
6	70815	28804.699957096284	1.274586597089
6	70880	28872.796493471364	0.992675165148
6	70915	28880.594118444239	3.91403248668
6	70947	28897.282503509533	2.674291842264
6	70950	28897.825579101697	1.095176566156
6	71015	28921.161591179954	0.616589865042
6	71030	28932.202357265969	0.519009216549
6	71065	28961.013845404654	3.32041591253
6	71087	28972.940153223106	0.487344279978
6	71097	28975.156311059465	0.813284829305
6	71110	28979.436603630317	0.446839693887
6	71127	28982.862043310919	2.52035196813
6	71155	29008.993457574924	0.853567679273
6	71174	29011.325763396742	2.004090019832
6	71177	29011.748629701333	1.522845535632
6	71205	29023.606184052296	3.397505837827
6	71220	29030.455253432051	0.507368439203
6	71235	29038.326754615656	1.783273550348
6	71277	29049.251556795046	0.461260692077
6	71354	29074.823086861513	0.994701279188
6	71357	29075.648548965008	1.707437328156
6	71370	29079.134971254738	1.576826265091
6	71385	29093.093388571485	2.547991617973
6	71395	29111.948443857324	0.597231931332
6	71420	29121.000252008787	5.087360279921
6	71455	29131.322531689115	6.358804125675
6	71490	29138.821324359951	5.612703436939
6	71500	29140.899295476987	0.800642068638
6	71532	29148.930714178079	2.212367812073
6	71545	29155.524297821541	1.068547519379
6	71616	29165.98037389188	0.739821385751
6	71627	29168.349036670261	6.04942471635
6	71662	29184.560856885831	0.732399984415
6	71703	29189.627639080952	6.347729595238
6	71716	29192.087733776258	4.104015606824
6	71754	29199.064444875557	2.610965036089
6	71765	29204.087940160305	0.742847150052
6	71795	29209.453713938343	3.196955359603
6	71800	29211.487993089717	0.747153697442
6	71810	29213.718180601109	2.175569891837
6	71815	29216.150717691941	0.77165336716
6	71835	29231.165759267412	0.915842620395
6	71855	29239.61173860686	1.094231265403
6	71860	29254.775764598624	0.633476728201
6	71875	29260.177471119654	2.911970692394
6	71915	29277.832736612563	4.655863150237
6	71942	29287.021896819088	2.756470137358
6	71970	29298.622082516471	0.467430502456
6	71992	29315.564858916864	2.715334647217
6	72000	29317.022123140772	1.999986601197
6	72030	29326.080728074171	0.768964322284
6	72035	29333.345099204703	0.65866884985
6	72040	29338.428355144519	0.738934034528
6	72052	29346.142825292763	0.765197029104
6	72060	29348.306802231981	4.451090480189
6	72120	29361.635615892194	6.040740854621
6	72125	29364.781648303475	0.803875544947
6	72145	29380.874441446467	0.947791025043
6	72175	29389.518468592598	4.7042806247
6	72194	29392.481021255383	2.500753672142
6	72215	29396.023212229737	6.029641301047
6	72220	29400.434143660736	0.689028141694
6	72235	29403.759375927397	1.585569490783
6	72332	29437.64790049436	1.417564078241
6	72347	29443.490046381155	0.893442797428
6	72365	29447.107718471595	3.379473455129
6	72375	29453.255702969906	1.075263497265
6	72400	29463.129764997038	2.505160926932
6	72422	29468.661868524378	2.598671599068
6	72425	29469.518401178684	1.338362590158
6	72455	29478.437421010413	0.798327417113
6	72460	29479.458569987648	0.738217314612
6	72490	29486.486017881904	0.766977224975
6	72560	29509.197262068282	1.707632886641
6	72570	29539.16673126345	0.501200473681
6	72575	29541.545780770797	0.620402838336
6	72595	29552.272698056874	0.842507592496
6	72659	29562.112215499094	1.479231371363
6	72710	29569.818325314953	10.599121194119
6	72741	29577.653546252743	2.132873946335
6	72744	29578.071316478391	0.974678878848
6	72780	29587.395832492825	0.954294149263
6	72792	29594.190397180207	0.868049537204
6	72805	29596.48116040402	2.372535703511
6	72810	29597.706055055768	0.512260517851
6	72842	29620.780612393784	0.832543417765
6	72860	29624.648967683021	4.307767739906
6	72867	29631.234581506377	0.442912441725
6	72910	29656.150054105833	4.146423999136
6	72925	29660.647261161412	2.456679087412
6	72972	29684.037646352292	1.032807708284
6	72980	29689.12983240991	0.411278779292
6	73000	29700.23581183064	1.185521059816
6	73025	29706.414281209573	4.769518243354
6	73055	29728.205087970925	0.437459183624
6	73072	29733.726757836708	3.175097969443
6	73120	29742.826698124687	3.762071427844
6	73152	29751.317413132498	0.718879965692
6	73162	29752.322963391244	0.908713602137
6	73180	29754.59017383832	3.518030557543
6	73221	29784.65558706175	3.835677875811
6	73233	29785.865207886951	0.910581306313
6	73280	29792.120056673953	0.57159285731
6	73290	29793.679176731244	4.704581285313
6	73342	29806.593940961667	3.028432827643
6	73345	29807.113832229496	2.52420502366
6	73350	29807.860074456623	0.476044658246
6	73380	29828.582163304961	0.410459762579
6	73405	29845.736958316079	2.549099815069
6	73432	29852.675670598249	0.457240050705
6	73435	29853.542310714244	4.405663288482
6	73545	29889.24681881487	0.995401825523
6	73602	29908.546356517952	4.355111546993
6	73660	29932.629546739848	1.608604983523
6	73685	29937.055517280745	0.538163511921
6	73721	29941.430871797934	3.730860857244
6	73757	29947.236490586766	5.714925336773
6	73832	29979.252369693464	0.622178625688
6	73865	29985.163042212303	2.799165562486
6	73887	29992.265009906183	1.051164423947
6	73890	29993.262014240951	2.353728058654
6	73895	29995.549887374317	0.607482492505

