version 2
run First_exit_8-9-20191114-11:42:29-8877
attr configname First_exit_8
attr datetime 20191114-11:42:29
attr experiment First_exit_8
attr inifile omnetpp.ini
attr iterationvars ""
attr iterationvarsf ""
attr measurement ""
attr network ResponseTimeNetwork
attr processid 8877
attr repetition 9
attr replication #9
attr resultdir results
attr runnumber 9
attr seedset 9
param **.Source.interArrivalTime exponential(4s)
param **.jobPriority bernoulli(0.4)
param **.PS.serviceTimeU1 "uniform(0.4s, 1.0s)"
param **.PS.serviceTimeU2 "uniform(1s, 1.2s)"
param **.SS1.serviceTime exponential(0.4s)
param **.SS2.serviceTime exponential(0.8s)
param **.PS.exitProbability bernoulli(0.8)

vector 0 ResponseTimeNetwork.QueueU2 queueLength:vector ETV
attr interpolationmode sample-hold
attr title "queue length, vector"
vector 1 ResponseTimeNetwork.SS2 queueLength:vector ETV
attr interpolationmode sample-hold
attr title "queue length, vector"
vector 2 ResponseTimeNetwork.sink lifeTimeU2:vector ETV
attr interpolationmode none
attr title "lifetime of arrived jobs U2, vector"
attr unit s
vector 3 ResponseTimeNetwork.sink totalServiceTimeU2:vector ETV
attr interpolationmode none
attr title "the total time spent  by arrived jobs U2, vector"
attr unit s
vector 4 ResponseTimeNetwork.sink lifeTime:vector ETV
attr interpolationmode none
attr title "lifetime of arrived jobs, vector"
attr unit s
vector 5 ResponseTimeNetwork.sink totalServiceTime:vector ETV
attr interpolationmode none
attr title "the total time spent  by arrived jobs, vector"
attr unit s
vector 6 ResponseTimeNetwork.QueueU1 queueLength:vector ETV
attr interpolationmode sample-hold
attr title "queue length, vector"
vector 7 ResponseTimeNetwork.sink lifeTimeU1:vector ETV
attr interpolationmode none
attr title "lifetime of arrived jobs U1, vector"
attr unit s
vector 8 ResponseTimeNetwork.sink totalServiceTimeU1:vector ETV
attr interpolationmode none
attr title "the total time spent  by arrived jobs U1, vector"
attr unit s
vector 9 ResponseTimeNetwork.SS1 queueLength:vector ETV
attr interpolationmode sample-hold
attr title "queue length, vector"
0	63317	10000.564658709412	3
0	63320	10001.342950406979	2
0	63324	10001.581277314399	3
0	63325	10002.039650272467	2
0	63329	10002.078997151361	3
0	63331	10002.786392712357	4
0	63332	10002.907467467227	3
0	63335	10003.487508466915	2
0	63339	10003.820130497239	3
0	63340	10004.001828779216	2
0	63344	10004.552755632958	3
0	63345	10004.838211227796	2
0	63349	10004.943796411379	3
0	63351	10005.372079629087	4
0	63352	10005.439986500592	3
0	63355	10006.049334052467	2
0	63358	10006.796479818394	1
0	63361	10007.764869210247	0
0	63375	10010.572641625943	1
0	63377	10011.240728612741	2
0	63378	10011.304507704928	1
0	63382	10011.814296409794	2
0	63384	10011.861954881186	3
0	63385	10011.95704724841	2
0	63389	10012.511520514518	3
0	63390	10012.613311187608	2
0	63393	10013.400458695425	1
0	63397	10013.791459244066	2
0	63403	10014.733641338965	1
0	63407	10014.897213928346	2
0	63409	10014.99219502628	3
0	63411	10015.408580946872	4
0	63412	10015.489167088328	3
0	63416	10015.855665174029	4
0	63417	10016.040506652661	3
0	63421	10016.15583257972	4
0	63423	10016.564857650496	5
0	63424	10016.598280139186	4
0	63428	10016.704893849189	5
0	63435	10017.571648039601	6
0	63436	10018.292425981082	5
0	63440	10018.344728391895	6
0	63442	10018.552252532279	7
0	63449	10019.353777879829	8
0	63450	10019.693978212738	7
0	63454	10019.919520532014	8
0	63461	10020.647404405872	9
0	63462	10021.052645109325	8
0	63468	10021.341642930561	9
0	63478	10022.414077926306	10
0	63480	10022.533292613184	11
0	63481	10023.034808887179	10
0	63484	10023.741042272617	9
0	63488	10024.038501145069	10
0	63489	10024.209538568008	9
0	63495	10024.646422069387	10
0	63502	10024.990992105237	11
0	63506	10026.466202006407	10
0	63519	10028.563376630994	9
0	63523	10029.077295270834	10
0	63524	10029.184383628948	9
0	63528	10029.242366743746	10
0	63529	10029.733916886442	9
0	63532	10030.450302269694	8
0	63536	10030.694409168781	9
0	63537	10031.366233610094	8
0	63540	10032.040102797572	7
0	63543	10032.533605299389	6
0	63546	10033.022402784426	5
0	63550	10033.314927399938	6
0	63552	10033.432095964375	7
0	63553	10033.818256173155	6
0	63556	10034.375742893538	5
0	63560	10035.004728171578	6
0	63561	10035.026474333799	5
0	63564	10035.505077442538	4
0	63567	10036.161315891949	3
0	63571	10036.697615673973	4
0	63577	10037.287425114784	3
0	63581	10037.381441893802	4
0	63585	10038.008931828152	5
0	63587	10038.068489699141	6
0	63592	10038.091953788176	7
0	63593	10039.02296415289	6
0	63597	10039.211653952863	7
0	63616	10041.901416978501	8
0	63623	10042.377338237085	9
0	63640	10044.594801654099	10
0	63642	10044.606818497008	11
0	63644	10045.024496963151	12
0	63658	10047.728239974949	11
0	63664	10048.367888542449	12
0	63669	10048.583622471626	13
0	63675	10049.84716835987	12
0	63679	10050.102481556666	13
0	63688	10050.911749909082	14
0	63707	10054.102621394966	13
0	63716	10055.131849941886	14
0	63717	10055.844031987676	13
0	63720	10056.816606000542	12
0	63724	10057.416004204438	13
0	63725	10057.478545804286	12
0	63729	10057.505598552121	13
0	63730	10057.901274949928	12
0	63734	10057.904767023782	13
0	63735	10058.728248697669	12
0	63739	10058.886341764978	13
0	63741	10058.914177395486	14
0	63742	10059.462998972983	13
0	63746	10059.505618793702	14
0	63747	10059.881223654943	13
0	63751	10060.13435704438	14
0	63752	10060.482599242134	13
0	63756	10060.785475272121	14
0	63757	10061.377059202371	13
0	63760	10061.888610956687	12
0	63763	10062.44919853365	11
0	63767	10063.192889014612	12
0	63768	10063.273240612829	11
0	63772	10063.339495450045	12
0	63774	10063.669329224235	13
0	63776	10063.732693737598	14
0	63777	10063.985339774527	13
0	63781	10064.068511414454	14
0	63783	10064.326684153286	15
0	63784	10064.946860652287	14
0	63788	10064.971083211128	15
0	63789	10065.906589403293	14
0	63793	10066.598758379733	15
0	63794	10066.728066506806	14
0	63797	10067.545202781503	13
0	63801	10068.034727811949	14
0	63802	10068.246147644111	13
0	63806	10068.367080960437	14
0	63808	10068.699835722833	15
0	63809	10068.790659596642	14
0	63812	10069.748141046112	13
0	63816	10070.033244133288	14
0	63817	10070.186154819477	13
0	63820	10070.906229063227	12
0	63824	10071.100777385593	13
0	63826	10071.60173011491	14
0	63827	10071.642299227194	13
0	63830	10072.36137532374	12
0	63834	10073.17240511611	13
0	63835	10073.201595716282	12
0	63838	10073.816775551728	11
0	63842	10074.534443382207	12
0	63844	10074.556758900874	13
0	63846	10074.758655410648	14
0	63847	10074.778088814915	13
0	63850	10075.559208334294	12
0	63854	10075.857959431759	13
0	63855	10075.962459595186	12
0	63859	10076.017625652071	13
0	63861	10076.17597315221	14
0	63862	10076.707418901856	13
0	63866	10077.091903977424	14
0	63868	10077.190597360373	15
0	63869	10077.262749190452	14
0	63873	10077.440990144013	15
0	63874	10078.087393624485	14
0	63878	10078.264173506057	15
0	63885	10078.919591336305	16
0	63887	10079.240148189496	17
0	63888	10079.421016276032	16
0	63922	10083.275401786437	17
0	63983	10092.186990035567	16
0	63987	10092.259822033639	17
0	63993	10092.605879472045	18
0	64008	10094.665315739372	19
0	64032	10098.505546465013	18
0	64041	10099.154731978126	19
0	64042	10099.754044149127	18
0	64046	10100.037800434593	19
0	64047	10100.536090989048	18
0	64056	10101.598719623996	19
0	64058	10102.220442669314	20
0	64059	10102.317346912865	19
0	64067	10103.269726909008	18
0	64076	10104.223037328421	19
0	64078	10104.539816979288	20
0	64079	10104.678266311772	19
0	64088	10105.70456170446	20
0	64089	10105.819475367907	19
0	64092	10106.666991543173	18
0	64095	10107.203726651668	17
0	64099	10107.875753656494	18
0	64100	10107.886502430038	17
0	64103	10108.467632790338	16
0	64106	10108.984440028118	15
0	64109	10109.719189572809	14
0	64113	10109.996498142534	15
0	64114	10110.132000102438	14
0	64118	10110.367375038004	15
0	64119	10110.87461361113	14
0	64122	10111.344583927058	13
0	64126	10112.04720923224	14
0	64127	10112.203753914647	13
0	64131	10112.315311578428	14
0	64133	10112.767572535329	15
0	64134	10113.197376310742	14
0	64138	10113.354076846035	15
0	64139	10113.621630585157	14
0	64143	10113.927546885384	15
0	64144	10114.217975033876	14
0	64148	10114.353372752833	15
0	64150	10114.63610721219	16
0	64151	10114.878555764966	15
0	64155	10115.001615534343	16
0	64157	10115.169183996089	17
0	64158	10115.804703924908	16
0	64162	10116.246877304617	17
0	64163	10116.495740631838	16
0	64167	10116.560292961011	17
0	64168	10117.364549575477	16
0	64171	10118.018935410549	15
0	64174	10118.463061417463	14
0	64178	10118.553291396653	15
0	64179	10119.373721618262	14
0	64183	10119.724699236859	15
0	64185	10120.078067545864	16
0	64186	10120.372434143686	15
0	64189	10120.977278630539	14
0	64193	10121.102038268283	15
0	64195	10121.118733991883	16
0	64197	10121.460839948246	17
0	64198	10121.611547183442	16
0	64202	10122.217818946533	17
0	64204	10122.241431376431	18
0	64205	10122.389345385284	17
0	64209	10122.538639987576	18
0	64210	10123.358617405371	17
0	64214	10123.43303102854	18
0	64215	10123.878143354376	17
0	64218	10124.418182965052	16
0	64221	10124.937098145867	15
0	64224	10125.541985810977	14
0	64227	10126.002807963836	13
0	64231	10126.577223607801	14
0	64232	10126.952715923182	13
0	64235	10127.500024266645	12
0	64239	10128.034713753635	13
0	64240	10128.323165821388	12
0	64244	10128.567781144759	13
0	64246	10128.833195744744	14
0	64247	10128.923525707993	13
0	64251	10129.013830479354	14
0	64252	10129.349255573993	13
0	64256	10129.989310290958	14
0	64257	10130.297077480761	13
0	64261	10130.549425694179	14
0	64262	10130.738941000785	13
0	64266	10131.003535400574	14
0	64268	10131.209430579817	15
0	64269	10131.738299672037	14
0	64272	10132.506508380977	13
0	64275	10133.04674146833	12
0	64278	10133.560180621884	11
0	64282	10133.571595590562	12
0	64284	10133.717685669695	13
0	64286	10133.994874951711	14
0	64288	10134.047093150355	15
0	64289	10134.479803669556	14
0	64293	10134.881543970027	15
0	64294	10135.054711548296	14
0	64297	10135.681496128963	13
0	64301	10135.910632493469	14
0	64302	10136.198319588659	13
0	64306	10136.619805162425	14
0	64307	10136.925799886334	13
0	64311	10137.503791071308	14
0	64312	10137.728269779134	13
0	64316	10138.120421504721	14
0	64317	10138.557587836787	13
0	64325	10139.875399265729	12
0	64333	10141.028037781932	11
0	64336	10141.777313200582	10
0	64339	10142.406497231929	9
0	64343	10143.375320066541	10
0	64344	10143.405528882949	9
0	64347	10143.889601635851	8
0	64351	10144.361867392587	9
0	64352	10144.470223234186	8
0	64356	10144.678897206073	9
0	64358	10145.026920532607	10
0	64359	10145.180468399787	9
0	64363	10145.789198197359	10
0	64365	10145.894025950835	11
0	64366	10146.142311019834	10
0	64370	10146.224950350774	11
0	64372	10146.39165616024	12
0	64373	10146.758294676162	11
0	64377	10147.243826459785	12
0	64378	10147.328975558478	11
0	64382	10147.597057735258	12
0	64383	10148.149203353712	11
0	64387	10148.203964141484	12
0	64388	10148.855499496275	11
0	64392	10148.866153552743	12
0	64396	10149.765701554176	13
0	64398	10149.833836965549	14
0	64402	10150.598672506364	13
0	64411	10151.435054930469	14
0	64412	10151.992255450238	13
0	64415	10152.441091823962	12
0	64418	10152.933543567464	11
0	64427	10153.793406405295	12
0	64429	10153.810625850596	13
0	64430	10153.922031187697	12
0	64433	10154.386111026316	11
0	64437	10154.591447568397	12
0	64439	10154.667269799668	13
0	64441	10154.86843742118	14
0	64442	10155.225029145193	13
0	64448	10155.772968905968	14
0	64453	10156.182261431401	15
0	64455	10156.191045882918	16
0	64456	10156.783689240798	15
0	64460	10156.973528343187	16
0	64461	10157.249679551659	15
0	64470	10158.139951334333	16
0	64472	10158.458276547493	17
0	64473	10158.748818258209	16
0	64477	10159.155033877089	17
0	64478	10159.56602899019	16
0	64482	10159.859017467797	17
0	64483	10160.400101186627	16
0	64487	10160.565759462406	17
0	64488	10161.39946016284	16
0	64492	10161.610539882824	17
0	64493	10162.381637381961	16
0	64497	10162.631540117807	17
0	64499	10162.813688101092	18
0	64500	10162.814839203761	17
0	64503	10163.277384601732	16
0	64506	10163.978543595982	15
0	64510	10164.223802748183	16
0	64512	10164.269034847425	17
0	64514	10164.271777122718	18
0	64515	10164.565444302618	17
0	64519	10165.276898485877	18
0	64520	10165.564520859125	17
0	64524	10166.125679759237	18
0	64525	10166.21084871582	17
0	64529	10166.531509971697	18
0	64530	10166.665331682528	17
0	64534	10167.473007233189	18
0	64535	10167.545933007414	17
0	64539	10167.796325068238	18
0	64540	10168.266536705813	17
0	64544	10168.424983584915	18
0	64545	10168.767513124237	17
0	64549	10168.801994291739	18
0	64550	10169.588315026893	17
0	64554	10169.929488512591	18
0	64555	10170.035997104284	17
0	64558	10170.592197305069	16
0	64561	10171.391120065574	15
0	64564	10172.12122689645	14
0	64567	10172.8090606826	13
0	64571	10172.836902470331	14
0	64573	10172.861878066709	15
0	64575	10173.379225283457	16
0	64576	10173.40394673437	15
0	64580	10173.456860364142	16
0	64584	10173.860574544839	17
0	64588	10175.008803743088	16
0	64594	10175.699240790632	17
0	64599	10175.907508688536	18
0	64601	10176.033227122437	19
0	64603	10176.104398088972	20
0	64604	10176.378350175649	19
0	64608	10176.526173207776	20
0	64609	10177.039070161723	19
0	64612	10177.511678984261	18
0	64616	10178.079912351493	19
0	64617	10178.282885991468	18
0	64620	10178.812305258506	17
0	64623	10179.515849024908	16
0	64626	10180.331309439487	15
0	64629	10180.811859153456	14
0	64633	10181.186881052424	15
0	64635	10181.380084173473	16
0	64636	10181.391201406822	15
0	64640	10181.469676839304	16
0	64642	10182.128733872985	17
0	64643	10182.327640402422	16
0	64646	10182.810252202873	15
0	64649	10183.702014050132	14
0	64652	10184.206148400728	13
0	64656	10184.338550427996	14
0	64658	10184.412826295079	15
0	64660	10184.585205757874	16
0	64661	10185.169153486111	15
0	64665	10185.256354225859	16
0	64666	10185.959913519875	15
0	64670	10186.195524009216	16
0	64672	10186.383773672304	17
0	64673	10186.630613516469	16
0	64677	10186.74917978109	17
0	64678	10187.223851823399	16
0	64682	10187.459866202574	17
0	64683	10187.975491530506	16
0	64687	10188.154551518602	17
0	64688	10188.943019858386	16
0	64692	10189.073206243224	17
0	64694	10189.173970370276	18
0	64696	10189.257254070605	19
0	64698	10189.636210153583	20
0	64699	10189.837820168875	19
0	64702	10190.463900800992	18
0	64705	10191.079839865316	17
0	64709	10191.222088231056	18
0	64711	10191.630180274463	19
0	64713	10191.672754246731	20
0	64714	10191.865620485751	19
0	64717	10192.691755595023	18
0	64720	10193.414746363891	17
0	64723	10193.939086723711	16
0	64727	10194.548207715037	17
0	64728	10194.561624710086	16
0	64732	10195.31979787786	17
0	64733	10195.51639029245	16
0	64736	10196.211385236784	15
0	64739	10196.829903350548	14
0	64743	10197.299273043771	15
0	64744	10197.393190111277	14
0	64748	10197.549851407569	15
0	64749	10198.211225158592	14
0	64752	10198.619918469164	13
0	64756	10198.704860201124	14
0	64757	10199.294810493022	13
0	64761	10199.389712100201	14
0	64768	10200.830600015592	15
0	64770	10201.052573355271	16
0	64771	10201.090309008734	15
0	64777	10201.447206072232	16
0	64779	10201.870429171113	17
0	64783	10202.380746426584	16
0	64786	10203.264675703842	15
0	64790	10203.791978480995	16
0	64791	10203.96654658612	15
0	64795	10204.280463425114	16
0	64797	10204.470505049486	17
0	64798	10204.576093665428	16
0	64802	10204.827405984985	17
0	64804	10204.875204731884	18
0	64811	10205.987680850588	19
0	64812	10206.231903662403	18
0	64816	10206.776081562485	19
0	64817	10206.936358947084	18
0	64821	10207.091897986752	19
0	64823	10207.190425266578	20
0	64824	10207.374064191674	19
0	64827	10208.221447962347	18
0	64831	10208.239921423243	19
0	64832	10208.800270700465	18
0	64835	10209.365972304541	17
0	64839	10210.167633237117	18
0	64840	10210.196088144473	17
0	64843	10210.975365351151	16
0	64847	10211.079482885865	17
0	64848	10211.904319726873	16
0	64852	10212.05201949061	17
0	64854	10212.66740729844	18
0	64856	10212.778297017149	19
0	64857	10212.855414481565	18
0	64861	10213.456519194839	19
0	64862	10213.668060527427	18
0	64865	10214.132000361441	17
0	64869	10214.219748192949	18
0	64870	10214.632990250282	17
0	64874	10214.704303068877	18
0	64875	10215.275637461443	17
0	64878	10216.225956459541	16
0	64882	10216.401547631144	17
0	64883	10216.782192181714	16
0	64887	10216.966872795149	17
0	64889	10217.65939725622	18
0	64890	10217.754632823274	17
0	64894	10218.637323962698	18
0	64895	10218.750973438297	17
0	64899	10218.908314307059	18
0	64901	10219.540538289409	19
0	64902	10219.607737199275	18
0	64905	10220.386873687349	17
0	64908	10220.808644759247	16
0	64912	10220.843168932839	17
0	64914	10221.016062160947	18
0	64915	10221.448617130482	17
0	64919	10222.169469049517	18
0	64920	10222.407550915388	17
0	64923	10223.221469366561	16
0	64927	10223.28765050049	17
0	64928	10223.689052033947	16
0	64932	10224.165356224066	17
0	64934	10224.173806574904	18
0	64936	10224.463930528839	19
0	64937	10224.562268351169	18
0	64941	10225.287374935977	19
0	64942	10225.420754483306	18
0	64945	10226.291002683398	17
0	64948	10227.053340604259	16
0	64957	10228.230852780999	17
0	64958	10228.888419632949	16
0	64962	10229.249234801824	17
0	64963	10229.416669613598	16
0	64966	10229.830926932357	15
0	64970	10230.168677203287	16
0	64972	10230.459893473377	17
0	64973	10230.614324992206	16
0	64977	10230.716449579138	17
0	64978	10231.560933468174	16
0	64981	10232.030169877093	15
0	64985	10232.181405711439	16
0	64986	10232.815015691668	15
0	64990	10233.513445731497	16
0	64991	10233.515403494248	15
0	64994	10234.104453587821	14
0	64998	10234.140055345127	15
0	64999	10234.618276089393	14
0	65002	10235.61195261037	13
0	65006	10235.64870288594	14
0	65008	10235.933830320795	15
0	65009	10236.603523183484	14
0	65013	10236.722435045078	15
0	65014	10237.083011044432	14
0	65018	10237.597342539892	15
0	65019	10237.693966338095	14
0	65022	10238.160457089088	13
0	65028	10238.544805218562	14
0	65032	10239.232349151849	13
0	65035	10239.909117406058	12
0	65038	10240.480569346352	11
0	65041	10240.900976052145	10
0	65045	10241.625178259422	11
0	65046	10241.852669999898	10
0	65050	10242.164173045462	11
0	65051	10242.296321067922	10
0	65054	10243.209354603766	9
0	65057	10244.19069305338	8
0	65061	10244.804797214245	9
0	65062	10245.159269093732	8
0	65066	10245.292284716273	9
0	65067	10245.907667805823	8
0	65071	10246.315330114362	9
0	65072	10246.449876944451	8
0	65080	10247.929631920308	7
0	65084	10248.314725834347	8
0	65086	10248.571705211512	9
0	65092	10249.454635360055	8
0	65096	10249.680246869678	9
0	65097	10250.015843217131	8
0	65108	10250.840969044024	9
0	65110	10251.315380866573	10
0	65130	10254.365459810154	11
0	65131	10254.417895898373	10
0	65142	10254.922218365071	11
0	65174	10260.222720763584	12
0	65178	10261.466975287125	11
0	65191	10262.604899964768	12
0	65223	10267.841069780626	11
0	65226	10268.424000272537	10
0	65232	10269.041346936478	11
0	65237	10269.626342111264	12
0	65239	10269.634047288221	13
0	65251	10270.928626835441	14
0	65252	10271.398892892442	13
0	65263	10272.126788017796	14
0	65270	10273.150316516185	15
0	65274	10273.995711196504	14
0	65280	10274.404737255588	15
0	65285	10275.090116019103	16
0	65286	10275.637586692545	15
0	65295	10276.340608768613	16
0	65297	10276.562213754967	17
0	65298	10277.092641090892	16
0	65302	10277.111304407257	17
0	65304	10277.463212413286	18
0	65305	10277.547016387025	17
0	65314	10278.473862280659	18
0	65315	10279.253411274834	17
0	65319	10279.695743702448	18
0	65320	10280.046256190224	17
0	65324	10280.201609397292	18
0	65325	10280.491488797089	17
0	65334	10281.584091334772	18
0	65336	10281.588975615682	19
0	65337	10281.833361139579	18
0	65343	10282.313596575074	19
0	65348	10282.846638811919	20
0	65349	10283.622793341998	19
0	65357	10284.792368198058	18
0	65365	10286.094254729442	17
0	65369	10286.2236188024	18
0	65370	10286.759026100591	17
0	65378	10287.887634485366	16
0	65384	10288.423720528446	17
0	65393	10290.015050485182	16
0	65397	10290.3895601591	17
0	65398	10290.464698832726	16
0	65402	10290.838354098099	17
0	65403	10290.98777029087	16
0	65409	10291.590417604001	17
0	65416	10291.983992431045	18
0	65418	10292.334048722085	19
0	65428	10293.283415014116	20
0	65459	10297.942594861156	19
0	65468	10298.721127870608	20
0	65469	10299.502287180872	19
0	65477	10300.514920449407	18
0	65480	10300.928095289516	17
0	65489	10301.522838750471	18
0	65491	10301.704032774125	19
0	65492	10302.041203543507	18
0	65495	10302.589850377301	17
0	65499	10302.737061106949	18
0	65500	10303.187093591932	17
0	65503	10303.871272811303	16
0	65507	10304.356743005321	17
0	65509	10304.370556266307	18
0	65510	10304.672547345245	17
0	65513	10305.565253339857	16
0	65516	10306.446206967449	15
0	65519	10306.859104172522	14
0	65522	10307.738012332991	13
0	65525	10308.718618602967	12
0	65529	10308.751602034129	13
0	65536	10309.743338061352	14
0	65537	10309.896344559369	13
0	65541	10309.927002575153	14
0	65543	10310.502053783685	15
0	65544	10310.780299041988	14
0	65550	10310.858526133152	15
0	65555	10311.934818175078	16
0	65557	10312.005706746908	17
0	65558	10312.021778139342	16
0	65561	10312.446000042009	15
0	65565	10313.009809221445	16
0	65566	10313.304744875581	15
0	65570	10313.748531862453	16
0	65571	10314.064024425215	15
0	65575	10314.842061958114	16
0	65576	10314.843195972276	15
0	65580	10314.884239143491	16
0	65582	10315.007735776493	17
0	65583	10315.302572531822	16
0	65587	10315.350614344796	17
0	65589	10315.451893163533	18
0	65591	10315.537700143627	19
0	65592	10316.088991112738	18
0	65596	10316.301453442004	19
0	65597	10316.645990613346	18
0	65601	10317.104886451634	19
0	65602	10317.375304002651	18
0	65605	10317.99241546277	17
0	65609	10318.299014957095	18
0	65610	10318.594449406406	17
0	65614	10318.925096727748	18
0	65615	10319.275381512949	17
0	65619	10319.364722412078	18
0	65621	10319.533541601646	19
0	65623	10319.802816086523	20
0	65625	10320.147284865564	21
0	65626	10320.156257539764	20
0	65629	10320.876980610015	19
0	65632	10321.366264277147	18
0	65636	10321.428755408019	19
0	65637	10322.167732621645	18
0	65641	10322.502937773461	19
0	65642	10322.827310757674	18
0	65646	10323.478970194038	19
0	65647	10323.572375635393	18
0	65650	10323.990396923628	17
0	65654	10324.021986038577	18
0	65655	10324.711525248699	17
0	65659	10325.015415617072	18
0	65660	10325.498132427186	17
0	65664	10325.68783212178	18
0	65666	10326.15843167589	19
0	65667	10326.341264041336	18
0	65671	10326.531974459081	19
0	65677	10327.415699425116	18
0	65683	10327.591225067744	19
0	65688	10328.445263003739	20
0	65689	10328.522489577494	19
0	65703	10329.731968459821	20
0	65769	10340.28358766144	19
0	65772	10341.1974003709	18
0	65775	10341.767143244211	17
0	65778	10342.361005133585	16
0	65782	10342.376654642471	17
0	65783	10342.867932299114	16
0	65787	10342.956013879174	17
0	65794	10343.747908035024	18
0	65796	10343.968801962206	19
0	65797	10344.204665486383	18
0	65805	10345.78411780727	17
0	65809	10346.012250380731	18
0	65816	10346.969081554667	19
0	65818	10347.023026802089	20
0	65819	10347.717907092589	19
0	65828	10348.671257909344	20
0	65829	10349.302964935414	19
0	65838	10350.290838780874	20
0	65844	10351.213391140112	19
0	65847	10352.041785993156	18
0	65855	10353.381978961135	17
0	65861	10353.883694535981	18
0	65866	10354.669748518112	19
0	65868	10354.985225665741	20
0	65869	10355.079511286373	19
0	65885	10356.834599979846	20
0	65900	10359.647310645902	21
0	65901	10359.690685252108	20
0	65907	10360.289457631632	21
0	65911	10361.541465683708	20
0	65914	10362.275169407165	19
0	65917	10362.998618261431	18
0	65921	10363.939715860407	19
0	65922	10363.946504122399	18
0	65926	10364.202934162347	19
0	65927	10364.695250062093	18
0	65930	10365.23062333945	17
0	65934	10365.509053440452	18
0	65936	10365.595492684551	19
0	65937	10366.060954249239	18
0	65940	10366.72927546339	17
0	65944	10366.730770069691	18
0	65945	10367.219888864978	17
0	65949	10367.255579358306	18
0	65950	10367.737022499515	17
0	65953	10368.624076042891	16
0	65957	10368.919014838415	17
0	65958	10369.36549584899	16
0	65961	10369.833955637281	15
0	65965	10370.024159116177	16
0	65966	10370.252978480104	15
0	65969	10371.066180610479	14
0	65973	10371.316164411284	15
0	65975	10371.383387892608	16
0	65976	10371.715053019495	15
0	65979	10372.600767375444	14
0	65983	10372.82468463309	15
0	65984	10373.106491937217	14
0	65987	10373.526405278043	13
0	65991	10374.016748791453	14
0	65992	10374.180552381565	13
0	65996	10374.516943660689	14
0	65997	10374.773089760923	13
0	66001	10375.172029250707	14
0	66002	10375.238357519181	13
0	66005	10375.994220168944	12
0	66009	10376.137250417567	13
0	66011	10376.596889602018	14
0	66012	10376.694824950359	13
0	66016	10376.706274476159	14
0	66017	10377.62916931115	13
0	66021	10378.115021365071	14
0	66022	10378.432460838472	13
0	66025	10378.946506077107	12
0	66029	10379.221555837316	13
0	66031	10379.247836520595	14
0	66032	10379.683128821813	13
0	66035	10380.159987058454	12
0	66039	10380.256020483586	13
0	66040	10381.079673707169	12
0	66043	10381.767944749408	11
0	66052	10382.827657378347	12
0	66054	10382.962225595975	13
0	66060	10384.049085811023	12
0	66069	10385.067731843336	13
0	66070	10385.233243909301	12
0	66073	10386.036242846595	11
0	66076	10386.489375275522	10
0	66082	10386.97261926684	11
0	66089	10387.104871604681	12
0	66103	10390.434709300808	11
0	66111	10391.821702510034	10
0	66115	10392.160134704663	11
0	66116	10392.397011238904	10
0	66120	10392.440748088486	11
0	66126	10393.930187837649	10
0	66135	10394.694216011138	11
0	66136	10394.971065356359	10
0	66144	10396.000977082467	9
0	66153	10396.879049132765	10
0	66160	10397.230367667288	11
0	66174	10399.212676912827	12
0	66203	10404.027760588061	11
0	66211	10405.105908506047	10
0	66214	10405.874927924676	9
0	66218	10406.584688712747	10
0	66219	10406.76435556124	9
0	66222	10407.290670368737	8
0	66225	10408.141244450733	7
0	66229	10408.272868174282	8
0	66230	10408.779875073731	7
0	66234	10409.280529834446	8
0	66235	10409.427124137348	7
0	66238	10409.909581177971	6
0	66242	10409.983329931002	7
0	66243	10410.554428003645	6
0	66246	10411.052219357957	5
0	66249	10411.814774623523	4
0	66253	10412.183306482694	5
0	66255	10412.46574886989	6
0	66256	10412.710757645555	5
0	66259	10413.33881676375	4
0	66263	10413.716345395288	5
0	66264	10413.846990780961	4
0	66267	10414.529995172667	3
0	66271	10415.472222957894	4
0	66272	10415.477154996815	3
0	66276	10415.587085455331	4
0	66278	10415.976581450441	5
0	66280	10416.230098050768	6
0	66281	10416.312552848794	5
0	66285	10416.718031730198	6
0	66287	10416.819995531203	7
0	66289	10416.907147848322	8
0	66291	10417.171560792807	9
0	66292	10417.286005282598	8
0	66296	10417.476751697437	9
0	66298	10417.586115108457	10
0	66300	10418.157249157523	11
0	66301	10418.166397235366	10
0	66304	10418.595316110561	9
0	66308	10418.778653279036	10
0	66310	10419.273958778721	11
0	66311	10419.435429872303	10
0	66315	10419.605643055156	11
0	66317	10420.128445526569	12
0	66318	10420.146579829148	11
0	66322	10420.24593087424	12
0	66324	10420.790365255845	13
0	66325	10421.015011499693	12
0	66329	10421.493744464084	13
0	66330	10421.591446680493	12
0	66334	10421.770187689296	13
0	66335	10422.431776965513	12
0	66341	10422.657051969554	13
0	66346	10423.387119521733	14
0	66348	10423.433013479171	15
0	66349	10423.805431848542	14
0	66352	10424.549289955023	13
0	66356	10424.570128398544	14
0	66357	10424.999309787956	13
0	66361	10425.102485905497	14
0	66362	10425.585236006846	13
0	66366	10425.877329611501	14
0	66367	10426.39000428022	13
0	66371	10426.827327935795	14
0	66372	10427.364866568717	13
0	66375	10427.916920142538	12
0	66378	10428.421495169039	11
0	66382	10428.867485230665	12
0	66383	10429.05573644206	11
0	66387	10429.248005131797	12
0	66388	10429.89662077996	11
0	66392	10429.898712176294	12
0	66394	10430.274535372501	13
0	66395	10430.303367330516	12
0	66399	10430.506146596926	13
0	66400	10431.248152595861	12
0	66404	10431.460159273013	13
0	66405	10431.763343458772	12
0	66409	10431.886432706229	13
0	66411	10432.196120438978	14
0	66412	10432.307717690487	13
0	66415	10433.259084407343	12
0	66418	10433.803557008794	11
0	66426	10434.899710457316	10
0	66430	10434.919465360587	11
0	66432	10435.331955584903	12
0	66434	10435.78615462299	13
0	66435	10435.820722607905	12
0	66439	10436.516219495743	13
0	66440	10436.556293984512	12
0	66443	10437.451083162297	11
0	66447	10437.787866920463	12
0	66448	10438.391894370374	11
0	66452	10438.554978793773	12
0	66453	10439.025764951353	11
0	66457	10439.891838758643	12
0	66458	10439.984247735805	11
0	66462	10440.095935618432	12
0	66463	10440.872805705491	11
0	66467	10441.05699151984	12
0	66468	10441.344158712878	11
0	66472	10441.863088470356	12
0	66473	10441.930896702326	11
0	66477	10442.134345951289	12
0	66478	10442.880691831895	11
0	66482	10443.244096134952	12
0	66483	10443.471010381645	11
0	66486	10444.004910193487	10
0	66490	10444.346705516044	11
0	66491	10444.509414827508	10
0	66495	10445.350183172015	11
0	66497	10445.352020364842	12
0	66498	10445.359297527942	11
0	66501	10445.915877465961	10
0	66505	10446.2887084336	11
0	66506	10446.833931917009	10
0	66509	10447.622233412984	9
0	66513	10447.710124954892	10
0	66514	10448.100750955484	9
0	66518	10448.188187569187	10
0	66519	10448.636759542824	9
0	66522	10449.147468018868	8
0	66525	10449.621537516137	7
0	66529	10449.969714554329	8
0	66530	10450.48531614748	7
0	66534	10450.728161470285	8
0	66535	10451.057927035225	7
0	66539	10451.151568974122	8
0	66540	10451.836703191569	7
0	66543	10452.389135023078	6
0	66549	10452.897522974782	7
0	66554	10453.125790776581	8
0	66555	10453.892925786331	7
0	66564	10454.679012901389	8
0	66566	10454.878387644187	9
0	66568	10454.967682068257	10
0	66569	10455.040728179795	9
0	66577	10456.612922310374	8
0	66581	10456.658932912034	9
0	66588	10458.215608980049	10
0	66589	10458.234011396497	9
0	66600	10459.824308397927	10
0	66602	10459.881058642349	11
0	66611	10460.295866213513	12
0	66613	10460.352222115483	13
0	66618	10460.789717296456	14
0	66652	10466.294555939466	13
0	66656	10466.417211684118	14
0	66657	10467.16780189384	13
0	66666	10468.2014781231	14
0	66667	10468.671425461315	13
0	66671	10468.901566849421	14
0	66672	10469.267605683126	13
0	66675	10469.832988169428	12
0	66683	10471.007265514426	11
0	66686	10471.710027744353	10
0	66689	10472.291840654902	9
0	66698	10473.436547369531	10
0	66699	10473.577350405103	9
0	66703	10473.74279358936	10
0	66705	10473.962001846221	11
0	66706	10474.032824705506	10
0	66714	10475.191453896428	9
0	66720	10475.626160004788	10
0	66724	10476.665766054264	9
0	66728	10476.714482006569	10
0	66735	10477.82131041622	11
0	66736	10478.053225463966	10
0	66742	10478.329577828829	11
0	66746	10479.588453240006	10
0	66750	10479.751252830416	11
0	66756	10481.293103829876	10
0	66770	10482.653208329285	11
0	66776	10483.872860409889	10
0	66784	10485.337132308224	9
0	66792	10486.472349029185	8
0	66801	10487.612596403805	9
0	66802	10487.904819891752	8
0	66805	10488.657164717942	7
0	66809	10488.967138722694	8
0	66810	10489.194654181657	7
0	66814	10489.744026317149	8
0	66816	10489.842135373911	9
0	66817	10489.889631310675	8
0	66821	10490.591534549009	9
0	66822	10490.694483823294	8
0	66826	10490.995779606406	9
0	66827	10491.278037597576	8
0	66830	10491.988935202418	7
0	66839	10492.772264720696	8
0	66840	10493.10290385891	7
0	66846	10493.350011711864	8
0	66848	10493.711323938621	9
0	66860	10494.906387271735	10
0	66867	10495.744206800815	11
0	66891	10499.687513599791	10
0	66932	10505.709103709601	11
0	66951	10507.877990474335	12
0	66963	10509.856569474389	11
0	66979	10511.683323306834	12
0	67008	10516.798511798693	11
0	67019	10517.947139966956	12
0	67058	10523.622137461848	11
0	67066	10524.063405508002	12
0	67076	10525.578035661258	13
0	67086	10526.927134689646	14
0	67087	10527.543290677167	13
0	67096	10528.313090316728	14
0	67097	10529.096611501009	13
0	67105	10530.422525715327	12
0	67111	10530.906220704503	13
0	67115	10532.000690734165	12
0	67119	10532.139973984348	13
0	67126	10533.203575040136	14
0	67128	10533.517493905254	15
0	67129	10533.59402960703	14
0	67135	10533.727800303747	15
0	67139	10534.9227969322	14
0	67143	10534.936324656773	15
0	67144	10535.403208374802	14
0	67153	10536.619586969325	15
0	67154	10536.822203016572	14
0	67157	10537.718083114421	13
0	67161	10537.8199799795	14
0	67162	10538.146434624597	13
0	67166	10538.869629400509	14
0	67167	10538.992920807853	13
0	67170	10539.895156877173	12
0	67174	10540.190008462532	13
0	67175	10540.333556008536	12
0	67178	10540.958110438019	11
0	67182	10541.138958438841	12
0	67184	10541.179594865866	13
0	67185	10541.946899986185	12
0	67189	10541.997100931103	13
0	67190	10542.839972511085	12
0	67193	10543.261453526944	11
0	67197	10543.376587881564	12
0	67198	10543.992349708883	11
0	67201	10544.569258983817	10
0	67205	10544.644454564946	11
0	67207	10544.942414999481	12
0	67209	10545.138727923556	13
0	67210	10545.179408893932	12
0	67213	10545.87239895045	11
0	67217	10546.263601921784	12
0	67218	10546.657882186269	11
0	67222	10547.016266368571	12
0	67223	10547.308239601284	11
0	67227	10547.873744359371	12
0	67228	10548.012584632646	11
0	67232	10548.842166196202	12
0	67233	10548.960069198824	11
0	67237	10549.172789599615	12
0	67239	10549.2884843186	13
0	67240	10549.907091492844	12
0	67243	10550.810218181425	11
0	67246	10551.401119664042	10
0	67249	10551.86105425913	9
0	67253	10551.979556471409	10
0	67255	10552.140399636485	11
0	67256	10552.487119646521	10
0	67260	10552.495685923307	11
0	67261	10552.889698887348	10
0	67265	10552.961408276109	11
0	67266	10553.314056020427	10
0	67270	10553.577929195988	11
0	67272	10554.093802276484	12
0	67273	10554.166926757723	11
0	67277	10554.255897505524	12
0	67279	10554.649569646224	13
0	67281	10554.659544863096	14
0	67282	10554.961988726735	13
0	67286	10555.17292158437	14
0	67287	10555.545342865178	13
0	67291	10555.741168598699	14
0	67292	10556.17699033633	13
0	67301	10556.947971894199	14
0	67303	10557.142266588348	15
0	67304	10557.170893089438	14
0	67313	10558.150324366088	15
0	67314	10558.678755164903	14
0	67320	10559.532999969082	15
0	67324	10559.976666811865	14
0	67327	10560.813723652309	13
0	67330	10561.382706013613	12
0	67333	10561.876428621833	11
0	67337	10562.363341723111	12
0	67338	10562.67238846143	11
0	67341	10563.175998566032	10
0	67347	10563.434123657797	11
0	67352	10563.682574179234	12
0	67354	10563.793504526183	13
0	67356	10563.998435494046	14
0	67357	10564.182125832757	13
0	67365	10565.58840708459	12
0	67373	10566.81491704263	11
0	67381	10568.296632553182	10
0	67385	10568.582008787584	11
0	67392	10568.91785065321	12
0	67393	10569.687458609194	11
0	67396	10570.369761042912	10
0	67405	10571.258682966282	11
0	67406	10571.4873657595	10
0	67414	10572.802842117484	9
0	67423	10573.935661696005	10
0	67425	10573.977616643708	11
0	67427	10574.496737321588	12
0	67448	10577.375600509216	11
0	67474	10580.210981811399	12
0	67506	10584.917339571624	13
0	67513	10585.872796154327	14
0	67520	10586.412052966126	15
0	67530	10586.918727233156	16
0	67581	10594.085428358626	15
0	67585	10594.361401519524	16
0	67586	10594.954548413923	15
0	67590	10595.443037126625	16
0	67591	10595.744078333408	15
0	67594	10596.335184069595	14
0	67598	10596.36847186202	15
0	67599	10596.912408823439	14
0	67603	10597.148680939869	15
0	67605	10597.343419884989	16
0	67606	10597.708875868342	15
0	67610	10597.989179418571	16
0	67611	10598.334204368259	15
0	67615	10599.041917182018	16
0	67617	10599.091627679409	17
0	67618	10599.262146466284	16
0	67621	10599.938659983699	15
0	67625	10600.02678635481	16
0	67627	10600.370100808856	17
0	67629	10600.41316129676	18
0	67630	10600.470839008701	17
0	67633	10601.292825146171	16
0	67637	10601.417154059554	17
0	67638	10601.880713247566	16
0	67642	10602.098590088433	17
0	67643	10602.81173703681	16
0	67646	10603.284836064896	15
0	67650	10603.433274065887	16
0	67652	10603.99905746785	17
0	67653	10604.035410484637	16
0	67656	10604.524417735602	15
0	67660	10604.971078660757	16
0	67661	10605.044308450085	15
0	67665	10605.712114881506	16
0	67666	10605.944874972117	15
0	67669	10606.865441475634	14
0	67672	10607.664306415117	13
0	67676	10607.828436079168	14
0	67678	10608.364564602818	15
0	67680	10608.427709441499	16
0	67681	10608.560009209311	15
0	67685	10609.054644386769	16
0	67686	10609.39339292153	15
0	67690	10609.533582774555	16
0	67691	10610.340676465782	15
0	67695	10610.476492399817	16
0	67696	10611.310160296003	15
0	67699	10611.815035859274	14
0	67703	10612.065904973532	15
0	67705	10612.334396212436	16
0	67707	10612.342786271471	17
0	67714	10613.135700078547	18
0	67715	10613.419512242137	17
0	67723	10614.805577134632	16
0	67729	10615.18050766032	17
0	67731	10615.351185476864	18
0	67736	10615.997599620848	19
0	67737	10616.390414180245	18
0	67746	10617.440046449094	19
0	67747	10617.459730371565	18
0	67753	10617.866962327114	19
0	67758	10618.237359043988	20
0	67759	10618.843166043481	19
0	67768	10619.981784292351	20
0	67769	10620.409030136757	19
0	67780	10621.58163877417	20
0	67782	10621.669801520984	21
0	67796	10622.960685923113	22
0	67808	10625.235527371812	21
0	67822	10626.801055392257	22
0	67824	10626.808109529686	23
0	67825	10627.119151007674	22
0	67833	10628.351997373822	21
0	67836	10629.159529613714	20
0	67839	10629.738285078538	19
0	67843	10629.776285395116	20
0	67844	10630.154249403031	19
0	67848	10630.742222613676	20
0	67849	10630.880454226501	19
0	67853	10631.625912426668	20
0	67854	10631.841316327464	19
0	67862	10633.609698526991	18
0	67868	10634.234678251543	19
0	67870	10634.554028653539	20
0	67874	10634.993879506422	19
0	67877	10635.890515586279	18
0	67881	10636.084734277271	19
0	67883	10636.629498681341	20
0	67884	10636.697060245752	19
0	67888	10637.015161092569	20
0	67889	10637.166255012398	19
0	67892	10637.923909314639	18
0	67895	10638.772862395654	17
0	67898	10639.291043463545	16
0	67901	10639.860800249279	15
0	67904	10640.553204371371	14
0	67908	10640.557327602035	15
0	67910	10640.956425180106	16
0	67911	10641.501482106848	15
0	67915	10642.099599070473	16
0	67916	10642.336397928568	15
0	67919	10642.964781811703	14
0	67923	10643.460549847677	15
0	67924	10643.889768350646	14
0	67928	10644.016977029167	15
0	67929	10644.633238100782	14
0	67933	10644.785219792754	15
0	67934	10645.076366853863	14
0	67938	10645.431418805225	15
0	67939	10646.035327440742	14
0	67942	10646.823154939953	13
0	67946	10646.844392461472	14
0	67948	10647.518546488132	15
0	67955	10647.749032954229	16
0	67957	10647.770417152944	17
0	67959	10648.137792290044	18
0	67961	10648.49609795158	19
0	67962	10648.52044549995	18
0	67966	10648.860527996015	19
0	67972	10649.998257628744	18
0	67975	10650.494463172517	17
0	67979	10651.044828484191	18
0	67980	10651.062363625839	17
0	67986	10651.392068703946	18
0	67993	10652.217453080694	19
0	68000	10652.619380791886	20
0	68005	10653.204780788683	21
0	68006	10653.603800062752	20
0	68012	10654.245952555285	21
0	68019	10654.853692089618	22
0	68021	10654.884682768373	23
0	68035	10657.814798006285	22
0	68038	10658.241476076618	21
0	68041	10658.89914796195	20
0	68047	10659.570502488443	21
0	68049	10659.574158202377	22
0	68053	10660.03361424637	21
0	68062	10661.073556888053	22
0	68063	10661.576790384212	21
0	68071	10663.552631312151	20
0	68074	10664.410180268026	19
0	68077	10665.170945878522	18
0	68081	10665.491960197484	19
0	68082	10665.722938025845	18
0	68086	10666.38277294018	19
0	68087	10666.429392250962	18
0	68091	10666.690596479159	19
0	68092	10667.418894623694	18
0	68096	10667.439887397695	19
0	68103	10668.190177407622	20
0	68104	10668.467524967119	19
0	68112	10669.849310097014	18
0	68116	10669.868844224507	19
0	68125	10671.259513001042	20
0	68129	10671.867198900701	19
0	68138	10672.410690023499	20
0	68140	10672.676778897497	21
0	68149	10673.956565681361	22
0	68174	10678.028148345863	23
0	68175	10678.427252898792	22
0	68271	10690.603331247383	23
0	68297	10693.594265340578	24
0	68322	10696.877882325983	23
0	68345	10699.499881970486	24
0	68360	10701.329363314361	25
0	68399	10707.318532040071	24
0	68410	10708.24402663701	25
0	68422	10709.970757897214	26
0	68449	10713.389670165548	27
0	68463	10715.434121961434	26
0	68476	10716.895995465906	27
0	68533	10724.611048514724	28
0	68593	10732.525212127224	29
0	68628	10738.274179422722	30
0	68661	10743.995780402164	31
0	68703	10749.709887461831	32
0	68733	10753.498316902395	33
0	68760	10757.735443323654	34
0	68777	10759.36535016666	35
0	68799	10762.891283827935	34
0	68812	10764.648915647351	33
0	68821	10765.752365645474	34
0	68822	10765.925006780781	33
0	68825	10766.523505397335	32
0	68828	10766.977982272635	31
0	68832	10767.354430974049	32
0	68838	10767.854256041654	33
0	68843	10767.989018606725	34
0	68850	10768.81343217899	35
0	68854	10769.888636218393	34
0	68863	10770.355612405877	35
0	68865	10770.512353494858	36
0	68866	10771.0075828862	35
0	68875	10772.276929006813	36
0	68876	10772.501455967183	35
0	68879	10773.227604912136	34
0	68883	10773.430107467222	35
0	68890	10773.969409003595	36
0	68891	10774.525693685895	35
0	68899	10776.205243689668	34
0	68903	10776.324095316081	35
0	68907	10776.55503297671	36
0	68912	10777.287135276456	37
0	68914	10777.337061842031	38
0	68915	10777.937455112216	37
0	68924	10778.666674555875	38
0	68945	10782.7552340936	37
0	68953	10783.942411459711	36
0	68961	10785.551975463897	35
0	68967	10785.759713636874	36
0	68974	10786.595564407541	37
0	68999	10790.002928620518	38
0	69000	10790.62147555203	37
0	69008	10791.062755343342	38
0	69021	10792.792709159727	39
0	69052	10797.285229850056	38
0	69060	10798.462649305406	37
0	69063	10798.908987874499	36
0	69069	10799.240215170796	37
0	69073	10800.500213942964	36
0	69082	10801.54666768273	37
0	69083	10801.990179863766	36
0	69086	10802.582548294271	35
0	69090	10802.627015120036	36
0	69092	10802.739262695006	37
0	69099	10803.933421947978	38
0	69100	10804.120442253266	37
0	69106	10804.197634275148	38
0	69111	10805.282634619672	39
0	69112	10805.749583079255	38
0	69115	10806.395739687522	37
0	69123	10807.978748953956	36
0	69129	10808.817148316376	37
0	69134	10809.301254237571	38
0	69135	10809.344656525048	37
0	69143	10810.970820935683	36
0	69146	10811.776891460929	35
0	69149	10812.207149194142	34
0	69155	10812.478508321975	35
0	69160	10813.239325316079	36
0	69161	10813.507826428123	35
0	69164	10814.394879296476	34
0	69172	10815.404982396455	33
0	69176	10815.483522239553	34
0	69183	10817.031987693385	35
0	69184	10817.125413117099	34
0	69190	10817.750465417174	35
0	69195	10818.045103643425	36
0	69196	10818.559375036422	35
0	69199	10819.058912464518	34
0	69202	10819.66625269098	33
0	69205	10820.55859459793	32
0	69209	10820.637110221615	33
0	69210	10821.158986197606	32
0	69213	10821.678768810544	31
0	69217	10822.172086136945	32
0	69218	10822.434217074241	31
0	69222	10823.368313432035	32
0	69223	10823.424575368788	31
0	69227	10823.529913944539	32
0	69228	10823.977988963675	31
0	69231	10824.407142125497	30
0	69235	10824.721223587723	31
0	69236	10825.087489857626	30
0	69239	10825.642642008568	29
0	69243	10825.692931977426	30
0	69244	10826.091414529792	29
0	69247	10826.59109827225	28
0	69250	10827.051031792917	27
0	69254	10827.566818074071	28
0	69256	10827.670905486926	29
0	69257	10827.995119549528	28
0	69260	10828.60315927347	27
0	69263	10829.20507800198	26
0	69267	10829.481570223928	27
0	69268	10829.916272794184	26
0	69272	10830.209103132015	27
0	69274	10830.210791079209	28
0	69276	10830.312978943312	29
0	69277	10830.69919643063	28
0	69281	10830.752238509802	29
0	69282	10831.309111361074	28
0	69286	10831.413519620732	29
0	69287	10831.853038416578	28
0	69290	10832.619340313374	27
0	69294	10832.96054889228	28
0	69295	10833.456462105046	27
0	69299	10833.598017099774	28
0	69300	10834.304049469632	27
0	69303	10834.908988846893	26
0	69307	10835.373652391452	27
0	69308	10835.842700371201	26
0	69312	10835.844447638433	27
0	69313	10836.590761707918	26
0	69316	10837.137936074062	25
0	69319	10837.602904770485	24
0	69322	10838.039785833851	23
0	69326	10838.061589042658	24
0	69327	10838.517375942095	23
0	69330	10838.974456984185	22
0	69334	10839.876735362062	23
0	69335	10839.887946299984	22
0	69338	10840.300423372499	21
0	69342	10840.660455970925	22
0	69344	10841.229500344278	23
0	69345	10841.26916899803	22
0	69348	10841.95224453994	21
0	69352	10842.10382232254	22
0	69356	10842.281943097894	23
0	69358	10842.447667276681	24
0	69363	10843.205563019567	25
0	69364	10843.523968647616	24
0	69373	10844.984019891127	25
0	69374	10845.099335202538	24
0	69380	10845.591531469819	25
0	69385	10846.308813067934	26
0	69387	10846.38511746127	27
0	69389	10846.908021491881	28
0	69390	10846.934723358751	27
0	69394	10847.457603098625	28
0	69395	10847.759340896235	27
0	69399	10848.44720047599	28
0	69400	10848.754148511459	27
0	69403	10849.32771729623	26
0	69406	10849.836866819589	25
0	69409	10850.377350955979	24
0	69412	10850.825369040259	23
0	69415	10851.56723143152	22
0	69418	10852.193478973452	21
0	69421	10852.74666334047	20
0	69425	10852.912191035179	21
0	69426	10853.493546757298	20
0	69430	10853.574655605026	21
0	69431	10854.07532750397	20
0	69435	10854.303689584358	21
0	69436	10854.536014267719	20
0	69440	10854.8460418543	21
0	69441	10855.111257929551	20
0	69445	10855.259234258498	21
0	69446	10855.611855205717	20
0	69449	10856.391737263799	19
0	69453	10856.518183169761	20
0	69454	10857.210136561105	19
0	69458	10857.642232110579	20
0	69459	10857.734906734582	19
0	69463	10858.155185398146	20
0	69464	10858.214017628934	19
0	69468	10858.52558324213	20
0	69469	10858.617285019541	19
0	69472	10859.117069540834	18
0	69475	10860.045199755728	17
0	69479	10860.068596758736	18
0	69481	10860.500546172866	19
0	69482	10860.726959865084	18
0	69485	10861.275764483735	17
0	69489	10861.595482520954	18
0	69490	10861.90446814388	17
0	69493	10862.318242902364	16
0	69497	10862.432467878818	17
0	69499	10862.53424232293	18
0	69500	10862.876386404232	17
0	69503	10863.55111456328	16
0	69507	10864.204533024923	17
0	69509	10864.357292443099	18
0	69510	10864.378366197934	17
0	69514	10865.084370688246	18
0	69515	10865.342320634853	17
0	69519	10865.661789387382	18
0	69520	10866.008488221662	17
0	69524	10866.22226895716	18
0	69526	10866.960056205984	19
0	69527	10866.979336823672	18
0	69530	10867.86711664401	17
0	69534	10868.3249910452	18
0	69536	10868.439925820122	19
0	69543	10869.379891192846	20
0	69544	10869.460524007641	19
0	69550	10869.943252353936	20
0	69552	10870.102459807804	21
0	69557	10870.450934757822	22
0	69559	10870.808473983934	23
0	69561	10871.06614774897	24
0	69562	10871.190593921543	23
0	69566	10871.224704877013	24
0	69580	10872.833460421129	25
0	69582	10873.005426451265	26
0	69591	10874.478123106725	25
0	69597	10875.442448246355	26
0	69602	10875.866615304894	27
0	69603	10875.871298069844	26
0	69609	10876.257070137278	27
0	69614	10876.608461946665	28
0	69616	10876.831094157159	29
0	69617	10876.943430632736	28
0	69621	10877.095638097649	29
0	69622	10877.802442446408	28
0	69625	10878.349181180877	27
0	69629	10878.587947397378	28
0	69635	10880.231131059268	27
0	69641	10880.627418354189	28
0	69646	10881.283726641844	29
0	69647	10882.043385331622	28
0	69650	10882.482276233016	27
0	69654	10882.940222327424	28
0	69655	10883.352884129212	27
0	69658	10884.253018661505	26
0	69662	10884.482285637409	27
0	69663	10885.225704588425	26
0	69667	10885.347097223982	27
0	69669	10885.365319132028	28
0	69670	10885.918283552267	27
0	69673	10886.557678574939	26
0	69676	10887.392666850808	25
0	69679	10888.309916535216	24
0	69682	10888.795138317263	23
0	69685	10889.440412954856	22
0	69689	10889.521643068763	23
0	69690	10889.854802394202	22
0	69694	10890.570451890295	23
0	69696	10890.817706480003	24
0	69697	10890.840870863395	23
0	69701	10890.890524627076	24
0	69703	10891.197033591828	25
0	69704	10891.80173715936	24
0	69708	10892.017540951504	25
0	69710	10892.068987434751	26
0	69712	10892.181877111031	27
0	69714	10892.222687450225	28
0	69716	10892.274444404432	29
0	69717	10892.617873784536	28
0	69721	10893.176873205888	29
0	69722	10893.477945938296	28
0	69725	10894.081740044439	27
0	69729	10894.091396311101	28
0	69731	10894.523276029423	29
0	69732	10894.638518885998	28
0	69736	10895.078916067557	29
0	69738	10895.095195763184	30
0	69739	10895.20202351125	29
0	69743	10895.36486040527	30
0	69744	10896.18554994409	29
0	69748	10896.539270235826	30
0	69749	10896.680824922407	29
0	69753	10896.977013811449	30
0	69754	10897.451622215901	29
0	69758	10897.7081087056	30
0	69759	10897.959090903923	29
0	69762	10898.366387326745	28
0	69768	10899.120572873895	29
0	69773	10899.429442582421	30
0	69774	10900.083756131734	29
0	69777	10900.572917614187	28
0	69780	10901.380207706484	27
0	69783	10902.186189308538	26
0	69786	10902.872926082796	25
0	69790	10903.785796894235	26
0	69791	10903.862613930421	25
0	69795	10904.174219197581	26
0	69797	10904.242567926793	27
0	69799	10904.344433468811	28
0	69800	10904.391026289349	27
0	69804	10904.568491282261	28
0	69805	10904.871368199175	27
0	69808	10905.357231067315	26
0	69811	10905.760911453709	25
0	69814	10906.171346342152	24
0	69817	10906.711722580537	23
0	69820	10907.344077371301	22
0	69826	10907.946549189799	23
0	69830	10908.937389548782	22
0	69836	10909.148721149571	23
0	69838	10909.236790081655	24
0	69843	10910.247375722481	25
0	69844	10910.47711505099	24
0	69848	10910.566255262983	25
0	69854	10911.25633816695	26
0	69862	10912.001865665878	27
0	69864	10912.12678901978	28
0	69866	10912.158304743532	29
0	69867	10912.306120215364	28
0	69873	10912.493717739407	29
0	69875	10912.768606886641	30
0	69879	10913.720168949345	29
0	69883	10913.814416302184	30
0	69890	10914.785787709109	31
0	69901	10916.322764745176	30
0	69909	10917.620481776919	29
0	69918	10919.054629030997	30
0	69919	10919.076754636464	29
0	69927	10920.268727873878	28
0	69931	10920.318640681781	29
0	69935	10920.819387001177	30
0	69939	10922.146193997476	29
0	69942	10922.661462707732	28
0	69963	10925.029955492014	29
0	69967	10925.903306401481	28
0	69975	10926.89635253051	27
0	69979	10926.960103792058	28
0	69980	10927.729466367519	27
0	69986	10928.59232781114	28
0	69991	10929.125194731872	29
0	69993	10929.128409477417	30
0	69995	10929.193619821896	31
0	69996	10929.477451553947	30
0	70004	10930.790154110926	29
0	70008	10930.813413693124	30
0	70009	10931.752816048876	29
0	70013	10931.918446467731	30
0	70014	10932.442456022144	29
0	70018	10932.477450118182	30
0	70019	10933.24984805403	29
0	70022	10933.990117238143	28
0	70025	10934.57544083731	27
0	70028	10934.982467221336	26
0	70032	10935.236865718672	27
0	70033	10935.906255550038	26
0	70036	10936.358955151595	25
0	70042	10937.09843364831	26
0	70046	10937.870438899759	25
0	70055	10938.871577882492	26
0	70056	10939.114844567103	25
0	70059	10939.76313070474	24
0	70063	10940.298119009219	25
0	70064	10940.587919836406	24
0	70068	10941.035796488744	25
0	70069	10941.127227040714	24
0	70073	10941.400359004041	25
0	70074	10941.781145476418	24
0	70078	10941.834716473711	25
0	70080	10942.057084983559	26
0	70081	10942.669964104573	25
0	70085	10942.869774797842	26
0	70086	10943.28408277138	25
0	70090	10943.398488455072	26
0	70091	10943.716987060344	25
0	70095	10944.123748792628	26
0	70096	10944.352230360273	25
0	70100	10944.601679469985	26
0	70101	10944.856418501593	25
0	70105	10945.27560372273	26
0	70106	10945.484435375694	25
0	70109	10946.408362752346	24
0	70113	10946.643808899407	25
0	70115	10946.653033253347	26
0	70117	10947.212654792921	27
0	70118	10947.289783078858	26
0	70121	10947.738349542448	25
0	70125	10947.753293693622	26
0	70126	10948.496285788582	25
0	70130	10948.74156673812	26
0	70131	10949.408065919771	25
0	70135	10949.649326210129	26
0	70136	10950.277625215712	25
0	70139	10951.036153513107	24
0	70143	10951.19875146345	25
0	70144	10951.937464979577	24
0	70147	10952.833436762455	23
0	70151	10953.011467672742	24
0	70153	10953.202393926371	25
0	70154	10953.422600069416	24
0	70157	10953.946537789011	23
0	70163	10954.278219547983	24
0	70168	10954.548643200892	25
0	70172	10955.043051604296	26
0	70179	10955.332643295298	27
0	70181	10955.487293155182	28
0	70215	10959.902217772284	27
0	70218	10960.677163812804	26
0	70221	10961.41440943699	25
0	70225	10961.592323030924	26
0	70226	10961.9901738599	25
0	70230	10962.01390714989	26
0	70231	10962.494485801092	25
0	70234	10962.91902030572	24
0	70238	10963.270835099197	25
0	70239	10963.322261280619	24
0	70242	10964.041024427075	23
0	70245	10964.747207546938	22
0	70253	10965.918601477292	21
0	70259	10966.208970951848	22
0	70264	10966.819409140862	23
0	70266	10967.309556871425	24
0	70267	10967.682068442466	23
0	70273	10968.36280101942	24
0	70278	10968.950950847499	25
0	70279	10969.118684734503	24
0	70283	10969.463231201767	25
0	70284	10969.704917296307	24
0	70288	10970.249649321949	25
0	70289	10970.256172136083	24
0	70295	10970.656344774415	25
0	70300	10971.358684962224	26
0	70301	10971.964405003289	25
0	70310	10972.933888077716	26
0	70311	10973.652892134764	25
0	70314	10974.257650913863	24
0	70320	10974.722254179122	25
0	70324	10975.437659430416	24
0	70327	10976.05637737895	23
0	70333	10976.112614388445	24
0	70337	10977.076409474952	23
0	70341	10977.349221381721	24
0	70343	10977.624940460473	25
0	70344	10977.709770487068	24
0	70352	10978.304969556802	25
0	70362	10979.826549785874	26
0	70404	10984.91758203469	27
0	70406	10984.996850053234	28
0	70425	10988.574706333417	27
0	70446	10990.561059156921	28
0	70535	11004.233179735586	27
0	70548	11005.175309649785	28
0	70603	11012.458576902661	29
0	70608	11012.902650283644	30
0	70609	11013.382754786692	29
0	70612	11013.813473693614	28
0	70615	11014.259784805548	27
0	70621	11015.103485666163	28
0	70625	11015.672883570946	27
0	70631	11015.961155805778	28
0	70638	11017.231849486003	29
0	70642	11017.934518573719	28
0	70653	11018.956097948972	29
0	70662	11020.93313004268	28
0	70671	11021.845523695625	29
0	70672	11022.590050562896	28
0	70676	11022.694426399858	29
0	70682	11023.915147335042	28
0	70691	11024.727877523831	29
0	70692	11024.925107221544	28
0	70696	11024.98832599507	29
0	70698	11025.062442781216	30
0	70722	11027.575540406368	31
0	70746	11031.436828460875	30
0	70754	11033.044002438994	29
0	70763	11033.734838987676	30
0	70764	11034.293219824187	29
0	70772	11035.265835972973	28
0	70776	11035.846056859444	29
0	70777	11036.034165924745	28
0	70780	11036.602632796349	27
0	70784	11036.843604626828	28
0	70785	11037.047227689721	27
0	70789	11037.310739144757	28
0	70791	11037.400851762095	29
0	70792	11037.551195607851	28
0	70795	11038.520783207849	27
0	70799	11038.81899343705	28
0	70800	11039.457323005194	27
0	70804	11039.928424720707	28
0	70805	11040.039328714883	27
0	70808	11040.563265393306	26
0	70811	11041.358453613058	25
0	70817	11041.439951253142	26
0	70819	11041.889504134326	27
0	70821	11041.952925266771	28
0	70825	11042.753355013956	27
0	70833	11043.755162189533	26
0	70839	11044.272688751378	27
0	70841	11044.287876896756	28
0	70845	11045.291192360553	27
0	70853	11046.675177659285	26
0	70857	11046.709686361255	27
0	70863	11048.467728905058	26
0	70872	11048.934897080995	27
0	70873	11049.58341659252	26
0	70882	11050.69535990492	27
0	70883	11051.03373738076	26
0	70897	11052.832805603945	27
0	70908	11054.432827627664	26
0	70921	11055.908045577585	27
0	70926	11056.767704238956	28
0	70938	11058.237062397445	29
0	70970	11062.23663542257	30
0	70994	11065.415835081046	29
0	70997	11066.223550502263	28
0	71003	11066.875730284126	29
0	71007	11068.037152902461	28
0	71010	11068.96060725018	27
0	71014	11069.579238989556	28
0	71015	11069.653767496493	27
0	71019	11070.086067106701	28
0	71020	11070.33352028337	27
0	71024	11070.626750466562	28
0	71025	11070.839966819116	27
0	71029	11070.95125522615	28
0	71031	11071.120704883356	29
0	71032	11071.338131054404	28
0	71035	11071.932963326207	27
0	71038	11072.836085140013	26
0	71041	11073.733541611914	25
0	71044	11074.414703001507	24
0	71048	11074.485712013858	25
0	71055	11075.584760239234	26
0	71057	11075.701338294829	27
0	71059	11075.917140995865	28
0	71060	11075.926868892281	27
0	71064	11076.294358547601	28
0	71070	11077.35605499596	27
0	71074	11077.359888877986	28
0	71081	11078.147883841456	29
0	71082	11078.59036596879	28
0	71093	11079.712979383892	29
0	71097	11081.303600459552	28
0	71105	11082.443665724393	27
0	71108	11083.072516903659	26
0	71112	11083.288115652932	27
0	71113	11083.988278307678	26
0	71116	11084.984665066615	25
0	71119	11085.638014750095	24
0	71123	11085.67676083412	25
0	71125	11085.820155260521	26
0	71127	11085.894107102753	27
0	71128	11086.477977528475	26
0	71131	11087.436992744269	25
0	71135	11087.861565693587	26
0	71136	11087.994550566381	25
0	71139	11088.413209538633	24
0	71143	11088.751345120095	25
0	71145	11088.8363649672	26
0	71147	11088.913960720567	27
0	71149	11089.255625290956	28
0	71150	11089.33253710508	27
0	71154	11089.450710823871	28
0	71155	11090.10107463678	27
0	71158	11090.552192236256	26
0	71162	11090.5800775272	27
0	71163	11091.316379885987	26
0	71167	11091.827888288674	27
0	71169	11092.044625400132	28
0	71170	11092.290547680023	27
0	71174	11092.594353360557	28
0	71175	11092.705904918636	27
0	71179	11092.979629873693	28
0	71180	11093.263751458755	27
0	71184	11093.322461615207	28
0	71191	11094.338060100218	29
0	71192	11094.382933737948	28
0	71201	11094.870380566176	29
0	71202	11095.373709428874	28
0	71211	11096.279622789676	29
0	71212	11096.445761951018	28
0	71220	11097.354086429119	27
0	71224	11097.941647071915	28
0	71225	11098.225186095485	27
0	71228	11098.9586979657	26
0	71232	11099.032092529179	27
0	71233	11099.455614547437	26
0	71237	11099.595702468573	27
0	71239	11099.684956739114	28
0	71240	11100.311314715311	27
0	71243	11101.232633746514	26
0	71246	11101.746112928685	25
0	71249	11102.482672994496	24
0	71252	11103.251312224386	23
0	71256	11103.267885596853	24
0	71257	11103.692916766233	23
0	71260	11104.238618849409	22
0	71264	11104.462959349609	23
0	71270	11106.06403364181	22
0	71276	11106.358785441629	23
0	71280	11107.036770363295	22
0	71284	11107.644778096902	23
0	71285	11107.979469431614	22
0	71289	11108.570972175866	23
0	71290	11108.649610455011	22
0	71294	11108.95157265528	23
0	71296	11109.018456606109	24
0	71297	11109.458742465501	23
0	71301	11109.614961784332	24
0	71302	11110.43464839524	23
0	71305	11111.296496910093	22
0	71308	11112.235848050847	21
0	71312	11112.904700378666	22
0	71313	11112.961493978233	21
0	71317	11113.262715772913	22
0	71319	11113.329819343186	23
0	71320	11113.957626166058	22
0	71323	11114.799073415811	21
0	71326	11115.783558881844	20
0	71329	11116.22149280445	19
0	71333	11116.326378741216	20
0	71334	11116.828762034236	19
0	71337	11117.293592073165	18
0	71340	11117.768531216078	17
0	71344	11118.053261646922	18
0	71346	11118.336867983284	19
0	71347	11118.660891960657	18
0	71351	11119.26017938199	19
0	71352	11119.262776275587	18
0	71356	11119.687091538308	19
0	71357	11119.864269686493	18
0	71361	11120.205960353005	19
0	71363	11120.706666821064	20
0	71365	11120.759069963128	21
0	71366	11120.860090853323	20
0	71370	11121.102492155344	21
0	71371	11121.492009695296	20
0	71374	11122.288789179132	19
0	71378	11122.640959609316	20
0	71379	11123.029126587606	19
0	71383	11123.057671947077	20
0	71385	11123.57207301515	21
0	71386	11123.622406420859	20
0	71389	11124.029021054509	19
0	71393	11124.574453941577	20
0	71394	11124.665420081003	19
0	71397	11125.254125847251	18
0	71401	11125.625131312182	19
0	71402	11126.180038221462	18
0	71406	11126.27037730199	19
0	71408	11126.411503864995	20
0	71409	11126.796276852491	19
0	71413	11127.089160826662	20
0	71417	11127.525922982361	21
0	71421	11128.044681013704	20
0	71427	11128.298223646959	21
0	71429	11128.355604385284	22
0	71431	11128.540477449201	23
0	71435	11129.272222008699	22
0	71439	11129.304697602521	23
0	71443	11129.89229753192	24
0	71447	11130.844191985394	23
0	71451	11131.28397828519	24
0	71452	11131.596026778503	23
0	71460	11132.906445462166	22
0	71464	11132.916671846533	23
0	71466	11132.934776091474	24
0	71468	11133.127434882571	25
0	71475	11134.251709844117	26
0	71487	11135.383034207913	27
0	71488	11135.683035201814	26
0	71494	11136.159161961745	27
0	71499	11136.634216255208	28
0	71500	11137.315563120928	27
0	71509	11138.269662339731	28
0	71510	11138.769258598334	27
0	71513	11139.655716579829	26
0	71516	11140.371148900318	25
0	71519	11140.795952357308	24
0	71523	11140.869215039315	25
0	71524	11141.557633750237	24
0	71528	11142.188470604491	25
0	71529	11142.507814401531	24
0	71532	11143.336809231484	23
0	71536	11143.767535295264	24
0	71537	11143.780876286797	23
0	71540	11144.475869798245	22
0	71543	11144.904505235892	21
0	71546	11145.651326109193	20
0	71550	11145.733700466512	21
0	71552	11145.764207705353	22
0	71554	11146.181119226752	23
0	71555	11146.22595989928	22
0	71559	11146.370954816379	23
0	71561	11146.469469020711	24
0	71563	11146.747512285121	25
0	71565	11146.827092039885	26
0	71566	11146.936008424874	25
0	71570	11147.062165422852	26
0	71571	11147.679829456241	25
0	71574	11148.358371697649	24
0	71578	11148.359149407659	25
0	71579	11148.945573074607	24
0	71582	11149.866224749436	23
0	71586	11150.069101825743	24
0	71588	11150.356927787877	25
0	71589	11150.472520215533	24
0	71592	11150.985426504261	23
0	71595	11151.604650902611	22
0	71598	11152.339959515215	21
0	71606	11152.682991712604	22
0	71614	11153.845871566467	23
0	71640	11157.832895641545	22
0	71649	11158.459055996552	23
0	71655	11158.772422130169	24
0	71672	11161.240221719587	23
0	71688	11162.83873124939	24
0	71702	11164.634028581441	23
0	71711	11165.6946994426	24
0	71712	11166.415390310301	23
0	71720	11168.119237046042	22
0	71726	11168.491805805433	23
0	71731	11168.867816785658	24
0	71732	11169.419065709557	23
0	71745	11171.383356420841	22
0	71748	11171.820420968817	21
0	71757	11172.491292609409	22
0	71764	11173.272356519416	23
0	71765	11173.718846798414	22
0	71773	11174.906973530451	21
0	71776	11175.346464058111	20
0	71782	11175.705579608876	21
0	71787	11176.577890276244	22
0	71788	11176.666941305814	21
0	71801	11178.619686183944	20
0	71807	11178.970478834661	21
0	71811	11179.918060033494	20
0	71819	11181.399919819092	19
0	71823	11181.406319944245	20
0	71824	11182.148013482993	19
0	71827	11182.704279193101	18
0	71831	11182.979503672022	19
0	71833	11183.177974397509	20
0	71835	11183.237356859865	21
0	71836	11183.620224862644	20
0	71839	11184.12863408472	19
0	71842	11184.660537348181	18
0	71846	11184.754889437847	19
0	71848	11185.200831750008	20
0	71849	11185.473384110589	19
0	71853	11185.902665198862	20
0	71854	11186.28029756067	19
0	71858	11186.335782016765	20
0	71860	11186.655651404298	21
0	71866	11187.779148933204	20
0	71870	11188.329927622979	21
0	71871	11188.594017357851	20
0	71875	11188.931204053033	21
0	71882	11189.462400827434	22
0	71883	11190.026545903838	21
0	71886	11190.920848479035	20
0	71889	11191.384597704659	19
0	71892	11191.819670741499	18
0	71896	11192.098208590172	19
0	71897	11192.393708792707	18
0	71901	11192.485570786135	19
0	71902	11193.178828882851	18
0	71905	11193.588378264854	17
0	71909	11193.803404725506	18
0	71911	11194.515288561206	19
0	71912	11194.544363417901	18
0	71916	11195.1030777192	19
0	71918	11195.381229271947	20
0	71920	11195.439152657426	21
0	71921	11195.46785165994	20
0	71925	11195.93330586875	21
0	71926	11196.398828646592	20
0	71929	11197.09121419257	19
0	71933	11197.194224117961	20
0	71934	11197.541037677047	19
0	71938	11198.126939546584	20
0	71939	11198.438938204018	19
0	71942	11199.438703355245	18
0	71945	11200.158618905959	17
0	71949	11200.401383534758	18
0	71950	11200.896667477493	17
0	71954	11201.151384634178	18
0	71955	11201.503580469969	17
0	71958	11202.376662710966	16
0	71961	11202.816962103877	15
0	71964	11203.633390288666	14
0	71968	11203.962343276719	15
0	71969	11204.107121427083	14
0	71973	11204.224750843527	15
0	71977	11204.673441270257	16
0	71982	11204.899144963059	17
0	71984	11205.01149566094	18
0	71985	11205.626150604156	17
0	71988	11206.154844752052	16
0	71991	11206.563204315077	15
0	71994	11207.11065131771	14
0	71998	11207.554176288712	15
0	71999	11207.646227222547	14
0	72003	11208.065587162612	15
0	72004	11208.402838263527	14
0	72008	11208.757213291225	15
0	72009	11209.394937278616	14
0	72013	11209.457491059753	15
0	72014	11209.927612944233	14
0	72018	11210.080922961986	15
0	72019	11210.633843743575	14
0	72022	11211.562320312678	13
0	72025	11212.148487327441	12
0	72029	11212.205939080689	13
0	72031	11212.40254465186	14
0	72032	11213.090945241141	13
0	72036	11213.281063304495	14
0	72037	11213.767324499047	13
0	72041	11214.000804496012	14
0	72042	11214.229818271619	13
0	72045	11215.217948426359	12
0	72048	11215.923051234434	11
0	72052	11216.419139409151	12
0	72053	11216.842675260833	11
0	72057	11216.996853485459	12
0	72058	11217.584813334287	11
0	72061	11218.152585840092	10
0	72064	11218.638508440328	9
0	72068	11218.89912476907	10
0	72069	11219.533650794772	9
0	72073	11219.847311337796	10
0	72075	11219.980643805265	11
0	72076	11220.088613548928	10
0	72080	11220.517903912046	11
0	72081	11220.556211852755	10
0	72085	11220.728807577387	11
0	72087	11221.061507714181	12
0	72088	11221.336735142355	11
0	72091	11222.101113809372	10
0	72094	11222.734137821763	9
0	72098	11222.995661685506	10
0	72099	11223.541779363488	9
0	72102	11224.141684812081	8
0	72105	11224.707044036227	7
0	72108	11225.154173358815	6
0	72111	11226.046419840591	5
0	72115	11226.379063279118	6
0	72116	11226.508828875335	5
0	72119	11227.257308804575	4
0	72128	11228.386645286246	5
0	72130	11228.42041598102	6
0	72131	11228.541622493793	5
0	72140	11229.419699884801	6
0	72141	11230.164634238607	5
0	72145	11230.478202682338	6
0	72146	11230.691273472835	5
0	72149	11231.262096694535	4
0	72153	11231.664978641048	5
0	72154	11231.814464555079	4
0	72162	11233.08280596007	3
0	72166	11233.26968425915	4
0	72172	11234.440560208497	3
0	72178	11235.291294341388	4
0	72182	11235.86517221276	3
0	72186	11236.311886866937	4
0	72188	11236.350011193558	5
0	72189	11236.636181910525	4
0	72193	11236.859124555631	5
0	72200	11237.939599274795	6
0	72202	11238.308620683126	7
0	72204	11238.311991634513	8
0	72205	11238.394043561214	7
0	72213	11239.872330649433	6
0	72219	11240.60939090371	7
0	72229	11241.727960611397	8
0	72235	11243.200960558609	7
0	72244	11244.242097828927	8
0	72245	11244.994950184927	7
0	72254	11245.998304894228	8
0	72255	11246.684418404477	7
0	72263	11248.25657803193	6
0	72272	11249.167216423537	7
0	72273	11249.555421267499	6
0	72281	11250.117535427486	7
0	72283	11250.254944343674	8
0	72311	11254.016730200618	9
0	72312	11254.066802077417	8
0	72325	11255.034898912655	9
0	72337	11257.281421981311	10
0	72396	11264.997166686468	11
0	72421	11269.938894782964	10
0	72430	11270.962012154612	11
0	72431	11271.663894263612	10
0	72440	11272.812684289321	11
0	72441	11272.869144652043	10
0	72449	11274.211161722201	9
0	72453	11274.239820016472	10
0	72454	11275.11665417166	9
0	72463	11276.039798067363	10
0	72464	11276.127612336823	9
0	72467	11276.60952903722	8
0	72471	11276.700823502623	9
0	72473	11276.789711739972	10
0	72474	11277.266806188138	9
0	72477	11277.764488001872	8
0	72481	11278.44137571726	9
0	72482	11278.539723488229	8
0	72485	11279.30371844066	7
0	72489	11280.017386245728	8
0	72490	11280.208572374477	7
0	72494	11280.531691681625	8
0	72496	11280.956457248146	9
0	72497	11280.98071519002	8
0	72500	11281.550273165253	7
0	72503	11282.236298262008	6
0	72507	11282.881562516724	7
0	72508	11283.195173286699	6
0	72511	11283.988884185819	5
0	72520	11284.495774368862	6
0	72522	11284.894191362305	7
0	72523	11285.105032748036	6
0	72529	11285.596800439314	7
0	72534	11285.839235911042	8
0	72536	11285.859826994689	9
0	72537	11286.141543217381	8
0	72546	11287.336976783747	9
0	72547	11287.543674994638	8
0	72551	11288.067695234276	9
0	72552	11288.119088095944	8
0	72555	11288.69533031304	7
0	72559	11288.986830345045	8
0	72566	11289.828915180928	9
0	72567	11289.913059973117	8
0	72573	11289.974919555764	9
0	72575	11290.104145318952	10
0	72579	11291.1738202008	9
0	72588	11292.002996304918	10
0	72589	11292.321733148214	9
0	72593	11292.815253719153	10
0	72594	11292.994157605436	9
0	72598	11293.548216752569	10
0	72599	11293.659126237411	9
0	72603	11293.675421488998	10
0	72605	11293.684274690078	11
0	72606	11294.33745918577	10
0	72609	11295.189773368327	9
0	72612	11295.68878865247	8
0	72616	11296.017638698788	9
0	72617	11296.423650118898	8
0	72620	11296.871749856745	7
0	72624	11296.992841867856	8
0	72626	11297.01892271255	9
0	72627	11297.373677814662	8
0	72631	11297.620853332985	9
0	72632	11298.190792711315	8
0	72635	11298.632425963556	7
0	72638	11299.136532004833	6
0	72647	11300.102224959605	7
0	72649	11300.476535814821	8
0	72650	11300.721891310768	7
0	72653	11301.657778750038	6
0	72657	11301.807786475952	7
0	72661	11302.285976995449	8
0	72665	11303.149287257441	7
0	72668	11303.63567369753	6
0	72672	11303.6975504172	7
0	72676	11303.896828006165	8
0	72678	11304.057435665198	9
0	72682	11304.653624687116	8
0	72688	11304.992105476199	9
0	72692	11306.117895792383	8
0	72695	11306.600254733307	7
0	72699	11306.604063495745	8
0	72701	11306.627734767366	9
0	72708	11307.579237914845	10
0	72710	11307.780491170913	11
0	72711	11308.32344748844	10
0	72717	11308.445845031245	11
0	72722	11309.370033457909	12
0	72723	11310.220191769587	11
0	72731	11311.990990090422	10
0	72740	11312.694155748434	11
0	72742	11313.018058839163	12
0	72743	11313.495810227101	11
0	72754	11314.617239117264	12
0	72761	11314.984272974008	13
0	72771	11316.2580141149	14
0	72792	11319.629043305624	13
0	72803	11320.805219267003	14
0	72807	11321.777822297678	13
0	72815	11323.170081983792	12
0	72819	11323.380454722837	13
0	72825	11324.346930087829	12
0	72834	11324.920765091624	13
0	72850	11328.314763588464	12
0	72868	11331.01672591181	11
0	72876	11332.389979898887	10
0	72880	11332.401783954692	11
0	72881	11333.166512995217	10
0	72887	11333.545702033228	11
0	72892	11333.879910016588	12
0	72893	11334.257586531112	11
0	72897	11334.885923284973	12
0	72898	11335.050067946551	11
0	72902	11335.214674630495	12
0	72908	11336.368192433848	11
0	72917	11337.475562728398	12
0	72918	11337.658403210344	11
0	72922	11338.423690601331	12
0	72923	11338.493362065453	11
0	72926	11339.27643359597	10
0	72930	11339.281340932734	11
0	72937	11340.806333526366	12
0	72938	11340.947527152814	11
0	72941	11341.722090109486	10
0	72944	11342.713762850316	9
0	72947	11343.386261243887	8
0	72951	11343.821673614958	9
0	72952	11343.907965564171	8
0	72956	11343.972485763348	9
0	72958	11343.991098915157	10
0	72959	11344.615429861007	9
0	72963	11345.038713131872	10
0	72964	11345.434259057047	9
0	72968	11346.081044966113	10
0	72969	11346.39929793929	9
0	72973	11346.404301232856	10
0	72974	11347.014271431279	9
0	72977	11347.473206622016	8
0	72980	11347.910021587091	7
0	72983	11348.583932622198	6
0	72987	11348.779999370331	7
0	72989	11349.474327376632	8
0	72990	11349.573975460466	7
0	72994	11349.943971548463	8
0	72995	11350.505129832217	7
0	72999	11350.995163959712	8
0	73001	11351.058570094414	9
0	73002	11351.235064030114	8
0	73006	11351.250713186533	9
0	73008	11351.446135970599	10
0	73009	11351.813177521342	9
0	73013	11351.827881708558	10
0	73015	11351.988823158906	11
0	73016	11352.388844871336	10
0	73020	11352.785430825285	11
0	73021	11352.890107816878	10
0	73025	11353.208515616999	11
0	73026	11353.356914875192	10
0	73029	11354.068324091147	9
0	73033	11354.445630838173	10
0	73034	11354.792368549343	9
0	73038	11355.0367774512	10
0	73039	11355.669950631821	9
0	73043	11355.733759412396	10
0	73044	11356.287779964089	9
0	73047	11356.913961432876	8
0	73051	11356.941542410607	9
0	73052	11357.700335979324	8
0	73056	11357.917426186383	9
0	73057	11358.175596897772	8
0	73061	11358.961460348399	9
0	73062	11359.020872144822	8
0	73065	11359.440514346167	7
0	73069	11360.132502048267	8
0	73070	11360.152107088642	7
0	73074	11360.389254401433	8
0	73075	11360.70898021809	7
0	73078	11361.144784997452	6
0	73082	11361.239198377808	7
0	73083	11362.035154476205	6
0	73086	11362.959347453576	5
0	73090	11363.745157524072	6
0	73091	11363.817106805698	5
0	73094	11364.430005113085	4
0	73097	11365.231089885629	3
0	73100	11365.857951865767	2
0	73109	11366.924715304587	3
0	73110	11367.179997519406	2
0	73116	11367.590138091897	3
0	73121	11368.078951561392	4
0	73123	11368.177437159695	5
0	73130	11368.578404778807	6
0	73134	11369.246129576911	7
0	73141	11369.982358706601	8
0	73145	11370.514047785711	7
0	73151	11370.804720970641	8
0	73156	11371.938004809648	9
0	73157	11372.029272410648	8
0	73161	11372.219662226876	9
0	73182	11375.691000679976	8
0	73191	11377.250058342754	9
0	73192	11377.337840562689	8
0	73201	11378.136171819354	9
0	73202	11378.764585692997	8
0	73211	11379.801449884161	9
0	73213	11380.199183060399	10
0	73214	11380.234540677446	9
0	73223	11380.816420548882	10
0	73229	11381.929243046235	9
0	73237	11383.389896484095	8
0	73246	11384.324073739226	9
0	73247	11384.703131614349	8
0	73256	11385.79438980077	9
0	73257	11386.140675813801	8
0	73265	11387.49533171505	7
0	73274	11388.939283541801	8
0	73275	11388.982601614578	7
0	73284	11390.015336080168	8
0	73285	11390.904889580237	7
0	73291	11391.426024428951	8
0	73295	11392.602190646671	7
0	73301	11392.774749851632	8
0	73306	11393.470238876177	9
0	73307	11394.085045330648	8
0	73310	11395.06721904292	7
0	73321	11396.292478406235	8
0	73323	11396.66166868931	9
0	73338	11398.049213336631	10
0	73339	11398.967586602971	9
0	73348	11399.781303586348	10
0	73349	11400.41302525392	9
0	73357	11401.521603207851	8
0	73366	11402.281709582817	9
0	73367	11403.082258102672	8
0	73371	11403.590517814622	9
0	73377	11404.321586305743	8
0	73381	11404.706506898634	9
0	73382	11404.943205485355	8
0	73390	11406.232943335317	7
0	73398	11407.384547906045	6
0	73402	11407.454236550541	7
0	73409	11408.212222634356	8
0	73411	11408.520271585325	9
0	73412	11408.660104917644	8
0	73416	11408.708833564842	9
0	73423	11409.433696891244	10
0	73424	11409.775913512802	9
0	73433	11411.095449463522	10
0	73434	11411.505291961322	9
0	73438	11411.66316964262	10
0	73440	11412.026779384735	11
0	73441	11412.385084893417	10
0	73445	11412.449981984249	11
0	73447	11412.622041414014	12
0	73448	11413.281858137252	11
0	73452	11413.523024093992	12
0	73453	11413.932301742818	11
0	73456	11414.535550400803	10
0	73459	11415.002327358445	9
0	73463	11415.077868391775	10
0	73464	11415.839933426587	9
0	73468	11415.975070705814	10
0	73469	11416.47336336924	9
0	73478	11417.693746906924	10
0	73480	11417.92931166371	11
0	73481	11418.217887154596	10
0	73487	11418.271699859932	11
0	73492	11419.466242494548	12
0	73493	11419.569855880134	11
0	73499	11419.991326897853	12
0	73503	11421.170510902491	11
0	73509	11421.680560460942	12
0	73513	11422.959309013237	11
0	73522	11423.830775912225	12
0	73524	11424.006488983949	13
0	73526	11424.01351411868	14
0	73528	11424.334845730251	15
0	73529	11424.452778932362	14
0	73538	11426.008191291328	15
0	73539	11426.187192609304	14
0	73548	11427.189768178991	15
0	73574	11431.799788474947	14
0	73578	11432.374777700844	15
0	73579	11432.655153051534	14
0	73583	11433.05694851395	15
0	73584	11433.461669980319	14
0	73587	11434.293751926118	13
0	73590	11434.971178836146	12
0	73593	11435.512902545513	11
0	73596	11436.296387335009	10
0	73600	11436.726663698263	11
0	73601	11436.879104306179	10
0	73605	11437.194862166856	11
0	73606	11437.379790353126	10
0	73610	11437.389354923321	11
0	73614	11437.611885697946	12
0	73619	11438.713682595933	13
0	73620	11438.739382792314	12
0	73629	11439.933710482272	13
0	73630	11440.233559458287	12
0	73639	11441.325251718241	13
0	73640	11442.17685043244	12
0	73644	11442.3356674332	13
0	73646	11442.380767250691	14
0	73653	11443.514940851878	15
0	73654	11443.718920871106	14
0	73662	11445.332649418295	13
0	73671	11446.021625413044	14
0	73672	11446.747365859573	13
0	73681	11447.577342499663	14
0	73682	11448.109060430203	13
0	73685	11449.024941295062	12
0	73689	11449.033281183804	13
0	73690	11449.517297556533	12
0	73694	11449.633013485807	13
0	73695	11450.456489828511	12
0	73698	11450.865320571701	11
0	73702	11450.887842896934	12
0	73703	11451.55596124572	11
0	73712	11452.164089943968	12
0	73713	11453.112681795473	11
0	73716	11453.755036944805	10
0	73725	11455.27438898796	11
0	73726	11455.280020253595	10
0	73729	11455.859991021875	9
0	73732	11456.685493528938	8
0	73740	11458.119980404063	7
0	73749	11458.939059323752	8
0	73750	11459.581981709929	7
0	73759	11460.284697951596	8
0	73760	11461.114823193758	7
0	73763	11461.546324958702	6
0	73766	11462.030233568655	5
0	73772	11462.355515152595	6
0	73777	11463.737299293998	7
0	73778	11463.737458792937	6
0	73784	11464.110901213704	7
0	73788	11464.963934677284	6
0	73794	11464.993369897109	7
0	73798	11466.584855692697	6
0	73807	11467.37290811443	7
0	73808	11468.140872371293	6
0	73816	11469.229899893564	5
0	73822	11469.57473690969	6
0	73826	11471.02265426107	5
0	73834	11472.267626102784	4
0	73842	11473.807474000895	3
0	73846	11473.902429929386	4
0	73850	11474.549933781147	5
0	73855	11475.074363676333	6
0	73857	11475.516058075387	7
0	73858	11475.640017482362	6
0	73861	11476.361573828201	5
0	73867	11476.717580415557	6
0	73871	11477.290363676616	5
0	73875	11477.469937453691	6
0	73882	11478.365331989474	7
0	73883	11478.7669399153	6
0	73889	11479.040053701646	7
0	73891	11479.26237330195	8
0	73896	11480.242644119233	9
0	73897	11480.327548849073	8
0	73906	11481.13834072886	9
0	73907	11482.051372141394	8
0	73911	11482.11996637128	9
0	73918	11483.351555053266	10
0	73919	11483.762677010199	9
0	73922	11484.567084963577	8
0	73926	11484.7391447146	9
0	73927	11485.332008701148	8
0	73931	11485.702229176347	9
0	73932	11486.277044902932	8
0	73936	11486.706501586603	9
0	73937	11486.794166070785	8
0	73941	11487.203480062362	9
0	73943	11487.378648581403	10
0	73944	11487.55191011513	9
0	73948	11487.572138627312	10
0	73949	11488.357527592083	9
0	73953	11489.021071692207	10
0	73955	11489.060513097934	11
0	73956	11489.231018286295	10
0	73959	11489.893055609012	9
0	73963	11490.057695659806	10
0	73965	11490.393133820361	11
0	73966	11490.547060989918	10
0	73969	11491.077485473318	9
0	73973	11491.427129679057	10
0	73974	11491.620755989155	9
0	73977	11492.193285184916	8
0	73981	11492.579654990672	9
0	73983	11492.747175904363	10
0	73984	11492.989023570301	9
0	73987	11493.577364897685	8
0	73991	11493.692029361754	9
0	73992	11494.119296666145	8
0	73996	11494.36720080192	9
0	73997	11494.636897031175	8
0	74000	11495.406137234302	7
0	74004	11495.480688527423	8
0	74006	11495.774646074755	9
0	74007	11495.906877390206	8
0	74011	11496.066790980825	9
0	74012	11496.594917203117	8
0	74016	11496.711927844584	9
0	74017	11497.549595062438	8
0	74021	11497.624634026452	9
0	74022	11498.143983868979	8
0	74025	11498.687495909076	7
0	74029	11499.493944535957	8
0	74031	11499.549503807613	9
0	74032	11499.629325325604	8
0	74035	11500.073895591128	7
0	74038	11500.543785724373	6
0	74041	11501.275598134243	5
0	74045	11501.324389108958	6
0	74047	11501.408694055896	7
0	74048	11501.877628269422	6
0	74052	11502.170960839718	7
0	74059	11502.780663949277	8
0	74061	11502.878683460379	9
0	74062	11503.382313399905	8
0	74066	11503.475587554906	9
0	74067	11503.916706296339	8
0	74073	11504.422983903709	9
0	74077	11505.581267667705	8
0	74081	11505.822242759008	9
0	74103	11508.606008279287	10
0	74104	11508.893626049165	9
0	74107	11509.606248726234	8
0	74116	11510.384363875722	9
0	74117	11511.218486299788	8
0	74121	11511.632062266463	9
0	74122	11512.143918037092	8
0	74131	11513.112840901081	9
0	74133	11513.287011911691	10
0	74134	11513.399406032733	9
0	74143	11514.99070187989	10
0	74144	11515.180903199178	9
0	74147	11515.652342550785	8
0	74153	11516.20764894595	9
0	74162	11517.717444797281	8
0	74171	11518.640246062254	9
0	74217	11525.351831185353	8
0	74225	11526.573507325538	7
0	74229	11526.831369593661	8
0	74236	11527.839199435517	9
0	74237	11527.841486413265	8
0	74246	11528.716358099305	9
0	74247	11529.307185728057	8
0	74255	11530.347068991839	7
0	74261	11530.551406557057	8
0	74266	11531.053999747039	9
0	74267	11531.601088960702	8
0	74270	11532.121894707717	7
0	74274	11532.319361779727	8
0	74280	11533.59852229422	7
0	74284	11533.792664391766	8
0	74285	11534.174057816714	7
0	74291	11534.498734601433	8
0	74296	11535.559673593666	9
0	74298	11535.57850743444	10
0	74299	11535.71499077091	9
0	74308	11536.44937604422	10
0	74309	11537.069274322036	9
0	74317	11537.367362279219	10
[...]
9	128631	19656.144081240703	0
9	128647	19658.048573569769	1
9	128649	19658.130921287772	0
9	129166	19731.572762937522	1
9	129168	19731.576171393141	0
9	129374	19760.57562663183	1
9	129376	19760.907544521916	0
9	130328	19898.085436573116	1
9	130330	19898.360790877169	0
9	130742	19971.403878199693	1
9	130744	19971.941292274932	0
9	132919	20318.640951720857	1
9	132921	20318.984704425837	0
9	132968	20325.315768874947	1
9	132970	20325.434299545347	0
9	132986	20328.137679814824	1
9	132988	20328.255653582748	0
9	133008	20330.770908183835	1
9	133021	20333.039862997602	0
9	133310	20375.255726319464	1
9	133317	20376.257444966364	0
9	133332	20377.840683856705	1
9	133334	20377.904091007962	0
9	133339	20378.412525100779	1
9	133341	20378.416994447897	0
9	133371	20382.216920098576	1
9	133373	20382.402503621803	0
9	133391	20385.006639421086	1
9	133393	20385.198716144444	0
9	133438	20392.171102174751	1
9	133440	20392.398229375766	0
9	133797	20444.460660648727	1
9	133804	20445.307882342945	0
9	133834	20448.753909224093	1
9	133836	20448.869207602349	0
9	133849	20450.485007474812	1
9	133851	20450.874904414747	0
9	134205	20519.997116551209	1
9	134209	20520.29483522478	0
9	134556	20573.771585032138	1
9	134558	20574.192489808853	0
9	134701	20592.602125201682	1
9	134703	20592.966458540282	0
9	134971	20630.848566717357	1
9	134973	20630.932826171172	0
9	135339	20682.016134608099	1
9	135341	20682.054211170116	0
9	135349	20683.649451729078	1
9	135351	20684.056968116451	0
9	135354	20684.066793849999	1
9	135359	20685.220118224343	0
9	135367	20686.126344638392	1
9	135371	20686.555640182047	0
9	135423	20692.844850178649	1
9	135425	20692.869452492098	0
9	135811	20746.147611245868	1
9	135813	20746.631942052549	0
9	135823	20747.841374248528	1
9	135825	20748.175458903437	0
9	135828	20748.362526792037	1
9	135833	20749.189848979879	0
9	136224	20807.60523848651	1
9	136226	20807.757384863206	0
9	136244	20810.407654969497	1
9	136246	20810.542259171383	0
9	136289	20816.716039450523	1
9	136291	20816.891907962953	0
9	138054	21120.226426604646	1
9	138056	21120.374069907708	0
9	138241	21146.352774006581	1
9	138250	21146.996591126753	0
9	138803	21227.010867683371	1
9	138806	21227.550016886709	2
9	138808	21227.897083228908	1
9	138810	21228.010806305715	0
9	139893	21448.834325325805	1
9	139895	21448.84994288457	0
9	140184	21488.600013903796	1
9	140186	21488.770466840138	0
9	140266	21500.19014470711	1
9	140268	21500.204158356409	0
9	140318	21507.844623702891	1
9	140320	21508.13198906076	0
9	140351	21512.803682825655	1
9	140353	21513.021474260563	0
9	140373	21515.669876686146	1
9	140375	21515.728544878198	0
9	140388	21518.046217619337	1
9	140390	21518.477245760451	0
9	140393	21518.928882159049	1
9	140395	21519.474434081569	0
9	140408	21520.746230331704	1
9	140411	21521.34067398425	2
9	140413	21521.346229173782	1
9	140415	21521.479181387685	0
9	140426	21523.18123275236	1
9	140431	21524.080920024051	0
9	140439	21525.387579201058	1
9	140443	21525.597574313771	0
9	140466	21528.414542988584	1
9	140468	21528.838640766285	0
9	140471	21528.842892511411	1
9	140473	21529.108595693501	0
9	140476	21529.572856370489	1
9	140478	21529.615589510591	0
9	140526	21537.834328996613	1
9	140528	21537.972555915927	0
9	140538	21539.161794947218	1
9	140540	21539.616415192157	0
9	140545	21540.11094701997	1
9	140547	21540.117149106477	0
9	140560	21541.954244606654	1
9	140562	21542.257828955417	0
9	140586	21546.099877595753	1
9	140588	21546.164465479186	0
9	141017	21607.776733186879	1
9	141019	21608.05342636907	0
9	141699	21710.197094645729	1
9	141701	21710.313457106785	0
9	141789	21722.58625479951	1
9	141791	21722.668132999369	0
9	141834	21727.528102789125	1
9	141836	21727.645413728939	0
9	141844	21728.831375861778	1
9	141846	21729.075479422941	0
9	141854	21730.508782864646	1
9	141856	21730.586813270083	0
9	141866	21731.732905583181	1
9	141868	21732.166660849848	0
9	141901	21736.10566444486	1
9	141903	21736.2541125927	0
9	141910	21736.538429958984	1
9	141912	21736.66555607435	0
9	141915	21737.213678609492	1
9	141917	21737.55717632081	0
9	141977	21745.997532006591	1
9	141982	21746.493978079472	0
9	142015	21751.292737758025	1
9	142017	21751.415386078802	0
9	142133	21766.386980363267	1
9	142135	21766.739841105856	0
9	142471	21813.943310252119	1
9	142473	21813.969551481144	0
9	142795	21861.345785972296	1
9	142797	21861.359112679208	0
9	143106	21905.609417804642	1
9	143110	21906.361878109356	0
9	144144	22121.443889112233	1
9	144146	22121.854759674956	0
9	144429	22177.667911971014	1
9	144431	22177.948855222813	0
9	144439	22179.070545678565	1
9	144441	22179.193347971669	0
9	144446	22179.768822667168	1
9	144448	22180.058443547835	0
9	144495	22187.262090751555	1
9	144497	22187.931488876287	0
9	144508	22189.685903848826	1
9	144510	22189.703626502661	0
9	144525	22191.940091423203	1
9	144527	22192.168750818407	0
9	144552	22195.509466553597	1
9	144554	22195.516397794682	0
9	144728	22219.460047918211	1
9	144732	22219.5733900985	0
9	144740	22220.973854398054	1
9	144743	22221.548552327302	2
9	144753	22222.862030837705	1
9	144755	22222.935877014476	0
9	144868	22238.905886520239	1
9	144870	22239.024165773218	0
9	145350	22308.232288620371	1
9	145354	22309.11086695628	0
9	145362	22310.092861321272	1
9	145364	22310.105784047182	0
9	145375	22311.958884355501	1
9	145377	22312.483624702278	0
9	145917	22412.200930797674	1
9	145919	22412.387113158476	0
9	146175	22485.805854505445	1
9	146176	22486.790200741449	0
9	146192	22488.461221446795	1
9	146194	22488.786075535919	0
9	146390	22528.607130348655	1
9	146391	22528.657088793828	0
9	146422	22532.602880856269	1
9	146426	22533.59127260183	0
9	146464	22539.27169442295	1
9	146468	22539.7296697238	0
9	146498	22543.379501621163	1
9	146503	22544.587302370923	0
9	146937	22608.871910690666	1
9	146939	22608.927887570236	0
9	147035	22624.016347241877	1
9	147039	22624.343203804759	0
9	147052	22625.8348583005	1
9	147054	22625.866162511023	0
9	147260	22655.186264804713	1
9	147269	22656.282826839135	0
9	147874	22750.528987430185	1
9	147876	22750.664179254716	0
9	147935	22758.993972987318	1
9	147936	22759.274752174898	0
9	147951	22760.974806615359	1
9	147953	22761.180010247099	0
9	147983	22765.194181261326	1
9	147985	22765.310896997583	0
9	148513	22835.039908225463	1
9	148515	22835.21202312595	0
9	148561	22842.017275793294	1
9	148563	22842.169673957421	0
9	149043	22913.864634735726	1
9	149045	22914.027589431169	0
9	149481	22989.781506368403	1
9	149488	22990.562182513892	0
9	149595	23005.302520864898	1
9	149600	23005.967216280647	0
9	149807	23034.446297966151	1
9	149812	23034.986789040952	0
9	149837	23038.245121562781	1
9	149839	23038.384624537086	0
9	150703	23155.570476125012	1
9	150705	23156.040418689164	0
9	150708	23156.228483162558	1
9	150710	23156.297278531675	0
9	150713	23156.777328799449	1
9	150715	23157.315351886398	0
9	150769	23164.958896687457	1
9	150771	23165.255202469236	0
9	150798	23168.409667458122	1
9	150800	23168.657163969334	0
9	150826	23172.141018957242	1
9	150828	23172.294550476656	0
9	150851	23176.793173653044	1
9	150853	23176.803826747678	0
9	150894	23182.989274215901	1
9	150896	23183.182469211059	0
9	150996	23195.874278295895	1
9	150998	23196.126733372296	0
9	151751	23303.682746405172	1
9	151756	23304.44499049289	0
9	152336	23385.941162148551	1
9	152338	23386.103096914297	0
9	152360	23388.775137593472	1
9	152362	23389.335660080268	0
9	152365	23389.517733238093	1
9	152367	23389.55273666603	0
9	152405	23395.011268345421	1
9	152407	23395.389588047588	0
9	152462	23403.64090520229	1
9	152465	23404.245747338299	2
9	152467	23404.431058004261	1
9	152469	23404.895669972429	0
9	152530	23414.12996277471	1
9	152532	23414.341573193873	0
9	152550	23416.742558039231	1
9	152554	23417.274245773343	0
9	152562	23418.44737726489	1
9	152564	23419.137185620267	0
9	153218	23517.130484029189	1
9	153222	23517.434299141245	0
9	153240	23520.414740305165	1
9	153242	23520.841445868772	0
9	153628	23571.48559150766	1
9	153633	23572.617054712618	0
9	153665	23576.304851640579	1
9	153669	23576.576007315967	0
9	153677	23578.21927910536	1
9	153679	23578.482754995436	0
9	153682	23578.719968584836	1
9	153684	23578.79133027479	0
9	153714	23582.465111371133	1
9	153717	23582.94043146009	2
9	153720	23583.470649164872	3
9	153722	23583.603840188988	2
9	153724	23583.689733208944	1
9	153726	23583.851093463266	0
9	153736	23584.731042158607	1
9	153738	23584.942867138905	0
9	153777	23590.648028662013	1
9	153779	23590.773498044684	0
9	153834	23598.223925245885	1
9	153836	23598.347268061305	0
9	154951	23756.570286123835	1
9	154955	23756.642195365341	0
9	155147	23782.762050900707	1
9	155149	23782.805534966114	0
9	155736	23865.234274165151	1
9	155738	23865.384057976526	0
9	155893	23886.000683957673	1
9	155895	23886.71379559332	0
9	155967	23896.15216357951	1
9	155969	23896.696644617109	0
9	155992	23898.758505837907	1
9	155994	23898.990263380672	0
9	156017	23901.871109705519	1
9	156019	23902.35652288373	0
9	156044	23905.809675734591	1
9	156046	23906.399348699324	0
9	156064	23908.791845862157	1
9	156071	23909.388283608539	0
9	157006	24043.144451525023	1
9	157008	24043.439292979165	0
9	157039	24047.244470393572	1
9	157041	24047.351650460215	0
9	157325	24086.744071815215	1
9	157330	24087.791614417355	0
9	157808	24155.449307570059	1
9	157810	24155.789573275352	0
9	157845	24160.077642152843	1
9	157847	24160.607741938377	0
9	157860	24162.030793728039	1
9	157862	24162.088195894781	0
9	157889	24164.6959454788	1
9	157891	24165.268380404331	0
9	157894	24165.364737114554	1
9	157896	24165.513379882829	0
9	157912	24167.529041702264	1
9	157914	24167.812859274741	0
9	157930	24170.427001760398	1
9	157941	24171.206883263404	0
9	158106	24195.039333357534	1
9	158111	24196.008889498884	0
9	158398	24236.195544983275	1
9	158400	24236.472786042139	0
9	158447	24243.13026890854	1
9	158450	24243.992056888869	2
9	158452	24244.186817179495	1
9	158454	24244.664740131696	0
9	158496	24249.593311732557	1
9	158501	24250.722583892726	0
9	158687	24276.329353601686	1
9	158692	24277.035491687681	0
9	159066	24329.27761631954	1
9	159068	24329.349543398656	0
9	159183	24345.778579851487	1
9	159185	24346.04127340849	0
9	159673	24417.528554182287	1
9	159675	24417.778700943632	0
9	160567	24544.362638942919	1
9	160569	24544.578689088928	0
9	161195	24639.307359801062	1
9	161202	24639.881820712857	0
9	161230	24642.471760236673	1
9	161233	24643.254799879916	2
9	161235	24643.553166895817	1
9	161237	24643.611823512682	0
9	161274	24647.933248186919	1
9	161276	24648.146463640597	0
9	161279	24648.510508978197	1
9	161281	24648.548505565864	0
9	161467	24676.586804415116	1
9	161469	24676.648419440951	0
9	161491	24678.998294814368	1
9	161493	24679.465537508088	0
9	161496	24679.99456387951	1
9	161499	24680.661423299806	2
9	161501	24681.3692804947	1
9	161505	24681.44905228432	0
9	161508	24681.504236936122	1
9	161510	24681.878545203972	0
9	161536	24686.031740519702	1
9	161539	24686.722787323473	2
9	161547	24687.750697449813	1
9	161551	24687.92709590824	0
9	161589	24693.303257785477	1
9	161591	24693.384155755185	0
9	161614	24696.308676481546	1
9	161616	24696.599940910464	0
9	161923	24739.502737764564	1
9	161925	24740.128567020331	0
9	161982	24748.424082880996	1
9	161984	24748.581599346204	0
9	162078	24760.549996585227	1
9	162082	24760.894847935118	0
9	162276	24790.397369982873	1
9	162278	24791.116734632596	0
9	162436	24812.285416757978	1
9	162438	24812.621225454845	0
9	162486	24819.777843333047	1
9	162492	24820.15197288829	0
9	162515	24823.358318879047	1
9	162517	24823.434888284192	0
9	162535	24826.276995819772	1
9	162542	24827.084021092929	0
9	162555	24828.200945904583	1
9	162557	24828.362736467777	0
9	163384	24952.110523958207	1
9	163386	24952.143540751915	0
9	163397	24953.968923046749	1
9	163399	24954.467318242862	0
9	163556	24979.910696909204	1
9	163558	24980.375443696951	0
9	163896	25033.970500198148	1
9	163898	25034.164855517802	0
9	164312	25091.78865712459	1
9	164320	25093.467059606589	0
9	164484	25116.458128074106	1
9	164486	25116.737191652413	0
9	165125	25209.265225140027	1
9	165127	25209.269077620037	0
9	165155	25213.709030488528	1
9	165157	25213.788063936494	0
9	165177	25216.656805033026	1
9	165179	25216.688472185388	0
9	165200	25220.161442225681	1
9	165202	25220.605471987152	0
9	165224	25222.983134228431	1
9	165232	25224.701383968448	0
9	165458	25257.202904500373	1
9	165460	25257.374948371897	0
9	165463	25257.834786764419	1
9	165466	25258.371359025108	2
9	165471	25259.174245235983	1
9	165477	25259.330733245266	0
9	165501	25263.424722273256	1
9	165503	25264.233375586799	0
9	165506	25264.391963779535	1
9	165508	25264.614713272973	0
9	165514	25265.494950385606	1
9	165516	25265.734019299065	0
9	165859	25323.485849031853	1
9	165861	25323.535947761343	0
9	166091	25358.464211345829	1
9	166093	25358.712716892773	0
9	166104	25361.051430212327	1
9	166106	25361.054751429844	0
9	166136	25364.577776425885	1
9	166138	25364.69366303265	0
9	166538	25423.068598882122	1
9	166541	25423.574327340502	2
9	166543	25423.936239006194	1
9	166546	25424.309820206476	2
9	166548	25424.709038000676	1
9	166551	25424.754101184163	2
9	166561	25426.748392772094	1
9	166563	25426.790874417373	0
9	166638	25436.666461082001	1
9	166640	25437.12502502657	0
9	166643	25437.576259364852	1
9	166645	25437.660142707202	0
9	166648	25438.564007578197	1
9	166650	25438.745968108665	0
9	166663	25440.444222952856	1
9	166665	25440.502761249512	0
9	166740	25452.245094751299	1
9	166742	25452.50991559595	0
9	166765	25455.476782822202	1
9	166767	25456.313012958763	0
9	167053	25506.921725681294	1
9	167055	25507.004765522198	0
9	168704	25769.274347108442	1
9	168706	25769.477474132252	0
9	170515	26170.807428248748	1
9	170516	26171.571119142247	0
9	170732	26206.286313350873	1
9	170734	26206.519058208463	0
9	170904	26238.776652900964	1
9	170906	26239.210309935358	0
9	170909	26239.391970460998	1
9	170911	26239.768397929032	0
9	170937	26243.06592062688	1
9	170939	26243.230716800296	0
9	170944	26243.512406493114	1
9	170946	26243.965432070487	0
9	170949	26244.402982677702	1
9	170951	26244.764367643549	0
9	170954	26244.806947302256	1
9	170956	26245.566264677679	0
9	170959	26245.703475252349	1
9	170961	26245.965903477508	0
9	171007	26253.395680048639	1
9	171012	26254.348834384296	0
9	171055	26260.382558731452	1
9	171057	26260.580384792563	0
9	171082	26263.6309968702	1
9	171084	26263.726977959334	0
9	171094	26264.866449253026	1
9	171097	26265.777845351535	2
9	171099	26266.177200303762	1
9	171101	26266.557852199052	0
9	171134	26271.675936514231	1
9	171136	26271.696674014162	0
9	171679	26342.271657549633	1
9	171681	26342.651525005587	0
9	171707	26346.185904302725	1
9	171709	26346.277019357115	0
9	171717	26347.219612045816	1
9	171719	26347.270811183763	0
9	171981	26383.414638283239	1
9	171983	26383.858288255155	0
9	172003	26386.31844153944	1
9	172012	26387.143894998367	0
9	172526	26461.529133459264	1
9	172528	26461.829166211442	0
9	172901	26512.688740010082	1
9	172905	26513.213414501567	0
9	172908	26513.316057067632	1
9	172910	26513.480746841825	0
9	174470	26838.069361686722	1
9	174472	26838.344367365898	0
9	174494	26840.886494714363	1
9	174496	26840.973626599382	0
9	174509	26843.508962142296	1
9	174513	26844.027033810436	0
9	176214	27135.98544028486	1
9	176221	27137.235824106382	0
9	177685	27361.489773850054	1
9	177690	27361.990836649422	2
9	177696	27363.567553220694	1
9	177699	27363.883855798576	0
9	177709	27365.025112359697	1
9	177711	27365.070562585219	0
9	177729	27367.761543622711	1
9	177731	27367.971545069057	0
9	178190	27483.925202455367	1
9	178191	27484.040205228371	0
9	178415	27524.757801336239	1
9	178416	27525.264907760674	0
9	178542	27559.199477452982	1
9	178544	27559.216070490566	0
9	178679	27581.080320592739	1
9	178681	27581.167643597006	0
9	179171	27677.768940354256	1
9	179173	27678.115724278493	0
9	179200	27681.024766954292	1
9	179202	27681.074194647326	0
9	179575	27737.794071170852	1
9	179577	27738.140450624408	0
9	179954	27790.746866170529	1
9	179956	27791.128475279309	0
9	179969	27792.811501313818	1
9	179971	27792.924007077406	0
9	180103	27811.666757931165	1
9	180105	27811.673363472174	0
9	180126	27815.581979003154	1
9	180128	27815.590004730523	0
9	180181	27823.59815542556	1
9	180183	27823.762653939434	0
9	180216	27829.134386882769	1
9	180218	27829.17551905649	0
9	180646	27893.53237541547	1
9	180648	27893.859632273506	0
9	180944	27935.39590504599	1
9	180946	27935.510167398442	0
9	180952	27937.102783623675	1
9	180954	27937.151837988747	0
9	181265	27981.006629249831	1
9	181267	27981.254512172064	0
9	181273	27982.534598426805	1
9	181275	27983.228952719365	0
9	181762	28060.233467926754	1
9	181764	28060.562656621665	0
9	181770	28061.134538014903	1
9	181772	28061.141361682302	0
9	181785	28063.415207183192	1
9	181793	28063.760611737133	0
9	181798	28064.104664294346	1
9	181800	28064.119146861535	0
9	181866	28073.710791680885	1
9	181868	28074.047845214769	0
9	181871	28074.204977297892	1
9	181873	28074.264954003163	0
9	182730	28196.406240640648	1
9	182735	28196.924609268619	0
9	182755	28199.643242170822	1
9	182757	28199.873422740128	0
9	183300	28278.265584391155	1
9	183302	28278.560609171355	0
9	183317	28280.511882810839	1
9	183319	28280.7388482713	0
9	183523	28307.605702876657	1
9	183525	28308.107535583245	0
9	183528	28308.453481193011	1
9	183530	28308.854023886742	0
9	183533	28309.099733779378	1
9	183535	28309.112531840448	0
9	183543	28310.906113692823	1
9	183545	28310.927755438787	0
9	183590	28317.901448721189	1
9	183592	28318.095534525725	0
9	185106	28563.958515524194	1
9	185111	28564.733043132285	2
9	185113	28565.208555542334	1
9	185118	28565.5200973754	0
9	185134	28567.626730322448	1
9	185136	28567.762894300625	0
9	185198	28576.358073808002	1
9	185200	28576.602038958304	0
9	185509	28622.740431911428	1
9	185521	28624.400980900993	0
9	185612	28637.352410358955	1
9	185616	28638.467802000361	0
9	185727	28657.735437736861	1
9	185731	28658.415973361659	0
9	186137	28740.959991233115	1
9	186139	28741.023548478561	0
9	186871	28891.248929513934	1
9	186873	28891.339552136633	0
9	187060	28917.738611830644	1
9	187062	28917.967068773174	0
9	187110	28924.74920358389	1
9	187112	28924.878855089361	0
9	187271	28947.749731828239	1
9	187279	28949.059710866503	0
9	187301	28951.58526969451	1
9	187303	28951.900101093366	0
9	187306	28952.064788921378	1
9	187308	28952.460372564128	0
9	187311	28952.506584066307	1
9	187313	28952.743873089031	0
9	187316	28952.960079484867	1
9	187318	28953.222287049758	0
9	188058	29064.886600288405	1
9	188068	29066.399916499836	2
9	188070	29067.185967289556	1
9	188077	29067.343609430707	0
9	188095	29070.191973452719	1
9	188097	29070.650798537811	0
9	188100	29070.893083318818	1
9	188102	29071.187965674095	0
9	188105	29071.708724790049	1
9	188108	29072.18036066753	2
9	188118	29073.562830790192	1
9	188120	29073.693451360106	0
9	188155	29078.240300671041	1
9	188157	29078.263483482634	0
9	188348	29105.095856769085	1
9	188350	29105.241856858709	0
9	188509	29127.342450613467	1
9	188511	29128.008729921074	0
9	189139	29217.097653734953	1
9	189141	29217.204269675545	0
9	189144	29217.614553318116	1
9	189147	29218.056140874875	2
9	189149	29218.682473979508	1
9	189155	29219.314847923945	2
9	189159	29219.443024211212	1
9	189161	29219.506056137906	0
9	189214	29227.318630412258	1
9	189216	29227.56390722568	0
9	189284	29236.849453605281	1
9	189286	29236.865063882137	0
9	189299	29238.955011368951	1
9	189301	29239.059755174979	0
9	189324	29242.747102151334	1
9	189326	29242.878572730083	0
9	189640	29286.231821777625	1
9	189644	29286.765297729668	0
9	189657	29288.468235125532	1
9	189659	29288.682466745862	0
9	189692	29293.073607685184	1
9	189697	29293.94618882087	0
9	191071	29599.935402105572	1
9	191076	29600.525964024017	0
9	192472	29868.238043541409	1
9	192474	29868.296432037196	0
9	192489	29870.361054699676	1
9	192493	29871.128420649089	0
9	192499	29871.787947410991	1
9	192501	29872.088811404179	0
9	192747	29929.154279723537	1
9	192749	29929.240843992717	0
9	192774	29931.875186336838	1
9	192776	29931.961103923532	0
9	192787	29933.996584389598	1
9	192789	29934.159568930154	0
9	192852	29943.0935531369	1
9	192854	29943.120841929603	0

