version 2
run First_exit_2-8-20191125-12:13:47-721
attr configname First_exit_2
attr datetime 20191125-12:13:47
attr experiment First_exit_2
attr inifile omnetpp.ini
attr iterationvars ""
attr iterationvarsf ""
attr measurement ""
attr network ResponseTimeNetwork
attr processid 721
attr repetition 8
attr replication #8
attr resultdir results
attr runnumber 8
attr seedset 8
param **.Source.interArrivalTime exponential(4s)
param **.jobPriority bernoulli(0.4)
param **.PS.serviceTimeU1 "uniform(0.4s, 1.0s)"
param **.PS.serviceTimeU2 "uniform(1s, 1.2s)"
param **.SS1.serviceTime exponential(0.4s)
param **.SS2.serviceTime exponential(0.8s)
param **.PS.exitProbability bernoulli(0.2)

vector 0 ResponseTimeNetwork.sink lifeTimeU2:vector ETV
attr interpolationmode none
attr title "lifetime of arrived jobs U2, vector"
attr unit s
vector 1 ResponseTimeNetwork.sink totalServiceTimeU2:vector ETV
attr interpolationmode none
attr title "the total time spent  by arrived jobs U2, vector"
attr unit s
vector 2 ResponseTimeNetwork.sink lifeTime:vector ETV
attr interpolationmode none
attr title "lifetime of arrived jobs, vector"
attr unit s
vector 3 ResponseTimeNetwork.sink totalServiceTime:vector ETV
attr interpolationmode none
attr title "the total time spent  by arrived jobs, vector"
attr unit s
vector 4 ResponseTimeNetwork.sink lifeTimeU1:vector ETV
attr interpolationmode none
attr title "lifetime of arrived jobs U1, vector"
attr unit s
vector 5 ResponseTimeNetwork.sink totalServiceTimeU1:vector ETV
attr interpolationmode none
attr title "the total time spent  by arrived jobs U1, vector"
attr unit s
vector 6 ResponseTimeNetwork.QueueU2 queueLength:vector ETV
attr interpolationmode sample-hold
attr title "queue length, vector"
vector 7 ResponseTimeNetwork.QueueU1 queueLength:vector ETV
attr interpolationmode sample-hold
attr title "queue length, vector"
vector 8 ResponseTimeNetwork.SS2 queueLength:vector ETV
attr interpolationmode sample-hold
attr title "queue length, vector"
vector 9 ResponseTimeNetwork.SS1 queueLength:vector ETV
attr interpolationmode sample-hold
attr title "queue length, vector"
0	16155	10000.528626345253	1.932380311242
0	16165	10004.541559255717	0.87087693084
0	16175	10007.005614098471	1.018776747153
0	16200	10017.622442755218	4.073914821429
0	16217	10020.778258478288	0.51552626117
0	16220	10021.721095967032	3.389861935131
0	16230	10028.964247970224	0.462903001811
0	16240	10033.030268725625	0.513941439381
0	16255	10038.547617006831	0.665468801651
0	16260	10045.141396367475	0.592220360553
0	16272	10048.173662552342	2.170180513359
0	16280	10049.602579404006	0.583801920471
0	16287	10053.222143380565	0.996703318553
0	16292	10054.127181152429	0.924264527715
0	16305	10057.590723391772	3.92807800741
0	16325	10064.442542940827	0.821124477265
0	16360	10078.757280489782	0.536282705888
0	16375	10087.068767315998	0.824801388244
0	16394	10092.111119632619	1.887244656615
0	16397	10092.727835106347	3.030501081328
0	16400	10093.611032829536	2.606425818712
0	16405	10108.062695709025	0.932349207997
0	16415	10111.414175199272	1.05494183213
0	16459	10152.273439817752	1.51680392287
0	16465	10153.504485403529	6.994573939705
0	16470	10154.517040995853	3.651100450289
0	16480	10163.665143464194	0.503096256778
0	16500	10177.161236473523	0.622033700207
0	16505	10182.104213570282	0.742076297151
0	16527	10193.880781659496	1.002469216958
0	16542	10195.836251642847	1.889857142891
0	16545	10196.52660054114	2.970720061396
0	16585	10239.583933388468	0.442371962499
0	16597	10242.903962282199	0.683831714746
0	16607	10253.455497895514	0.420504104625
0	16610	10253.984286798311	0.927924168122
0	16622	10267.318243858542	0.912649253383
0	16627	10268.194345358431	1.766402334797
0	16630	10268.712562310507	0.817114768792
0	16635	10279.362387362646	0.506080265436
0	16640	10280.308350656419	0.538257244928
0	16650	10287.441737117004	0.587160080159
0	16655	10294.556790714579	0.667428418249
0	16670	10303.852164886376	1.549833601294
0	16675	10304.941268124066	0.919286718918
0	16680	10305.729470828555	0.476697490318
0	16705	10313.846107315736	1.659863834151
0	16725	10319.774017363159	3.073917376784
0	16730	10325.401102391222	0.809992634691
0	16735	10328.874055135119	0.699486904172
0	16745	10340.046711405208	0.420850897348
0	16760	10343.189548898157	1.111692471749
0	16767	10344.418047320951	3.650713546319
0	16775	10347.675128375004	0.86709931395
0	16785	10356.125571623434	0.676076423097
0	16790	10361.722507248195	0.566018263157
0	16800	10368.869031336178	0.802903474681
0	16810	10374.473266979775	0.420074505964
0	16845	10410.877301060636	0.722990975343
0	16850	10414.431966800696	0.879058643989
0	16855	10415.788748610371	0.688240576116
0	16860	10418.234941543895	0.804780371394
0	16875	10426.31885524958	0.964908059873
0	16885	10437.266374934706	0.678870517807
0	16895	10444.801538598906	0.536684016325
0	16905	10450.957003611532	0.709037300106
0	16912	10451.660736357304	0.681003975635
0	16925	10465.53983813985	0.747255205363
0	16930	10466.788451865535	0.952163110254
0	16940	10476.655214287436	0.734601544449
0	16952	10484.317352100948	0.974368403584
0	16962	10490.224956082657	0.79367655958
0	16965	10490.865439990826	1.279745495746
0	16970	10492.531448416035	0.996526292758
0	16975	10497.026373287552	0.970806822134
0	16980	10501.685951544043	0.790687687602
0	17000	10513.967298758461	0.419667776208
0	17005	10521.935330512509	0.699782767473
0	17025	10530.142975817199	0.405305407336
0	17032	10531.055343425664	0.598948956653
0	17035	10531.753490175976	4.369092621311
0	17065	10548.365718768431	5.094310740466
0	17075	10552.532049796603	0.498767271871
0	17080	10557.66796694767	0.603050009254
0	17085	10559.125360140027	0.408473925851
0	17090	10564.231144616302	0.686283655977
0	17105	10601.131890016263	0.511025623651
0	17115	10604.884312142671	0.733779496154
0	17120	10610.878813362124	0.548941820627
0	17130	10619.651912586546	0.944582693884
0	17145	10625.903387006588	4.894191314248
0	17152	10627.021860469959	0.752421183931
0	17155	10627.50944096552	1.038198804476
0	17160	10629.302106151794	0.675024902588
0	17185	10639.409852558431	0.949143517064
0	17195	10641.970915394715	0.609353544142
0	17207	10643.918406570159	0.783511964238
0	17210	10644.473910506923	1.139617490701
0	17215	10646.619995105979	0.71482076929
0	17222	10648.702671079625	0.721641296148
0	17227	10649.224348567481	0.780497551105
0	17230	10649.649000428113	0.856416609277
0	17242	10659.232408185919	0.800104329037
0	17245	10660.021151457225	3.244783426079
0	17265	10683.723554012676	0.519981192797
0	17280	10687.193078805828	2.057052657529
0	17285	10691.598029897421	0.647256981023
0	17310	10704.629465334168	0.605634959694
0	17320	10706.677331138072	1.306449216413
0	17325	10712.067220230913	0.55362032447
0	17355	10739.544466731541	2.219505553402
0	17360	10740.31954168912	0.560490714572
0	17365	10742.163261573209	0.535140742408
0	17370	10749.023395813305	0.991180787235
0	17380	10754.04153105415	0.732866084529
0	17387	10755.016376866306	0.67245092839
0	17415	10765.914675997303	0.874789739447
0	17432	10771.225984381487	1.236809108723
0	17455	10774.27041665065	5.72474113652
0	17460	10781.357178262606	0.869649011083
0	17465	10783.073069409285	0.835506498208
0	17470	10784.161584699911	0.919189318409
0	17477	10787.497254718084	0.80314101628
0	17487	10789.584391351114	0.929202995822
0	17500	10801.629885335868	0.654919127235
0	17505	10803.380932641715	0.932463171985
0	17517	10814.390575831447	0.711295573162
0	17525	10816.291565131458	2.525798077913
0	17530	10819.203081566998	0.823972741421
0	17545	10823.524292769614	1.13465413534
0	17550	10824.648421044684	0.995141240675
0	17555	10829.265521060788	0.719827709906
0	17582	10834.081979266736	1.101667790509
0	17585	10834.765256200074	2.882685094846
0	17600	10838.310591538094	2.663717678081
0	17610	10843.31572062446	0.489974719845
0	17615	10847.277809954046	0.722291649412
0	17625	10854.950270253938	0.995426827623
0	17630	10859.710817042377	0.867616761383
0	17635	10861.948543969397	0.854579680646
0	17640	10868.639765893811	0.954693490872
0	17672	10879.843995200589	2.236146180055
0	17675	10880.437623139171	0.860447708701
0	17680	10884.454875962838	0.837947698869
0	17690	10890.430768543323	0.700520541472
0	17695	10892.289411838789	0.578470534179
0	17705	10899.821307955533	0.938641101774
0	17710	10903.043350702464	0.674608856346
0	17720	10908.915140770071	0.959862627881
0	17735	10915.737424863864	1.258262143005
0	17740	10917.386731103691	0.82770783063
0	17745	10919.105744790058	0.726536572631
0	17750	10919.598399505553	0.430225815205
0	17760	10936.337015022715	0.541883861413
0	17765	10945.581865801954	0.44089847086
0	17770	10947.503670599263	0.810280670691
0	17777	10951.195828613309	0.972523957537
0	17785	10952.972746385742	0.764029146964
0	17797	10957.686510953033	1.115825519717
0	17800	10958.536266348144	2.261053446913
0	17810	10968.238316588666	0.856067330576
0	17820	10973.063802979539	0.85126919225
0	17830	10976.715618658998	1.299742756304
0	17840	10987.634522902755	0.671160439542
0	17850	10992.71853523902	2.789877019864
0	17870	11000.578351629986	0.795673504844
0	17875	11003.389555927719	0.936512944242
0	17892	11007.220671907488	2.55910547743
0	17895	11008.116548116553	1.655482929564
0	17905	11026.345286476131	0.876148966048
0	17942	11047.292261452132	0.748988987086
0	17960	11051.223404600083	3.343077636199
0	17985	11072.367340758378	2.82595017911
0	17997	11075.542309425005	0.968942809524
0	18010	11083.254064810649	0.944899847358
0	18025	11087.575646286668	1.26404071474
0	18030	11093.413965988815	0.462531282846
0	18042	11103.988490885647	0.993320690887
0	18052	11106.059939067022	0.59874910065
0	18060	11107.404737812622	0.56872052867
0	18074	11124.624528428003	1.015525398816
0	18077	11125.423123750159	1.127139320025
0	18094	11127.681148639436	2.154169520024
0	18097	11128.31569494081	2.361266274163
0	18100	11129.007879350309	4.565492370393
0	18105	11132.199428008595	0.489456894528
0	18140	11157.293706568803	1.612968311489
0	18145	11157.955475742695	2.44071531632
0	18157	11164.339469554026	0.927257804438
0	18175	11174.1671062129	0.493096390506
0	18185	11177.70295768388	0.892810182087
0	18190	11179.665163977196	0.510071810847
0	18195	11180.906896587112	0.664854831435
0	18212	11221.86766796666	0.840785993729
0	18232	11234.985607325057	0.638310722494
0	18237	11235.735723853022	1.378216953087
0	18254	11241.792702181002	1.221636790598
0	18264	11243.657586871244	8.319213056109
0	18267	11244.127325360354	1.406251022688
0	18270	11244.62600565601	1.754183503084
0	18275	11247.560618300163	0.885775904264
0	18280	11257.408909508754	0.635479032574
0	18295	11276.298951102439	0.611832649121
0	18300	11278.451483441619	0.839309664816
0	18305	11283.365384307652	0.936565989535
0	18310	11287.181159871507	0.551845052466
0	18356	11295.818594893175	2.75097514779
0	18362	11296.861131818187	4.494758376665
0	18367	11297.710455596554	3.622333960748
0	18370	11298.338585300571	3.573638175983
0	18380	11310.843373705517	0.680844830675
0	18390	11319.701058505379	0.767772731511
0	18395	11324.318362343001	0.982158977864
0	18424	11336.627585920518	1.445108188844
0	18430	11338.134301455145	2.227568989535
0	18435	11338.73404285906	0.481268703006
0	18442	11339.748951741451	0.614647316234
0	18494	11355.180278253375	6.053822045438
0	18497	11355.946589947498	1.988735989792
0	18500	11356.663373023557	5.30769984732
0	18505	11357.682715250835	4.325103669844
0	18510	11364.193028991735	0.934431149391
0	18517	11365.034045856463	0.833895527152
0	18525	11372.908816889461	0.873846484907
0	18545	11392.381929924101	0.418590424489
0	18565	11403.737167054427	0.636100493076
0	18570	11404.79849699011	0.722724242229
0	18575	11406.417465114372	0.696198846307
0	18580	11410.413629411381	0.534866709076
0	18610	11429.573930587603	0.808034438826
0	18620	11440.577252244782	0.51676241667
0	18625	11449.234209643122	0.630775581533
0	18635	11454.457309812331	0.570229902677
0	18667	11495.064400822007	0.67712948476
0	18675	11508.26519419758	0.980214802409
0	18680	11517.213786210461	0.861627115961
0	18705	11526.778338775607	0.68520820475
0	18712	11527.986535472525	3.344306225032
0	18717	11528.865986395729	5.624068164446
0	18740	11535.440638527159	2.048199447282
0	18762	11545.187470015526	1.688847437196
0	18765	11545.765676929072	3.793337174966
0	18780	11568.429903698527	0.899263155507
0	18792	11570.538085810874	0.491233318904
0	18797	11571.183922187832	1.901792985442
0	18800	11571.643704549677	0.571251853583
0	18810	11576.618653339064	0.470183951221
0	18820	11583.478276077411	1.748287450112
0	18835	11592.032869491639	2.110590555333
0	18842	11593.93269583858	0.941266260063
0	18845	11594.487729388386	1.223482190306
0	18850	11595.639032598577	0.617748141801
0	18860	11597.790087712039	0.505852826685
0	18865	11598.838806702002	2.72688616649
0	18872	11601.773458158556	0.584168828139
0	18875	11602.575497086444	0.882114700735
0	18885	11607.714417660067	2.210009079711
0	18900	11618.836078902967	1.797783096516
0	18930	11622.84291634609	0.782992795387
0	18945	11627.02167011711	0.737565734936
0	18950	11629.355195712761	0.928594446741
0	18960	11640.220807710571	0.780620088847
0	18965	11643.542984209048	0.876173699647
0	18970	11646.687173221216	0.834874543361
0	18980	11655.820664468851	0.426177177019
0	19007	11669.711326253753	1.883404214171
0	19010	11670.542824767263	1.911776335397
0	19017	11672.025114737118	0.980882885633
0	19020	11672.998655616764	1.500943609248
0	19037	11681.836834539633	2.687590431303
0	19040	11682.527690561089	1.195507150209
0	19045	11683.449488180105	0.816667197971
0	19062	11686.787777819057	1.997579343352
0	19082	11693.21871216483	1.573090386655
0	19085	11693.977076866054	8.327616602611
0	19092	11700.113905299506	0.652067358186
0	19095	11700.627343778596	1.109211451583
0	19100	11705.314416395593	0.955266602384
0	19105	11706.760942272147	0.863422499644
0	19110	11714.400219182018	0.6156262971
0	19120	11716.045536343161	0.444566305773
0	19150	11741.188255863085	0.544960733037
0	19165	11745.056870348774	0.405706949532
0	19170	11748.770851158748	0.999563457211
0	19187	11753.9535915515	0.427324305987
0	19212	11758.736747293553	6.332789482367
0	19215	11759.598973274563	1.447375366068
0	19220	11767.434346664847	0.411769201234
0	19225	11781.733159157656	0.792107532127
0	19260	11814.281907481289	0.514044367056
0	19270	11824.452497597862	0.92446018937
0	19275	11827.908048454848	0.839059460117
0	19280	11832.761770616803	0.4110061354
0	19292	11836.945099853518	1.105969022791
0	19305	11839.607479591519	0.783310388494
0	19315	11850.631690188184	1.690377274202
0	19330	11860.994290920601	1.212857731577
0	19337	11862.184836825456	3.374364832635
0	19340	11863.063115842228	1.593864664291
0	19345	11864.312941641116	0.900718287006
0	19350	11865.372648767489	0.43610840654
0	19355	11871.447091193176	0.496186057385
0	19365	11881.645390371939	0.538737424603
0	19382	11891.229497597687	0.557053041272
0	19390	11894.96378981036	0.641213104269
0	19400	11908.588510092013	0.739830448339
0	19412	11912.541558636911	3.415175705274
0	19422	11914.941314800444	2.698823155771
0	19439	11920.071460568438	0.669496835861
0	19445	11921.22297497657	1.73272277331
0	19467	11928.850861850231	3.788578107494
0	19470	11929.451940435999	1.895138796977
0	19475	11930.267012728711	0.546705312887
0	19485	11940.17677505926	0.915820379229
0	19500	11967.54317739909	0.433822179167
0	19510	11974.451895445068	0.457336117234
0	19515	11975.215804594891	0.48021923285
0	19535	11992.760039582943	3.420892726926
0	19540	11993.897189947387	0.95367244347
0	19545	11997.683974764435	0.5600030303
0	19550	11998.870104756248	0.709344684752
0	19555	12006.237310123356	0.782630169392
0	19560	12007.17076958181	0.739748268388
0	19570	12010.715985343658	0.927900497522
0	19579	12012.455557146696	0.971732689254
0	19582	12013.05934040456	3.910212769522
0	19590	12014.270420629939	1.918914652718
0	19620	12037.343496436264	2.627020254632
0	19625	12039.931003647142	0.749080163613
0	19635	12055.877622219767	0.460073592048
0	19645	12061.036676121421	0.795124880923
0	19665	12083.865379738402	0.901888419827
0	19675	12086.949080879999	0.873037742296
0	19680	12093.202416940507	0.700713891443
0	19707	12129.529823616047	0.982838120843
0	19717	12130.882963461655	4.326351515863
0	19725	12134.69105469814	0.962521246308
0	19746	12140.447100315451	1.077924673721
0	19749	12141.028771108876	2.598534106707
0	19752	12141.781592709034	2.28503251086
0	19755	12142.232738485395	3.238196669985
0	19760	12145.583111321107	0.449000172876
0	19770	12162.23524918636	1.720580362184
0	19790	12181.561722204848	0.936071319226
0	19795	12187.496098889207	0.426396198245
0	19800	12198.335681511707	0.760476032365
0	19810	12209.321596892805	0.858560285676
0	19819	12210.478646612064	0.984777173866
0	19827	12212.058861041571	1.923932425218
0	19832	12212.701897779888	1.995890832334
0	19840	12213.684691285937	0.850651505625
0	19845	12219.612524927489	0.576433966681
0	19850	12230.533214685907	0.953842314612
0	19855	12235.420420470264	0.990703468164
0	19865	12237.444956560378	1.094725233789
0	19875	12241.688792070752	5.667893335051
0	19890	12253.667402513842	0.482364658918
0	19905	12273.886477647224	0.680726983631
0	19925	12292.673395271225	0.469483812526
0	19935	12306.178390142668	0.663417002559
0	19940	12308.762077710943	0.472220209986
0	19950	12318.115132263546	1.337300805207
0	19965	12336.676303608155	1.160047873331
0	19990	12346.081994630113	0.539655935485
0	19995	12357.812222134184	0.437835725816
0	20005	12380.764045671709	0.656473417906
0	20020	12408.953244676964	1.775009159223
0	20025	12412.433340873897	0.469313193159
0	20030	12414.396477823368	0.624345644377
0	20055	12428.748216684825	6.134922350029
0	20060	12430.249941460754	0.690191217372
0	20065	12432.406512602007	0.775604711147
0	20070	12438.456185820383	0.899045466864
0	20080	12442.270707494934	1.654296547213
0	20085	12443.208552400544	0.758352076542
0	20095	12447.299239851305	0.545219991589
0	20100	12449.05549464102	0.423178809602
0	20132	12456.856674648541	3.210844222763
0	20135	12457.341557827544	5.57033035088
0	20142	12458.898147385531	0.432962198835
0	20145	12459.451274250598	0.711217724135
0	20155	12468.917551621471	0.738504269626
0	20160	12472.009547087235	0.612271688599
0	20165	12487.779461677032	0.576441073976
0	20175	12489.286049725314	1.299969603832
0	20187	12490.929769892779	1.186114418877
0	20190	12491.472513251587	3.609723358145
0	20195	12493.516446258735	0.658357076859
0	20200	12496.106068060597	0.784867420746
0	20220	12509.077365769399	0.628958644485
0	20232	12512.781052896094	0.786205357313
0	20250	12522.964767586278	0.403631233517
0	20260	12526.914464280899	2.543395226379
0	20265	12531.443792135375	0.955828743242
0	20302	12554.899909072875	3.864767804494
0	20327	12562.406982276578	1.337039396719
0	20330	12563.202124435397	1.533386456693
0	20335	12570.070587889585	0.954830547143
0	20340	12572.66521461841	0.457657950046
0	20345	12573.686962187519	0.992640416324
0	20370	12580.834410429728	1.248430669156
0	20380	12592.557990886398	1.617144105071
0	20385	12595.623110335697	0.410106766969
0	20390	12601.786005583279	0.405578139937
0	20397	12604.499769387552	0.530566039914
0	20405	12610.724960728213	0.73441659091
0	20412	12613.937734958243	0.699827117799
0	20425	12616.180763326902	0.768966914667
0	20435	12621.434806079659	1.395917839026
0	20444	12643.327619103424	0.781823262572
0	20462	12645.876819871029	2.443337688245
0	20465	12646.692633557681	3.444688701718
0	20470	12656.076162584191	0.700836571772
0	20492	12676.2214294345	3.816045919039
0	20515	12688.051932464186	0.793239173573
0	20525	12699.438214169226	1.796409634266
0	20535	12710.273806791412	0.531551154237
0	20547	12716.485395229168	0.536175794294
0	20555	12726.027096896435	0.650306717632
0	20565	12727.399507401551	0.87041174497
0	20572	12728.08741414846	1.869269344972
0	20575	12728.5852999576	0.623162479148
0	20580	12731.070937899033	0.737214217195
0	20585	12735.867877598466	0.84175557862
0	20590	12740.798561220716	0.968939924752
0	20602	12745.559448098945	1.364254641745
0	20615	12747.803250873875	0.832685020347
0	20620	12749.37194064212	3.969114137416
0	20645	12766.098365311972	1.336660743012
0	20650	12770.557446745929	0.807161548128
0	20655	12774.985963656306	0.793784364127
0	20660	12783.842043277562	0.81371963229
0	20665	12784.535169935497	0.440298057534
0	20672	12793.098373269978	0.91284961747
0	20685	12797.416003869214	2.10611037042
0	20697	12802.433150765392	0.851542112647
0	20700	12803.231805888097	2.263095781161
0	20705	12805.818045905501	0.414974266943
0	20722	12820.96223577671	0.666476203921
0	20740	12833.907260609343	0.901521442086
0	20755	12839.087394972062	1.955202273061
0	20760	12840.298265432855	0.428663978446
0	20780	12852.932339763181	0.509852891741
0	20800	12875.049476101264	0.91169521804
0	20805	12878.005091581021	0.516473101871
0	20810	12879.174798484381	0.81303386311
0	20837	12903.003739615444	0.634760120772
0	20840	12903.435819938041	1.583298009401
0	20845	12908.564813514907	0.65389065654
0	20860	12924.510095796946	0.900163920643
0	20875	12933.758753760161	1.474691467887
0	20897	12940.151366883048	5.15043585535
0	20900	12941.055227841434	2.625092239896
0	20915	12951.757084650132	0.97513875342
0	20920	12958.923205106418	0.704049773654
0	20925	12969.769763268492	0.786815804057
0	20937	12975.38458805923	1.360302855476
0	20940	12976.07905918365	2.354662727751
0	20952	12979.438511866027	1.269769705875
0	20960	12980.773603382542	1.262473267053
0	20967	12984.054750963696	0.868727669073
0	20970	12984.571788597363	1.222984414964
0	20975	12987.14208884361	0.610630730586
0	20990	12992.814084986962	1.012476112063
0	21020	13031.474640609017	0.627152511152
0	21025	13032.771558108009	0.768614968751
0	21032	13036.439544988705	0.94316890249
0	21050	13046.864142534072	3.640567454684
0	21057	13048.837542230167	0.785588683095
0	21060	13049.307735939879	0.760069198747
0	21065	13054.544916497178	0.514487288613
0	21070	13058.890886903191	0.428751345119
0	21075	13065.761390904196	0.927195727406
0	21080	13075.304962897046	0.646398701658
0	21102	13091.283802229551	0.829034403572
0	21110	13093.537913222719	2.690534707705
0	21115	13097.615918031181	0.849839602364
0	21142	13115.578118569049	1.997919381696
0	21145	13116.174191923271	0.844045365596
0	21197	13141.01896746697	0.68268700703
0	21210	13146.158957806791	4.981819944615
0	21215	13153.514691251841	0.930782321142
0	21220	13171.167677394979	0.508089808421
0	21225	13195.479990652505	0.930285489
0	21230	13201.161741530773	0.582483657962
0	21245	13208.99778860504	0.422229722654
0	21250	13211.085595707608	0.816611439874
0	21260	13221.077544545629	0.625601173285
0	21270	13229.347933897129	0.715484184073
0	21275	13230.209019521855	2.365990263425
0	21290	13243.410623583124	0.682323767617
0	21295	13251.600804284818	0.577381183766
0	21305	13254.435547379892	1.042225181213
0	21322	13259.08231348135	3.255185510636
0	21325	13259.824327813745	0.884550475689
0	21350	13264.499773735274	2.462291995682
0	21355	13266.00342155371	0.731916757859
0	21370	13272.211782577105	1.77323275201
0	21380	13278.357987166672	0.689669205993
0	21385	13280.787420871542	0.932007745188
0	21407	13302.913266140973	0.538406998944
0	21415	13314.079894994576	0.498353182105
0	21422	13316.738498902496	0.833723686403
0	21425	13317.696326502914	1.436175637603
0	21450	13332.393780841531	1.614729584833
0	21460	13338.077205507662	0.818626119429
0	21485	13352.291251330149	1.471847167709
0	21500	13356.27347719657	1.874537960392
0	21512	13359.11968427172	1.862580949113
0	21520	13364.754227675262	0.419289881736
0	21527	13381.928767732236	0.558686816692
0	21535	13383.999117910625	0.484798034653
0	21550	13389.425892961815	0.898539830372
0	21555	13390.776865882911	0.475959332846
0	21570	13396.644374299818	2.790867307943
0	21575	13397.74006328807	0.858464284427
0	21580	13406.220845840804	0.859479212202
0	21585	13421.009361057266	0.891253956454
0	21590	13423.006966013734	0.766700678971
0	21597	13424.999454742268	0.853572250623
0	21602	13425.894905857526	1.25362561288
0	21605	13426.510337008693	0.742049404742
0	21610	13427.168025629218	0.543382894807
0	21615	13435.456246159458	0.732849012408
0	21620	13442.583263766467	0.869494456612
0	21625	13445.730062294608	0.444720254233
0	21635	13451.849331338564	0.520466173068
0	21640	13464.197571254408	0.950684914831
0	21657	13469.000178589646	4.102299947402
0	21662	13469.69607388519	4.542290882096
0	21665	13470.130799487254	0.523601538876
0	21670	13470.958328375364	0.606472490076
0	21675	13472.582638305657	0.6564414619
0	21685	13474.682051592031	1.427329811213
0	21690	13476.62506917274	0.841452444158
0	21695	13480.953692174347	0.752997700451
0	21705	13486.611333032505	0.62566988715
0	21730	13496.512557782447	5.944345460798
0	21735	13498.010773031093	0.767025561398
0	21745	13503.585609247876	1.584215052109
0	21760	13511.695346335277	0.96838083365
0	21767	13513.876966234463	0.910019514803
0	21780	13517.713809304133	0.75173244141
0	21785	13519.804124620615	0.84433658272
0	21805	13536.399472545407	0.982493781811
0	21810	13541.28100879652	0.575608976046
0	21820	13548.418985809966	0.405615192559
0	21825	13553.942850813371	0.430877629993
0	21832	13558.391609006141	0.470502884313
0	21867	13566.439203403344	3.582887820853
0	21890	13586.030899049868	3.414004580654
0	21895	13588.947338015799	0.821757968655
0	21910	13598.914198563616	1.007346970478
0	21915	13600.35429301313	0.533434814867
0	21925	13606.667109217971	0.576945925783
0	21937	13608.191172078906	3.742280107536
0	21940	13608.802094808735	0.873163616697
0	21965	13617.272346485414	0.768285911018
0	21985	13644.220886067291	0.41225340073
0	22005	13658.292581429145	3.266820638768
0	22010	13663.504471501529	0.449159755092
0	22015	13677.157882401543	0.581046038074
0	22020	13685.678126287598	0.825601727702
0	22025	13688.932045567572	0.596133790119
0	22075	13702.639284998528	0.713902319595
0	22080	13708.354963068051	0.944287044043
0	22085	13712.597777380808	0.983519586362
0	22090	13714.538747334313	0.500072471239
0	22095	13715.523070696177	0.778461301886
0	22102	13719.023234905342	0.891189727327
0	22110	13720.981512216758	0.617830095021
0	22130	13727.828663744996	1.485230252305
0	22135	13732.970203016999	0.640307947434
0	22147	13738.356866385356	1.108475521543
0	22150	13738.899149346618	1.01143872972
0	22162	13743.056676732697	2.702205378546
0	22175	13747.3177002376	0.982330688415
0	22180	13749.470660997095	0.876730683539
0	22185	13750.459943904288	0.918822721625
0	22200	13761.006547576598	1.070701063702
0	22205	13762.320528437597	0.75787602663
0	22210	13763.018110908601	0.40341039272
0	22230	13796.627220631349	0.681615743646
0	22235	13797.325577938748	0.431035682932
0	22240	13821.410718278713	0.704321875516
0	22250	13827.918321682599	0.604785061674
0	22257	13831.588960778436	0.863681120472
0	22265	13835.01994651749	0.719017640734
0	22270	13853.980293571465	0.732118377555
0	22275	13857.37865393218	0.626860217424
0	22287	13859.78468976526	0.993010058377
0	22290	13860.492495331703	2.222338801716
0	22302	13864.83255091672	0.973855182016
0	22312	13867.006531417931	0.862885330291
0	22315	13867.753321377097	3.418299390636
0	22322	13877.172332783148	0.500159265148
0	22335	13880.877910015996	0.883867608663
0	22340	13884.451540380348	0.924902066262
0	22367	13904.095894568802	5.360622368382
0	22372	13904.76337147217	1.041016382107
0	22375	13905.659434899983	1.522447797634
0	22380	13907.356220201138	0.49914766429
0	22405	13917.127409213348	0.772752276435
0	22420	13942.312418765487	0.682833627891
0	22447	13974.991545151269	1.23107816311
0	22467	13979.599374971376	6.333708086026
0	22470	13980.148164154752	1.106447468647
0	22485	13987.655708497577	0.631875360431
0	22490	13988.420750854009	0.424369978346
0	22495	14002.295288798446	0.862534744199
0	22505	14011.843855808456	0.412097451789
0	22510	14014.629842277877	0.630706424126
0	22525	14021.444474098423	4.954419890894
0	22530	14028.431380191488	0.823800799251
0	22535	14041.019057703562	0.578749128664
0	22542	14045.422231018457	0.978539719433
0	22570	14058.615816203379	0.869804577949
0	22575	14059.74188870053	0.70961425947
0	22595	14077.931824421384	0.948673001863
0	22617	14112.324330974216	0.753288587136
0	22620	14112.879353620842	3.612830241861
0	22650	14139.164659837501	1.971188815477
0	22655	14141.377001142582	0.795175330201
0	22665	14150.97629611103	0.48250076999
0	22687	14176.51448341407	0.580891138827
0	22699	14178.904070852763	0.760770162707
0	22707	14180.430971572055	1.92959639333
0	22710	14180.845708025266	0.955449227876
0	22740	14189.736389643577	0.401623212127
0	22750	14192.547504010322	1.582488435891
0	22757	14195.19471385585	0.433356609428
0	22767	14196.222816982948	0.797594943304
0	22772	14196.641117524764	1.540653772398
0	22777	14197.099174557336	0.659984865045
0	22782	14197.825070881088	1.146762880749
0	22785	14198.41398619729	1.30211027728
0	22790	14200.696117399983	0.822707174346
0	22795	14207.509332804079	0.857433668245
0	22802	14216.938172759234	0.953526154952
0	22805	14217.365953035305	1.030902523888
0	22810	14229.87244325244	0.853280003974
0	22822	14232.676037551665	1.54880254162
0	22840	14236.945790173316	4.812754985553
0	22852	14241.791615066442	0.991452375846
0	22867	14245.420929705617	0.520698021539
0	22875	14247.3977200891	2.371807725402
0	22890	14259.751951076265	0.592604699172
0	22905	14275.414704947273	0.690608984418
0	22910	14276.330333440132	0.777729097521
0	22915	14281.575605783193	0.806648926996
0	22920	14284.392233024106	0.879249205021
0	22925	14285.610183645407	0.921014212398
0	22932	14289.432336125519	0.874116744287
0	22947	14291.553001470754	2.597315220139
0	22955	14293.422603816316	0.771236931719
0	22962	14295.551950460301	0.994492889429
0	22965	14296.328498576164	1.312044583345
0	22970	14297.747802221124	0.839585799631
0	22980	14306.772548392996	0.763078197977
0	22985	14310.488401159911	0.615944264457
0	23005	14322.006983908501	5.371406180149
0	23010	14334.714949184749	0.886106262729
0	23020	14340.186635729793	0.706091695232
0	23042	14349.287802131156	0.74929213007
0	23045	14350.239708483739	1.002091051138
0	23050	14362.640825529163	0.909364991123
0	23060	14376.922468422211	0.90121003231
0	23082	14394.704728944289	4.055147915181
0	23085	14395.418241471859	1.327326244219
0	23090	14396.633834041962	0.998802072229
0	23097	14410.342628608359	0.727093671774
0	23100	14411.009470686777	0.903417484583
0	23105	14413.710826970506	0.535148183024
0	23110	14429.394052198417	0.648111073067
0	23125	14437.662110902911	0.654195415415
0	23135	14444.544045974947	0.525368196284
0	23145	14459.830881627347	2.601849885293
0	23155	14464.173543909184	0.953324224288
0	23162	14466.765573682378	0.97314694752
0	23165	14467.314550466857	0.93893501153
0	23170	14482.437573338042	0.686333950888
0	23177	14487.641335024066	0.797136380943
0	23180	14488.579751898614	1.291370968553
0	23185	14489.921434316008	0.528447315237
0	23202	14509.729384542382	0.74858596744
0	23210	14511.201296778269	3.440665297705
0	23225	14521.07642001003	1.464002955298
0	23255	14536.475226667163	3.35378898456
0	23260	14537.783014392588	0.664375713188
0	23275	14547.540823583913	0.963801100198
0	23285	14552.42729076013	1.332486234631
0	23290	14560.87999966859	0.455239261081
0	23295	14562.383078305128	0.821392672742
0	23307	14568.684547136851	0.711467547435
0	23310	14569.561498015222	2.623543612699
0	23315	14577.352119786737	0.604006056394
0	23320	14578.202943883428	0.820108685875
0	23330	14580.065545491571	0.588005738892
0	23335	14584.086488307618	0.658183312044
0	23340	14590.445436491026	0.779371838784
0	23355	14602.623009930528	0.981426732987
0	23362	14609.355621861059	0.854156844923
0	23370	14613.62243154888	0.551241147239
0	23375	14615.685592648972	0.801416192297
0	23385	14618.701491055978	1.960046588142
0	23425	14638.774787945643	0.903448617784
0	23440	14643.2493280182	2.640987044284
0	23445	14646.190769705644	0.493998921709
0	23457	14647.81425649556	1.185406117146
0	23467	14651.621800154305	0.796002095845
0	23470	14652.031449460468	0.617283943462
0	23480	14653.645154631411	0.83392986663
0	23490	14656.090797001653	1.264072605511
0	23505	14659.657132070405	3.350776822171
0	23510	14660.600180815856	2.487333422398
0	23520	14671.164469402603	0.815087785898
0	23525	14675.241247744178	0.941455692891
0	23530	14685.792619505307	0.694274347089
0	23546	14694.599220127305	0.663083947357
0	23555	14697.161546443328	3.224811253318
0	23560	14698.53167777129	0.633831392229
0	23565	14699.827223096692	0.659922947129
0	23570	14712.334429470788	0.436649825098
0	23575	14718.019163337378	0.499602871621
0	23595	14725.102251485679	2.323226217272
0	23610	14728.483078384238	2.787191654197
0	23620	14730.691950915431	1.388496004647
0	23625	14732.726630983328	0.838802720467
0	23632	14735.74201136696	0.426311139669
0	23642	14737.203773388768	0.998341690826
0	23647	14738.100008600893	2.761336815872
0	23665	14743.650300573672	0.638920380082
0	23677	14745.229906520656	0.821974885844
0	23695	14749.781503304064	2.594500577809
0	23700	14753.751269192157	0.918259235332
0	23710	14765.655794468132	1.400323751609
0	23715	14767.943525369103	0.936462420924
0	23735	14790.153121240764	1.544164361759
0	23745	14792.063254516675	0.996439774055
0	23750	14793.234036697647	2.857870730003
0	23777	14797.00510807229	3.097635566396
0	23785	14799.187793019365	5.879237587677
0	23797	14814.563364568227	0.917926944839
0	23800	14815.279753145403	1.196085574089
0	23805	14816.48839031354	0.947959348187
0	23820	14829.128802917264	0.748519611685
0	23830	14846.202988689818	0.621037990879
0	23835	14852.001032409287	0.917194748018
0	23860	14863.975160603708	0.466621502256
0	23870	14873.241246052221	0.552787220571
0	23885	14880.104180066134	2.80162653667
0	23895	14884.454713878681	0.446751651913
0	23905	14896.706569979385	0.61440555756
0	23930	14934.518539531945	0.570115204994
0	23940	14939.189262959172	0.477525418391
0	23955	14943.405635210304	4.212598253156
0	23967	14964.333954125971	0.586762775434
0	23985	14978.607542473537	0.943979146844
0	24022	14992.560544702599	0.536328839324
0	24035	15002.446949361059	0.942994777812
0	24042	15006.231638155821	0.915843471792
0	24050	15008.351837051336	2.338979714994
0	24070	15028.14233576367	0.604738570889
0	24075	15037.104809510588	0.553483099863
0	24080	15049.892681781157	0.921838631248
0	24125	15081.326328717233	1.672344279854
0	24140	15089.684292205799	0.754186108476
0	24147	15091.366860450506	0.612246113038
0	24154	15092.355315993102	1.22837774897
0	24167	15093.88914586476	0.81364420902
0	24170	15094.51637046419	2.705039588509
0	24180	15106.694335393743	0.627581913676
0	24190	15110.914317729111	2.55689728896
0	24202	15114.186640555648	1.54743396076
0	24215	15124.90080804454	0.722942824103
0	24245	15153.925201674611	0.478296643449
0	24250	15158.309716504662	0.656375287194
0	24325	15208.773801225034	0.660484615946
0	24342	15221.903209071856	1.198882865821
0	24362	15227.924765965761	1.80524142584
0	24377	15230.641595999166	3.247669877507
0	24405	15252.893985226809	0.982679315098
0	24417	15262.690749318447	0.795184459351
0	24422	15263.665344479183	1.143156719002
0	24435	15270.981852114135	0.771229526587
0	24440	15272.117852623089	0.865630998695
0	24447	15273.923482612928	0.707045432879
0	24450	15274.587793879618	0.732634630231
0	24475	15283.8765062836	0.940283960395
0	24482	15288.069950465827	0.625879747234
0	24487	15288.691700189809	1.099918320714
0	24492	15289.247014387945	0.607460138225
0	24500	15291.028730565976	0.879273053193
0	24505	15304.7654383255	0.802214336675
0	24515	15315.127891332538	0.521449529985
0	24520	15319.52384249999	0.466761449864
0	24530	15327.106659774918	0.581095430534
0	24555	15331.858408621794	2.27905408876
0	24560	15333.174322038401	0.916055043461
0	24570	15337.442494402888	0.52602635785
0	24575	15346.687580858379	0.648774625314
0	24597	15358.590730857784	0.769833870139
0	24600	15359.141620938648	1.28001882627
0	24610	15364.54329750432	2.483585065397
0	24615	15371.899206603465	0.92852270226
0	24620	15377.212657320727	0.684046913683
0	24630	15383.411616965183	2.493325536011
0	24635	15384.350433062742	0.839124226943
0	24650	15403.808501901386	0.844390905416
0	24677	15420.667280256026	0.689162454708
0	24705	15439.944978771131	0.651652477169
0	24710	15442.230940350568	0.700475701364
0	24715	15450.028977427399	0.517549918965
0	24720	15451.477835660631	0.61032153964
0	24725	15454.075715034292	0.626559093641
0	24730	15456.669743555386	0.911975603178
0	24735	15458.069298712116	0.801379063679
0	24745	15470.26663772553	0.847669009212
0	24750	15471.886733508768	0.642409385694
0	24760	15476.037018224733	2.490988474496
0	24765	15479.375026773715	0.841178241372
0	24795	15491.093097987341	0.697188377194
0	24807	15496.020084745894	1.296248230447
0	24810	15496.639543867429	1.237400558917
0	24815	15500.28852442423	0.74938495839
0	24830	15517.62640445562	0.797211390175
0	24840	15520.781896887485	0.949516991619
0	24852	15523.533747514872	0.851481183292
0	24862	15525.294342558248	1.416075709785
0	24865	15525.795637123682	3.794046256782
0	24870	15527.273761812977	0.671061122371
0	24895	15537.058131669628	3.280527885048
0	24905	15544.250347229371	0.988377739955
0	24920	15557.816846475431	1.670919473496
0	24935	15566.558603734521	0.831293685641
0	24940	15568.729929663722	0.663370940508
0	24950	15577.535390116227	1.529339316816
0	24955	15581.684582599906	0.876979670627
0	24960	15585.020128289121	0.604042707942
0	24980	15598.246074198728	2.178326156853
0	24985	15599.82505897995	2.61382971374
0	24990	15608.452921901699	0.714586468134
0	24995	15611.751976544878	0.578377796803
0	25000	15616.792387703	0.700160331838
0	25010	15631.145876960278	0.65829344606
0	25022	15637.044857443531	0.431414804095
0	25030	15638.962533695443	0.703794316854
0	25035	15641.773809495944	0.6492702235
0	25047	15646.497968483047	0.416439021565
0	25055	15648.950050955603	0.594713506103
0	25060	15651.008128934739	0.53484959309
0	25070	15655.254721906745	2.69202016668
0	25077	15658.171752708538	0.966776001081
0	25080	15659.121531408459	1.425830847522
0	25085	15660.307886888451	0.811769657815
0	25095	15662.64533006628	0.969041860993
0	25105	15664.436637498042	1.155897351619
0	25110	15667.090449008762	0.745744636655
0	25115	15672.055320969372	0.91558175846
0	25135	15685.185198772075	0.775903565669
0	25140	15689.331270655425	0.685093025072
0	25145	15707.709698176085	0.790577646345
0	25150	15713.136380857249	0.726945931232
0	25160	15719.129058342963	0.730324042309
0	25170	15732.692705962885	0.788646529196
0	25175	15733.429437782166	2.686298977166
0	25200	15748.757509650512	0.705322752373
0	25207	15749.734329667963	0.955795915239
0	25240	15759.662253664086	0.502620575251
0	25245	15760.769037764244	0.599560593069
0	25250	15764.079000194885	0.92459098855
0	25255	15768.253610823069	0.996759386081
0	25260	15772.181824587587	0.8090621782
0	25265	15776.64015229762	0.975378370518
0	25270	15782.353999119649	0.919616024895
0	25285	15793.704388267537	2.116808694948
0	25300	15805.375799859615	0.863713294547
0	25309	15806.508436490749	4.570663857547
0	25312	15807.153861158402	1.442304243616
0	25315	15807.666548575941	4.316943656337
0	25322	15813.090091373092	0.580921265204
0	25327	15813.87450741103	0.900914140055
0	25332	15814.739845550778	1.589960871755
0	25350	15822.57004438325	0.893033175357
0	25355	15827.330380404714	0.418978920812
0	25365	15834.055594055607	0.767518726457
0	25372	15839.911522116121	0.739303071145
0	25377	15840.851865952071	1.445928516375
0	25385	15842.122332134452	1.221612333586
0	25395	15844.209993768898	1.747440057572
0	25410	15848.930845148882	0.586436761729
0	25415	15864.18160003934	0.526285301801
0	25420	15866.407963406565	0.424459740845
0	25450	15890.587387737183	0.793393811809
0	25457	15891.651276893455	0.920335854357
0	25460	15892.528647180886	1.026445410577
0	25465	15904.647822663333	0.868823205447
0	25470	15905.982845292438	0.408767809905
0	25490	15924.761513630985	3.87038886812
0	25525	15942.569885416115	2.251679493443
0	25540	15948.065037192009	1.565865232423
0	25550	15952.992334201036	2.08612753223
0	25555	15956.664069957181	0.856126867654
0	25572	15979.311335726421	0.985614264617
0	25580	15981.151341113851	0.704913936136
0	25590	15994.261749532128	0.776158868661
0	25605	16009.215088096641	0.815655086096
0	25625	16024.493608138873	0.455820474541
0	25630	16029.711913871387	0.990145031549
0	25640	16038.784671029493	2.727749432362
0	25670	16057.360736829377	1.860772563843
0	25675	16058.391450560628	0.790324460762
0	25680	16060.890519846081	0.448369532032
0	25685	16062.2181006859	0.54162931894
0	25690	16064.35887018747	0.609852470458
0	25695	16068.094010421849	0.400291009201
0	25700	16071.231525539225	0.68251718618
0	25705	16088.245156971652	0.518155369256
0	25725	16098.916560741734	0.963715899689
0	25735	16104.867677751469	0.965136858728
0	25740	16106.320869290899	0.61720031905
0	25745	16110.00772394002	0.623348360648
0	25760	16124.660240509909	1.853486714676
0	25765	16132.729540209011	0.911713849753
0	25770	16135.713371935328	0.408692349726
0	25775	16147.763047066771	0.574560581567
0	25780	16150.053410939138	0.425132421125
0	25787	16151.709238475422	0.701121419296
0	25795	16155.246170880326	0.718949874444
0	25800	16159.701422832394	0.477939824015
0	25805	16175.491434771773	0.559542629961
0	25810	16177.770726952627	0.583430093853
0	25815	16179.841649784247	0.98289175611
0	25820	16181.628687671984	0.556322948588
0	25825	16182.282799933498	0.541578097967
0	25830	16183.651646066666	0.99545360473
0	25840	16185.888351095558	0.808282869775
0	25850	16190.55013620094	1.198846729211
0	25860	16195.866636026865	3.099085905846
0	25870	16202.852925499249	0.649553938769
0	25885	16210.406425793421	2.965487669079
0	25895	16218.085223784972	0.596685414203
0	25926	16230.315726744192	0.963957104453
0	25937	16232.041166981165	2.14100056978
0	25940	16232.851162011404	4.713762697113
0	25950	16245.176405078739	0.64032501285
0	25955	16253.241086904718	0.867697158223
0	25960	16256.382377537732	0.42861019806
0	25977	16266.288230347407	0.818342602672
0	26005	16280.962570614249	0.807728044363
0	26010	16286.007064366454	0.722660378553
0	26022	16294.165257435492	0.646302827812
0	26035	16300.647743687915	0.504513560887
0	26050	16314.482829304138	0.848932703631
0	26055	16316.056859337017	0.435000828141
0	26065	16331.311321763834	2.627681817195
0	26075	16341.96337224234	0.511741518928
0	26085	16347.238564540362	0.96145201358
0	26094	16352.586488973255	0.87665615906
0	26097	16353.034390686125	1.223451621483
0	26100	16353.881545341945	1.817544280088
0	26110	16365.91848965989	0.740087019093
0	26120	16371.128333125102	1.670924772504
0	26130	16379.445786813779	1.898590826229
0	26137	16386.955262392349	0.6803034293
0	26190	16420.071091942154	0.720163312927
0	26202	16433.100672525639	0.970308866818
0	26205	16433.96433285033	1.078356555115
0	26237	16451.989926802419	0.911514545279
0	26240	16452.845140177995	1.111715518495
0	26245	16454.469079528073	0.424721873133
0	26250	16455.934928884894	0.723216941953
0	26265	16463.42874245088	1.406400370174
0	26285	16469.353675720802	0.861971164029
0	26290	16470.438890421731	0.570507808728
0	26295	16472.446273901641	0.754148838622
0	26310	16475.417079713639	1.654004761343
0	26320	16489.412536527898	0.667558803767
0	26335	16507.768303062491	0.450476470916
0	26345	16513.508360177401	0.823987676995
0	26352	16518.906347899884	0.47017993601
0	26360	16525.558659135279	0.8429129011
0	26370	16529.040473751075	3.14807706066
0	26375	16531.975961528842	0.749834250333
0	26380	16538.15583975034	0.58212649487
0	26385	16542.53005059632	0.668713762844
0	26390	16548.725206354529	0.635903091636
0	26395	16550.357437390394	0.40004251427
0	26400	16557.719308634708	0.88578882874
0	26405	16558.798810090841	0.421805392718
0	26410	16563.208101163289	0.800478373421
0	26425	16571.47911434171	0.573417251697
0	26430	16575.541025336963	0.436160987755
0	26440	16577.41002831862	0.660730420705
0	26445	16581.520103165934	0.895210552402
0	26450	16588.35240882893	0.480317692412
0	26455	16592.153691010864	0.861767302593
0	26467	16602.881772029669	0.429555566097
0	26470	16603.765748876463	2.5709504203
0	26480	16629.0253110515	0.412776202802
0	26495	16634.736543391798	2.29055605347
0	26525	16662.059727727477	0.869547657808
0	26552	16692.925739569763	0.884568081656
0	26587	16711.710400246364	1.636604325208
0	26605	16727.656186062619	0.520184587222
0	26622	16736.440363455798	1.272659420374
0	26627	16737.161788456935	2.43600385082
0	26654	16740.620957698302	2.532262493883
0	26672	16743.900707914168	3.643917071505
0	26675	16744.622899904847	3.380921810338
0	26687	16750.520893356847	1.810794105394
0	26697	16753.348808114975	0.786264062487
0	26700	16754.143266598135	1.229852689007
0	26705	16755.371322226076	0.628286829218
0	26710	16760.311307155726	0.449407389062
0	26715	16768.494296664397	0.932319135685
0	26720	16784.287342280168	0.98558147992
0	26725	16787.422561726238	0.536835851707
0	26732	16804.263438277596	0.800317559624
0	26735	16804.938112435115	1.468042683091
0	26750	16810.128881496372	0.951349485479
0	26755	16811.44373471002	5.228869631691
0	26760	16812.173196520987	0.425090737781
0	26765	16814.3620096598	0.869052360812
0	26770	16815.218253159696	0.430415531481
0	26795	16831.749410857529	0.928512227815
0	26805	16836.633145009052	0.81165299667
0	26820	16842.581436608752	0.505455716979
0	26827	16844.65361720515	0.966665752232
0	26830	16845.319698171695	1.375676082042
0	26835	16858.700799106518	0.732089359267
0	26840	16861.513455669816	0.496515908884
0	26862	16883.114803209796	0.720281704934
0	26865	16883.622437329765	1.015529368167
0	26870	16900.316825346039	0.516514791641
0	26880	16901.690152814081	1.038478781538
0	26890	16921.344864831826	0.582221208559
0	26895	16925.354361062871	0.577945421496
0	26917	16936.094794475736	0.864335757321
0	26920	16936.692913917761	4.329965888965
0	26935	16950.834622361205	4.115043425894
0	26945	16959.648352869403	0.709751995793
0	26952	16962.201726221116	0.709367074631
0	26955	16962.951560861068	1.327207577534
0	26960	16965.270366409258	0.958129335381
0	26965	16970.662911998102	0.7654866606
0	26972	16971.665313084903	0.841867847368
0	26975	16972.275764648816	1.044071927716
0	26990	16982.607683948124	0.967397931351
0	27030	16999.233506517291	0.652404084522
0	27055	17018.024659332556	0.916804043483
0	27065	17029.020285035674	0.569182184059
0	27070	17032.13062757644	0.555368428631
0	27077	17037.599721464497	0.969374702172
0	27087	17039.195519578811	1.564671754323
0	27090	17039.770282084756	1.072000756687
0	27095	17041.910421239452	0.685433254065
0	27107	17049.846644571419	0.630629857397
0	27135	17054.212731812511	3.543904353074
0	27140	17059.343825773853	0.721527165221
0	27145	17064.723254819947	0.746841126075
0	27167	17073.364472164443	1.200634585522
0	27177	17074.521948788638	1.099049241275
0	27180	17075.450943765181	2.669261469119
0	27197	17081.960059362262	0.873811725015
0	27205	17094.533342051083	0.693451572629
0	27212	17095.581521571517	0.438773475541
0	27215	17096.348297964359	0.96937496325
0	27230	17103.465000331122	0.573510353407
0	27235	17105.490960473768	0.703384996532
0	27242	17119.252482882171	0.892936066119
0	27245	17119.674987893068	0.803754251186
0	27260	17127.573766873436	1.214846841801
0	27265	17131.902565236899	0.972908199904
0	27270	17134.547397094746	0.510306875035
0	27275	17139.948250295634	0.986164572462
0	27295	17164.554205551236	1.762871298238
0	27300	17165.910832580554	0.802033710293
0	27310	17168.391317102749	7.512425991998
0	27317	17169.476400793022	0.981939118169
0	27327	17171.040725455624	4.836668964282
0	27330	17171.641857843851	10.697579155851
0	27335	17172.904483279402	0.927187254978
0	27340	17177.046323718922	0.497450441215
0	27350	17207.682637417742	0.468369981367
0	27355	17209.312957196594	0.406395659503
0	27365	17219.696868713274	0.959683133475
0	27370	17221.23399040405	0.504950023768
0	27375	17223.624525392241	0.472200454539
0	27385	17227.447368743401	0.959343543602
0	27390	17231.794189792275	0.982920305291
0	27395	17244.67415705276	0.666550137149
0	27405	17247.9298127748	1.022317206468
0	27410	17259.569801968534	0.402353031281
0	27420	17271.329517997128	1.272580075814
0	27450	17291.498061053952	4.04475788164
0	27460	17293.80609895407	0.715804040135
0	27465	17307.363547600605	0.547671505064
0	27470	17308.323192353665	0.763006403903
0	27480	17327.698449203053	0.582138904976
0	27492	17330.890572920932	0.667299663555
0	27505	17336.0065576409	0.675480954396
0	27510	17339.272342236567	0.722921431391
0	27530	17350.688998187183	2.108533854085
0	27535	17351.80498006559	0.712801450351
0	27547	17356.30910099525	1.168249709093
0	27565	17360.832166213569	1.17918155815
0	27577	17369.675978865178	1.068566854693
0	27580	17370.489228784835	2.197692535445
0	27587	17373.535790743786	0.991495600902
0	27595	17375.855534999473	0.814502167748
0	27635	17394.016376190426	1.557706777106
0	27645	17397.772042179849	0.863719794992
0	27650	17400.013293313863	0.439907930931
0	27660	17406.419737485134	0.595455402322
0	27670	17408.006206087417	0.684601541294
0	27680	17413.151674816152	1.113317119222
0	27695	17420.821482339513	0.969466985122
0	27710	17432.230843602837	0.676672324864
0	27730	17449.489137792699	2.607132065004
0	27740	17452.124733501378	0.792700700603
0	27769	17458.908538796034	4.187633217129
0	27775	17459.895752185796	5.179884227272
0	27785	17463.500558573589	0.709460240044
0	27790	17464.636442639482	0.553182388609
0	27795	17466.758488513869	0.836972177355
0	27800	17467.241202403131	0.476430376107
0	27820	17491.951745710327	3.610623022155
0	27825	17496.31846869665	0.774660750711
0	27830	17496.99826974675	0.457352749445
0	27840	17499.058190714558	0.728662936017
0	27845	17509.393285655926	0.698896373808
0	27860	17520.817382605501	0.788616668805
0	27865	17529.461811843138	0.86982453512
0	27875	17535.256979251243	1.974548048752
0	27887	17540.545704170582	0.861733519363
0	27900	17545.384890175873	6.431590353648
0	27915	17559.374801264518	0.628979277797
0	27929	17571.652232348538	1.288266715889
0	27937	17573.181986529186	3.349234440737
0	27940	17573.877095016457	1.360367429363
0	27970	17591.193057818718	0.799316868791
0	27975	17595.22471575944	0.566907967813
0	28002	17625.309938925542	0.595814812183
0	28015	17635.824075842529	0.624059614725
0	28025	17645.275952947743	4.087752288302
0	28030	17652.790101677764	0.914866355341
0	28040	17659.10013770692	0.738386953576
0	28060	17665.704176892454	0.634188763471
0	28070	17667.628259186643	3.900435220036
0	28080	17672.734314073558	0.781201385427
0	28090	17692.462849970076	0.673480843985
0	28100	17702.862895808334	0.438516113255
0	28127	17714.84632480265	0.599369552033
0	28135	17718.931995648879	0.424832146149
0	28140	17722.073568737596	0.836412222637
0	28145	17725.65917464718	0.476624167804
0	28165	17733.859107356936	3.158475422235
0	28170	17735.001055988788	7.424038565139
0	28180	17743.251913370757	0.71611335529
0	28190	17758.232055343823	0.608549346309
0	28200	17765.397168227698	0.470371450344
0	28227	17796.68358184604	2.781276991311
0	28252	17821.747799374471	0.885087067867
0	28255	17822.271473365585	0.882755626282
0	28265	17824.964275788255	0.657795651536
0	28297	17841.817470836362	0.791271793377
0	28300	17842.310785648089	0.548152831858
0	28305	17846.687487363651	0.571816320764
0	28310	17855.388798614087	0.919555738615
0	28325	17863.596832916237	0.882221288187
0	28335	17867.489711078554	2.192370089587
0	28340	17871.643650930268	0.627778368024
0	28350	17876.876871015715	0.560224163346
0	28360	17897.334015266562	0.716243274929
0	28365	17907.186126399223	0.459063740214
0	28370	17915.314413862254	0.754127151845
0	28379	17921.494755195677	0.970210791146
0	28387	17922.82523380219	2.258921117893
0	28425	17932.047670584253	2.365575213111
0	28430	17938.895221329623	0.600717087695
0	28435	17944.628438114578	0.871218715934
0	28445	17955.07746830827	1.957313220547
0	28450	17955.724212067865	0.531484760344
0	28462	17960.411092743557	2.675043905905
0	28465	17961.130088842101	1.438501121464
0	28470	17964.342861570009	0.505156676099
0	28475	17968.386351006804	0.700338209094
0	28485	17975.22687850719	0.686263676034
0	28490	17982.100391140429	0.893072857102
0	28495	18001.347456295352	0.595263224421
0	28500	18006.224974105908	0.510923746508
0	28505	18007.865374899797	0.768663796829
0	28515	18025.014259686244	0.894945607567
0	28530	18040.975749737602	0.953652759269
0	28537	18042.082293149364	0.896431481233
0	28540	18042.838890241041	0.928892931609
0	28545	18048.734335909143	0.824261141475
0	28552	18051.829353698772	0.833433491224
0	28567	18053.688394196749	2.092252941131
0	28570	18054.448949870466	1.933855372249
0	28575	18057.78565970055	0.782943230122
0	28590	18062.160555193682	1.025971833216
0	28600	18070.199160876895	0.66969907037
0	28605	18078.073437277693	0.92670373302
0	28617	18080.722629658819	0.41542565925
0	28620	18081.591055089316	1.205189000804
0	28625	18083.175999714549	0.566418670863
0	28630	18084.682123161672	0.744546049787
0	28640	18095.85576496998	1.43872810947
0	28645	18101.210106167035	0.85795101691
0	28660	18116.044203068888	0.862082462991
0	28665	18117.237581956162	0.942374255182
0	28687	18123.442382764607	5.303255282547
0	28690	18123.991069468321	0.894907085343
0	28695	18126.952690224363	0.991173451394
0	28705	18134.112198159416	0.825101589737
0	28710	18141.624417604634	0.698132596072
0	28715	18151.330720426227	0.923850322235
0	28720	18157.584283961922	0.644521457935
0	28725	18159.72456935816	0.93011520002
0	28740	18165.274162952984	2.187976025911
0	28750	18167.212299700217	0.81459501675
0	28775	18181.069966138132	2.308342096957
0	28780	18182.9242661694	0.922590516601
0	28792	18187.263285450419	0.631750335992
0	28814	18192.035435464343	4.077653310509
0	28822	18193.287201635417	1.745486943122
0	28825	18194.086200136615	1.868077844673
0	28830	18204.35226186804	0.735718684644
0	28840	18217.905181364525	0.871955021564
0	28880	18235.03081374174	0.416907860246
0	28900	18242.546736723937	0.740347632999
0	28927	18251.230894106506	4.67783882037
0	28932	18252.153271080852	2.361326280338
0	28935	18252.615164536071	0.96106036919
0	28945	18255.535010292308	0.953248778777
0	28952	18258.252832177887	0.884669791302
0	28960	18260.491723084559	2.738967297909
0	28965	18264.257607524453	0.691770140501
0	28970	18265.883145609069	0.669945557835
0	28975	18274.351095513593	0.98093066304
0	28985	18289.641317481945	0.658471852913
0	28997	18292.465863533723	0.955212447047
0	29002	18292.924390036133	2.180637136001
0	29005	18293.523614042005	0.809200881899
0	29010	18295.136930769057	0.959638339607
0	29015	18295.756211735751	0.524724639067
0	29022	18297.410677537648	0.766628700774
0	29035	18313.681755315622	1.744406352871
0	29055	18317.941771939585	3.03964656534
0	29070	18322.23094461342	1.964059321887
0	29075	18330.167384844972	0.749343979824
0	29097	18339.496119515544	1.344495908032
0	29100	18339.974382528702	1.792178641836
0	29120	18350.589536030212	0.840290972777
0	29125	18356.584728153068	0.530515881069
0	29130	18358.976841973657	0.915623901552
0	29135	18369.265707036286	0.880933856498
0	29162	18379.245824152738	0.45831582956
0	29185	18394.129259323197	2.052622732827
0	29190	18397.685046641399	0.600596464006
0	29195	18399.181950226578	0.906757055828
0	29205	18404.294416645781	0.904800080368
0	29210	18407.147507420956	0.702154452819
0	29215	18420.607061584671	0.882944037067
0	29230	18427.105359328039	2.394463001618
0	29235	18430.356134922893	0.999452017993
0	29255	18440.962990690775	0.944706910057
0	29284	18447.580947127554	0.703678040858
0	29302	18451.372175424133	0.786601559259
0	29305	18452.344974031631	2.278673707794
0	29315	18457.423719281197	0.798904637713
0	29325	18464.681836521027	1.787298425245
0	29330	18470.231100432049	0.924701194232
0	29335	18476.950731417486	0.522547225561
0	29340	18477.890798404154	0.472394911898
0	29360	18491.981707779884	1.736803880073
0	29375	18500.70334180598	1.110294116555
0	29397	18507.833367452575	0.85133614111
0	29400	18508.282990814503	1.647056787181
0	29405	18516.338918640352	0.447391985171
0	29410	18524.361972807574	0.876417660387
0	29440	18552.621051126693	0.934389896737
0	29462	18561.382135969411	0.79178320977
0	29465	18562.151026973931	1.503096345593
0	29472	18568.980841675564	0.61134046684
0	29475	18569.92949148037	1.325503926032
0	29485	18588.04073260548	0.688478108495
0	29500	18596.252763597585	0.87293999996
0	29505	18606.663962633056	0.758988295542
0	29510	18608.239404957426	0.960566654382
0	29520	18619.409830636314	0.492074720608
0	29525	18621.558664983394	0.440198987769
0	29530	18623.126688269719	0.879255618295
0	29545	18639.659900393402	2.124570839082
0	29570	18672.262485270068	0.46259796815
0	29575	18678.240687897282	0.72077438971
0	29592	18685.437020654909	1.996603851299
0	29595	18685.952384050077	1.8602574494
0	29615	18699.491175219408	0.634709499544
0	29640	18705.731991521247	5.481104390818
0	29645	18706.53630838096	0.573683718545
0	29652	18708.452953601131	0.512540494371
0	29655	18709.097263690658	0.872545957708
0	29662	18711.282506348041	0.730001334008
0	29667	18712.251199123019	1.335413956895
0	29675	18729.502850672139	0.408017274877
0	29695	18736.487494176328	1.725122125327
0	29750	18767.236144212238	0.787372665992
0	29755	18775.879865426031	0.803798436746
0	29760	18778.661438136101	0.7568625235
0	29765	18783.977777570785	0.494759202516
0	29770	18786.395217728876	0.848965612939
0	29775	18787.884995079016	0.865493669035
0	29782	18789.979219525319	0.971484773234
0	29785	18790.842062776501	1.106636925983
0	29800	18798.121545564898	0.435143093066
0	29810	18802.358458743302	0.514468972478
0	29815	18803.519863268998	0.818810084881
0	29820	18805.232227053276	0.737902348675
0	29825	18807.395959130673	0.41193058528
0	29845	18828.439368290273	0.918043122767
0	29860	18842.743715696758	0.642687018495
0	29877	18848.880125884434	0.773304690095
0	29880	18849.29683648036	0.684144952757
0	29885	18850.663037455831	0.407090945775
0	29910	18871.005517634468	2.115152515174
0	29925	18910.859600571058	0.837716303999
0	29930	18912.980350771019	0.472246434866
0	29947	18918.1161164509	0.514750040881
0	29950	18918.591340430021	0.654989011633
0	29967	18925.681607828378	2.005516224132
0	29975	18927.033043077211	1.275998779762
0	29980	18930.015358708006	0.823219406698
0	29985	18932.811021794082	0.539491411578
0	29990	18939.265396089838	0.631694650091
0	29995	18940.246264090414	0.928038076265
0	30002	18943.357892005573	0.556848797621
0	30005	18943.981808275365	0.863227406496
0	30022	18961.593220851931	0.87137015108
0	30025	18962.374939636036	2.666266609031
0	30030	18968.010490560748	0.525520966668
0	30035	18972.938139539644	0.656846503261
0	30040	18977.705313354865	0.49130803491
0	30055	18981.931961309032	0.887121684337
0	30060	18985.050571611189	0.760841811914
0	30070	18991.342403867078	0.528433337156
0	30080	19007.588937636423	0.622576962644
0	30090	19014.232650364056	1.451130847033
0	30120	19050.833618878803	0.899757488305
0	30125	19056.469585923572	0.581059067324
0	30144	19071.691107247094	1.205375886962
0	30150	19073.217278039804	1.966814025927
0	30160	19084.135493095271	0.490672548627
0	30185	19098.087212863747	0.621042976296
0	30190	19100.207667152598	6.243717218273
0	30195	19112.675521087087	0.55034414446
0	30200	19120.923563997647	0.936603461532
0	30205	19123.679496059113	0.868734286726
0	30210	19126.272549401	0.685091822967
0	30230	19134.831235287711	4.283858572025
0	30245	19139.1420953732	1.42922603002
0	30250	19142.42941073335	0.663939472707
0	30255	19143.791222421087	0.450827594427
0	30280	19165.878729018487	0.621443786053
0	30285	19172.726622600473	0.686554482114
0	30300	19191.701291094974	0.452092489973
0	30310	19197.509988931817	0.706868452067
0	30315	19200.057524247908	0.497467404651
0	30325	19203.9096509478	1.409825378744
0	30337	19206.128865758581	1.0108266657
0	30360	19221.194713294882	0.854819035949
0	30365	19223.351995842142	0.462534827692
0	30370	19225.791171708507	0.738862284459
0	30375	19229.314278126927	0.414425824769
0	30390	19255.61376393802	0.840485042473
0	30395	19256.571271532835	0.480263476167
0	30410	19262.874208164682	0.767046222789
0	30415	19264.925749897102	0.898415883817
0	30420	19265.561202769614	0.401091972413
0	30442	19269.541227892901	0.523018148681
0	30450	19270.574412507725	1.00837422127
0	30455	19271.077160155937	0.487483236985
0	30460	19271.795375263078	0.414094493026
0	30475	19277.832959292598	3.123089337666
0	30485	19282.05109486995	0.556381870294
0	30492	19288.413964392225	0.850142879598
0	30510	19292.125752377788	1.175232046015
0	30530	19296.854672758841	0.791696301848
0	30535	19304.962590255378	0.413243023399
0	30540	19306.336965906619	0.720999278128
0	30572	19324.506670624911	1.100165404405
0	30582	19326.452550788093	1.709226490174
0	30600	19333.28955770881	0.7962222056
0	30605	19337.74462370464	0.62879581959
0	30615	19355.646405769751	0.643146626465
0	30622	19356.271212836625	0.447099256702
0	30625	19356.785721825287	0.556738782339
0	30635	19360.439923980699	1.782476498835
0	30645	19364.53415818777	0.561410933686
0	30650	19365.091924023844	0.504072640091
0	30655	19369.18799616621	0.63613759228
0	30660	19369.743381264823	0.5522928664
0	30667	19371.378798144873	0.636088584131
0	30680	19375.2883555598	4.119007210064
0	30687	19376.229444274218	2.745752812617
0	30700	19379.474414215828	0.456154777948
0	30710	19381.494566341215	0.979457494418
0	30720	19384.710313217349	4.832629157978
0	30730	19388.658228793312	0.843079038383
0	30740	19405.247921384233	0.676306373626
0	30747	19410.674626427366	0.839948428422
0	30750	19411.076202827821	0.451859736903
0	30755	19413.601304644395	0.983645916032
0	30760	19418.135710528606	0.61513180742
0	30765	19432.442312194228	0.444871937204
0	30770	19435.425530195528	0.54634726271
0	30784	19439.089619295291	0.820925289858
0	30787	19439.850759800655	2.588013726748
0	30790	19440.640496778573	2.301611274207
0	30800	19442.989830186426	0.668603264214
0	30810	19468.103002443729	0.735170533881
0	30815	19476.75133119364	0.764430768089
0	30825	19497.760287075725	0.643201022502
0	30830	19502.273387690088	0.420931582246
0	30840	19526.205801077043	0.800249881204
0	30845	19528.932427302024	0.742274250044
0	30850	19529.459506521891	0.476142144809
0	30855	19554.018944546082	0.835468699876
0	30865	19581.484510197122	3.2133691957
0	30902	19604.466181077495	2.940267563527
0	30915	19610.884056869465	0.435079046944
0	30920	19611.910104770701	0.689419771032
0	30940	19623.896306922981	1.818675718291
0	30950	19627.77416139605	1.839690024888
0	30955	19632.756844245302	0.870330228331
0	30970	19649.376517485121	0.89338385798
0	30975	19656.997046767011	0.655252114264
0	30987	19661.179251439959	1.053990249391
0	30990	19661.787640124044	2.154477563035
0	31017	19674.28288704393	0.486514592683
0	31020	19674.737485997458	1.945348691428
0	31040	19679.351115093233	1.646713109153
0	31059	19686.495795599307	0.857031120946
0	31065	19687.932342088391	2.836094266269
0	31070	19692.804452234405	0.579578391835
0	31105	19706.203096075077	1.054782723791
0	31115	19708.143877776703	1.812458119207
0	31139	19720.421883801897	0.829512187559
0	31142	19721.010040787342	3.520443794546
0	31147	19721.594294586047	1.406762417638
0	31155	19724.795404855762	0.406168099213
0	31162	19738.566360926624	0.757016011095
0	31165	19739.059577242886	1.085143099484
0	31185	19755.449080406769	0.527512670588
0	31190	19764.02926531281	0.584275151463
0	31195	19773.862860022014	0.944696286693
0	31217	19799.898771752112	0.683903808612
0	31225	19804.414750968933	0.749237014307
0	31235	19819.999731001941	0.699962605396
0	31250	19829.062209087225	0.568477096269
0	31285	19846.717773641631	0.744479021803
0	31295	19852.813729228048	0.748174022464
0	31305	19856.298147447706	2.585924037066
0	31312	19872.776928458244	0.672578476788
0	31315	19873.555152701328	1.288398700939
0	31320	19877.866570265793	0.95670883581
0	31325	19885.131457276012	0.613098605676
0	31335	19897.343453825286	0.798353027459
0	31355	19913.955935585469	0.652412201697
0	31407	19953.845338234546	0.728326371329
0	31425	19963.981671970116	0.717268610513
0	31470	19979.980919212015	3.796548895912
0	31482	19984.626962041221	0.605831184098
0	31485	19985.612383442437	1.363575898867
0	31490	19986.853407347411	0.983878477942
0	31495	19989.242477743453	0.914517868636
0	31500	19991.61070982366	0.488063852116
0	31515	19994.215710307631	1.09748292603
0	31522	20003.547440707718	0.794561786205
0	31530	20006.533840573563	3.452960230385
0	31540	20014.882649322469	1.871250302913
0	31560	20036.457530943298	0.747090796987
0	31567	20040.25236768268	0.739468769636
0	31575	20042.319050908291	2.478724971756
0	31580	20045.563810013992	0.697315448243
0	31590	20055.485396581644	0.766041545663
0	31595	20056.67879310045	0.711109871091
0	31605	20058.723415436228	1.060823613566
0	31617	20067.282756299148	1.338396028983
0	31630	20070.763104992105	0.632497590175
0	31635	20071.445077727129	0.563006266207
0	31645	20075.459395742797	0.457235171599
0	31672	20092.221912996619	1.597120762516
0	31675	20093.191160500756	1.269710560839
0	31685	20096.674196509781	3.05519833669
0	31712	20111.772271181458	0.934032138858
0	31737	20127.728897774929	1.847367850502
0	31750	20130.984750949818	4.917331887583
0	31755	20132.925020428766	0.530262699397
0	31770	20138.571481122375	1.96583789754
0	31785	20144.943681753346	1.455561535532
0	31795	20150.066287710459	0.601359562948
0	31805	20153.492967674435	0.405430800328
0	31825	20166.045369741878	0.508810559753
0	31832	20173.877010635842	0.506577001605
0	31840	20178.696151078062	0.631681755371
0	31852	20190.457589084917	0.942351502506
0	31860	20197.333072162756	0.928641690081
0	31870	20203.192031967642	1.560133687974
0	31882	20211.981649313704	0.466120010195
0	31900	20225.230970046544	1.666232648246
0	31910	20232.384525996881	0.436663055513
0	31935	20257.678986337448	0.481250038324
0	31950	20272.284734095338	1.201591940846
0	31980	20290.962781929324	0.62518045539
0	31985	20291.644476573325	0.435987111181
0	31990	20300.506989204569	0.511961563025
0	31995	20306.724468731894	0.959831544431
0	32000	20321.180814430126	0.579874683311
0	32007	20325.708816621729	0.592682720721
0	32025	20337.736695178976	0.946215268597
0	32035	20345.580193301114	3.227167676962
0	32050	20358.006100303304	1.040295226452
0	32062	20371.615565962778	0.640216588881
0	32067	20372.248986847667	1.132227056094
0	32075	20373.65080414821	1.252929290231
0	32082	20375.771050316249	0.884416394634
0	32085	20376.250734364162	0.615831312251
0	32090	20377.000666837633	0.512005451089
0	32095	20381.546644138587	0.555544168642
0	32100	20384.252185031803	0.459025346767
0	32117	20391.367391194724	0.866468883213
0	32125	20397.213912403601	0.768516188581
0	32130	20400.381447925059	0.60408881302
0	32140	20405.778354698736	1.071974239763
0	32145	20414.374367194391	0.799169796426
0	32150	20425.71263750174	0.793003201205
0	32160	20428.905111602518	1.161545581248
0	32170	20442.024923896555	4.77472156628
0	32175	20455.634398523904	0.832091372088
0	32187	20459.863122885053	2.355124152348
0	32192	20460.760412205321	1.271589382406
0	32220	20466.259804845215	0.793044067454
0	32232	20471.313397049327	0.61124425726
0	32242	20472.998680100945	1.205573244503
0	32272	20496.502195517955	0.575314205466
0	32280	20505.017414533469	0.646830776334
0	32290	20518.773998115233	0.952594348136
0	32315	20543.052194635275	2.813895845616
0	32330	20550.854643202482	0.616383164376
0	32360	20568.430704262604	1.147539631841
0	32365	20570.822093615043	0.90843849075
0	32370	20579.022545827603	0.759489970747
0	32377	20585.94470384743	0.665137806861
0	32400	20598.608604241591	0.810710101714
0	32405	20604.398719210339	0.552935108356
0	32422	20609.913051724107	1.70773510591
0	32425	20610.855336371855	2.221780242135
0	32459	20633.380367445724	0.966791978385
0	32462	20634.205624283675	0.902612269238
0	32472	20637.909208358844	0.665194734093
0	32475	20638.718839541004	13.193798605871
0	32490	20644.560948160417	0.401430409914
0	32495	20645.715612636501	3.986852044729
0	32510	20654.783057620467	2.308877818528
0	32535	20664.052756332455	0.930245466166
0	32547	20665.544022564445	0.783933482808
0	32550	20666.110910811317	1.206509677702
0	32560	20668.449956989196	4.213275725773
0	32565	20673.501835753062	0.643365602009
0	32570	20674.910196310368	0.678901191242
0	32580	20679.506169256721	1.745140632814
0	32585	20687.734090731828	0.860809801752
0	32595	20701.065031713161	0.768334633904
0	32610	20722.040001230856	0.49221926583
0	32615	20723.617616817658	0.521091599111
0	32632	20735.981907611656	1.763589015881
0	32635	20736.709372296919	1.21687585104
0	32640	20739.170618647421	0.713190154545
0	32647	20742.970208634936	0.948353427835
0	32652	20743.802151801425	1.14244921253
0	32655	20744.248043370607	0.552419115323
0	32660	20745.293467730569	0.710183554282
0	32665	20757.125640605387	0.663981505018
0	32675	20763.33697086274	2.208490984723
0	32685	20768.539291524055	0.823780990537
0	32695	20772.714470735864	2.604911490674
0	32700	20773.278335796144	0.465997616248
0	32705	20774.697100459228	0.947593379347
0	32715	20786.703421202938	0.519948554215
0	32720	20788.408423804152	0.700926063536
0	32732	20791.172949138493	0.91328583266
0	32737	20792.010670155775	1.386422616198
0	32745	20798.719874287737	0.469770937273
0	32750	20805.284183404394	0.515718763974
0	32755	20808.38022758507	0.431700963108
0	32765	20814.364436175012	0.831271248963
0	32772	20816.596549368306	0.994410553295
0	32790	20824.210815223469	0.538699865993
0	32795	20830.061586524772	0.834461186593
0	32805	20839.358375592854	2.792275436161
0	32812	20840.709926532493	0.481643335382
0	32815	20841.508927391241	0.814430109726
0	32820	20847.385421885022	0.990152375912
0	32840	20864.693853836129	0.550739959581
0	32850	20867.961219921916	0.721551702823
0	32855	20873.852026688449	0.559814389143
0	32877	20885.367452065575	1.05309317104
0	32882	20886.325884481913	1.42231577936
0	32885	20887.310020148216	1.934062112801
0	32897	20891.293834685929	1.976948817775
0	32910	20893.93843538789	0.788859960949
0	32922	20897.279217347163	0.887810581923
0	32925	20897.841971322834	0.650812522776
0	32935	20905.385921145982	0.909755318891
0	32940	20920.511912617388	0.584279718902
0	32945	20924.267331706797	0.91640946581
0	32952	20925.572528013003	0.618252077047
0	32959	20925.978816502609	1.005134418829
0	32965	20927.050559953947	1.40997320721
0	33000	20956.800083797181	0.878075541323
0	33017	20969.289356565205	1.973231999947
0	33025	20971.558001204662	2.47169772689
0	33035	20980.161013285659	1.602078070692
0	33055	21005.69169796354	0.965662248014
0	33070	21009.97548495724	1.74765447089
0	33084	21016.876484656857	0.959423345188
0	33090	21018.560146734036	2.00412304217
0	33105	21032.563343486783	0.55819520494
0	33120	21065.346996614862	0.452745949291
0	33125	21067.225311230643	0.488575100852
0	33132	21071.18678650783	0.819173751213
0	33135	21071.616850057213	0.708250064437
0	33140	21080.528213548774	0.840038372949
0	33155	21088.569991918077	0.580413650861
0	33165	21092.090897484442	1.534395557748
0	33175	21108.361118965593	4.678178992286
0	33182	21109.855272935408	0.538633902371
0	33190	21113.461465452463	3.884867119805
0	33195	21115.360860517244	0.415752685489
0	33202	21122.631245904236	0.801429860946
0	33205	21123.574036106753	1.104892557442
0	33210	21127.468495085673	0.69094404513
0	33250	21146.653648412191	0.461261333851
0	33265	21151.839657706786	1.069177891315
0	33277	21154.418036090323	0.761469653901
0	33285	21156.062117991057	1.355427880296
0	33290	21157.367072502204	3.169321789606
0	33297	21164.027268663325	0.887708508922
0	33307	21165.949692310833	0.952928456804
0	33312	21166.528031172997	1.007249893104
0	33315	21167.406801085288	1.399284462183
0	33337	21204.977947748319	1.187722970604
0	33340	21205.534459516599	0.948919241637
0	33364	21224.412081025311	3.830612173354
0	33372	21226.168963128937	2.998773133103
0	33390	21236.765691420418	0.439907379542
0	33395	21244.601698021124	0.647670994094
0	33400	21246.299398191995	0.761557691684
0	33410	21251.954090770919	0.95485276687
0	33420	21264.419014028397	0.688795405021
0	33435	21273.207595977693	3.115065372706
0	33440	21282.215230994157	0.962148199091
0	33445	21286.463504950678	0.615885157371
0	33465	21296.497143761334	1.245291055343
0	33470	21303.829865493544	0.876640675869
0	33500	21345.357604815715	2.760406288085
0	33520	21354.146131597032	1.891834947761
0	33530	21360.49297467499	0.591812086571
0	33542	21365.418725165168	1.618760851107
0	33545	21366.068023253467	1.950725555597
0	33560	21376.220522203382	0.894690911286
0	33570	21381.708153426883	0.793890888058
0	33575	21383.659600352873	0.517933974834
0	33580	21395.387500182109	0.633522601938
0	33592	21401.743824916138	0.753115751874
0	33600	21406.820937070759	0.756380057381
0	33605	21408.763619605119	0.727910099458
0	33610	21410.28017797567	0.763863191288
0	33615	21414.683040919231	0.751702171005
0	33620	21425.014658404204	0.545461400459
0	33625	21441.452311996153	0.818404103629
0	33630	21444.560170760067	0.650305999583
0	33647	21450.573915166255	1.743792310835
0	33650	21451.430921647731	1.751513316434
0	33655	21452.172416451967	0.43551050555
0	33660	21455.158622273111	0.76055519986
0	33680	21472.534454909695	0.907686065324
0	33689	21473.643735606741	0.842016697675
0	33695	21474.90361151626	1.459613070188
0	33700	21480.994481061983	0.86021264717
0	33734	21492.437334092964	2.518859920447
0	33740	21493.653276623717	3.085034870122
0	33755	21501.071959274903	4.324016701034
0	33767	21506.439020545328	2.059808239095
0	33782	21508.66333340552	2.048929514147
0	33785	21509.323814153218	3.10601463769
0	33800	21521.299817064826	0.872418008978
0	33805	21528.476094096316	0.782299616188
0	33817	21554.660008214864	0.75856935964
0	33820	21555.124687481516	0.866176051614
0	33835	21564.901405730559	1.948354158193
0	33855	21573.632565217341	1.50817160782
0	33860	21577.123246369316	0.572700823052
0	33865	21578.125144768966	0.497010652255
0	33885	21586.174038103697	0.675396373589
0	33890	21588.028162613504	0.420855131326
0	33900	21597.842400311006	0.452988588649
0	33915	21603.509090961143	0.851014190027
0	33925	21619.706296559184	0.58977945298
0	33930	21622.246043071844	0.967329468066
0	33955	21638.906600362205	0.942460253928
0	33970	21645.803364745795	1.695419018469
0	33985	21649.165232141719	0.701633568667
0	33990	21651.529275538245	0.555812680116
0	34019	21655.956304450811	2.130342919164
0	34025	21657.654494872795	5.556288231014
0	34030	21659.093608330181	0.454935506498
0	34035	21660.488032797032	7.954401350447
0	34045	21665.319767376574	0.865173720056
0	34055	21677.694704877023	0.572341392515
0	34065	21681.324822313297	1.267162205141
0	34070	21693.81118029602	0.791060622502
0	34075	21696.876547778779	0.539222994959
0	34082	21698.009342729911	0.419683559332
0	34112	21711.953555926615	0.794661057135
0	34122	21713.865105953585	2.159616004035
0	34130	21715.744273907789	1.846079796016
0	34139	21716.657261298618	2.95534500639
0	34145	21717.922853409892	1.600442673935
0	34165	21740.034021167481	0.406827981165
0	34172	21741.284484020344	0.410861479957
0	34180	21746.565102830209	0.646690911986
0	34190	21748.945303347997	0.499019729206
0	34200	21753.149659962882	3.448050192829
0	34212	21760.4213068604	2.365340842367
0	34215	21761.192795739136	1.292383360943
0	34230	21770.150977408621	0.666147307772
0	34240	21776.348695658829	0.631498375535
0	34245	21777.796766889648	0.748333100788
0	34252	21779.868556690668	0.696944645839
0	34255	21780.524799171495	1.193765595374
0	34260	21784.670401495634	0.94827749352
0	34300	21803.334066389019	0.78982301997
0	34312	21812.350372828838	2.921164388257
0	34315	21813.261883229545	0.943748090205
0	34320	21819.617268665432	0.831502810912
0	34345	21830.267513469178	2.11288273855
0	34355	21835.558009970063	0.677679700824
0	34370	21842.824931771294	0.553294274863
0	34375	21850.048275670597	0.824565186631
0	34404	21855.895090654392	1.107923897809
0	34415	21859.90211491952	4.897355520523
0	34430	21866.826586527883	0.527758954233
0	34437	21871.122597834297	0.769556409307
0	34470	21881.902613749863	0.96591149075
0	34475	21883.224050492127	0.630434082123
0	34485	21894.79672196058	4.518997503429
0	34490	21896.528493513801	0.953195616975
0	34520	21920.851246289755	0.582844455726
0	34537	21936.916198692455	0.936488462659
0	34550	21946.350676198864	0.461944225105
0	34560	21970.187282008452	0.601253160555
0	34565	21986.42071509232	0.954353538062
0	34575	21994.496197723084	0.922354421299
0	34595	22002.874902158855	2.311557097327
0	34600	22007.627954333018	0.565272581531
0	34617	22017.761425547064	0.651156448433
0	34620	22018.541883686087	1.180292071553
0	34635	22021.719789119663	0.719369371235
0	34640	22028.997907154681	0.715090199001
0	34645	22032.649680394622	0.88302833722
0	34655	22038.933268144258	0.904906968493
0	34662	22050.817878859058	0.925046590529
0	34670	22066.229730255166	0.691970887082
0	34675	22070.492850203537	0.741373255104
0	34685	22074.539117335269	0.830406851927
0	34690	22077.227848351174	0.607121818792
0	34700	22082.120462280078	0.818994474038
0	34710	22097.309206223024	0.441643102514
0	34717	22098.006907401346	0.587961881701
0	34730	22111.88790543084	0.827855379367
0	34737	22118.541371980368	0.535171213001
0	34747	22120.334683583237	0.726488513453
0	34765	22138.397630873691	2.197266314388
0	34775	22163.912856862863	0.855735170003
0	34790	22177.298160124698	0.526714121923
0	34800	22193.654794127931	1.358159563424
0	34807	22195.112044353824	0.999209683761
0	34817	22199.982069711411	0.750703446846
0	34824	22200.745866827318	0.957639162119
0	34834	22202.079455413693	1.390605732215
0	34840	22203.370092293737	2.080043535838
0	34850	22211.801991407291	0.722084158892
0	34867	22216.106556570264	0.478217336698
0	34877	22217.596657624121	0.994187731855
0	34935	22267.39741157355	0.616786588728
0	34950	22274.11301418932	0.939241516218
0	34967	22284.041950190615	0.576832331577
0	34972	22284.443428066967	0.725427778331
0	34992	22292.219564199554	1.454272298778
0	35017	22307.682903637258	3.756918123796
0	35020	22308.420131285475	1.361023079987
0	35025	22310.285694659349	0.418810872035
0	35030	22314.736084010068	0.716536322189
0	35035	22316.182623908935	0.700957613438
0	35045	22320.258497739347	2.2756347148
0	35062	22324.402787079907	0.774790284901
0	35067	22324.861898254569	4.094425953195
0	35070	22325.391869356216	0.692782191668
0	35075	22328.059197916418	0.933913001092
0	35100	22334.475178354078	4.276791337392
0	35115	22339.405355926686	0.6951746515
0	35120	22345.930194962864	0.872804470733
0	35125	22365.371480909746	0.734786199033
0	35145	22377.619632957568	2.309265007091
0	35170	22382.476113522119	2.888868044836
0	35195	22389.200268561158	1.055520594918
0	35210	22400.037498553545	0.626659956854
0	35217	22408.967873458817	0.418658975884
0	35227	22410.673471733901	1.567531664228
0	35250	22439.124759385404	0.93196765231
0	35260	22446.201155779598	0.416912590154
0	35265	22452.016816938369	0.839186303038
0	35275	22458.699129886183	3.095493421521
0	35285	22461.393109689706	1.22667879316
0	35290	22463.332962489569	0.913117672969
0	35305	22476.062825220116	0.963590955083
0	35315	22481.141507520683	0.484518600022
0	35325	22486.013771066733	0.659161309432
0	35337	22491.883633348815	0.578652409883
0	35340	22492.743489232011	1.011961635244
0	35350	22496.359375691732	0.73289086814
0	35360	22529.938379926921	0.732950195251
0	35375	22536.804654554295	0.875435055331
0	35380	22538.420753365793	4.380977919034
0	35385	22543.233130773644	0.900354762189
0	35390	22555.871202925938	0.611525053531
0	35405	22573.040406801686	0.898505906155
0	35417	22580.314548343197	2.893024746782
0	35420	22580.901978580896	0.922778681104
0	35432	22590.656730870533	0.592027710332
0	35435	22591.627378202931	1.152413524654
0	35445	22595.169085117437	0.916303878858
0	35450	22605.447023922412	0.43729648767
0	35455	22609.843273724022	0.715377067542
0	35460	22619.526736293743	0.737349209562
0	35482	22628.454128244307	0.849353149114
0	35490	22632.413957615198	0.93826737199
0	35495	22635.903167553852	0.581889054272
0	35500	22638.991942622276	0.619740267051
0	35510	22650.857535407994	0.452300397772
0	35535	22666.232109933044	0.973296213849
0	35540	22674.02271198883	0.611456529796
0	35592	22706.265802303975	0.679074387776
0	35595	22706.666664564184	2.192888411059
0	35607	22708.949878160455	1.40594640146
0	35610	22709.883729380215	2.358893881179
0	35615	22711.704750849703	0.539556309022
0	35620	22716.255673889148	0.59481699802
0	35630	22719.062909278573	1.754905178456
0	35645	22731.93839731915	2.478076278802
[...]
7	30426	19267.42042430134	0
7	30440	19269.36943217645	1
7	30441	19269.541227892901	0
7	30490	19288.226828155997	1
7	30491	19288.413964392225	0
7	30570	19323.646257551353	1
7	30571	19324.506670624911	0
7	30580	19325.622960551486	1
7	30581	19326.452550788093	0
7	30685	19375.864029525531	1
7	30686	19376.229444274218	0
7	30900	19604.224038087178	1
7	30901	19604.466181077495	0
7	31030	19677.994056296525	1
7	31031	19678.259105679873	0
7	31055	19685.705682847184	1
7	31058	19686.495795599307	0
7	31145	19721.172214385877	1
7	31146	19721.594294586047	0
7	31200	19797.329077633508	1
7	31201	19797.918483653593	0
7	31215	19799.543830370488	1
7	31216	19799.898771752112	0
7	31365	19934.48771311039	1
7	31367	19934.715259300292	2
7	31368	19934.750250553882	1
7	31371	19935.215662692797	0
7	31405	19953.393663610741	1
7	31406	19953.845338234546	0
7	31460	19977.976895794564	1
7	31461	19978.587972731335	0
7	31505	19992.560346180683	1
7	31506	19992.657731381358	0
7	31545	20015.519474941879	1
7	31546	20015.610363864824	0
7	31550	20016.089607889912	1
7	31551	20016.410091181723	0
7	31615	20066.692338446953	1
7	31616	20067.282756299148	0
7	31710	20111.674859400127	1
7	31711	20111.772271181458	0
7	31815	20160.462703784594	1
7	31816	20160.579067427994	0
7	31830	20173.559557353422	1
7	31831	20173.877010635842	0
7	31850	20190.409877795292	1
7	31851	20190.457589084917	0
7	31880	20211.607667150742	1
7	31881	20211.981649313704	0
7	31955	20277.256196767665	1
7	31956	20277.459139232117	0
7	31965	20283.193119239705	1
7	31967	20283.432886576438	2
7	31968	20283.861165072739	1
7	31971	20284.539124790037	0
7	32005	20325.249760969608	1
7	32006	20325.708816621729	0
7	32015	20332.252112251453	1
7	32016	20332.616234960359	0
7	32065	20371.923548917738	1
7	32066	20372.248986847667	0
7	32115	20391.053206318887	1
7	32116	20391.367391194724	0
7	32190	20459.925654247223	1
7	32191	20460.760412205321	0
7	32200	20461.899017270722	1
7	32201	20462.565954227908	0
7	32210	20463.766217385962	1
7	32211	20464.364504380208	0
7	32230	20471.115074580607	1
7	32231	20471.313397049327	0
7	32240	20472.661369068643	1
7	32241	20472.998680100945	0
7	32270	20495.986312410474	1
7	32271	20496.502195517955	0
7	32375	20585.667996746037	1
7	32376	20585.94470384743	0
7	32735	20791.543085994916	1
7	32736	20792.010670155775	0
7	32770	20816.04534679211	1
7	32771	20816.596549368306	0
7	32895	20890.918611392655	1
7	32896	20891.293834685929	0
7	32900	20891.521718653123	1
7	32901	20891.75534431606	0
7	32957	20925.815493474861	1
7	32958	20925.978816502609	0
7	32980	20950.600079696622	1
7	32981	20950.612063115946	0
7	32985	20950.942727144094	1
7	32986	20951.554526321002	0
7	33080	21016.200415224665	1
7	33083	21016.876484656857	0
7	33225	21142.040014478079	1
7	33226	21142.705993983136	0
7	33230	21142.904706321922	1
7	33231	21143.135812423598	0
7	33235	21143.291466383787	1
7	33236	21143.586450732719	0
7	33295	21163.366700135512	1
7	33296	21164.027268663325	0
7	33360	21223.918278867131	1
7	33363	21224.412081025311	0
7	33370	21225.732057873636	1
7	33371	21226.168963128937	0
7	33485	21334.946571054311	1
7	33486	21335.318202194173	0
7	33590	21400.995117124168	1
7	33591	21401.743824916138	0
7	33670	21467.394502614314	1
7	33671	21467.602408889335	0
7	33687	21473.467858825023	1
7	33688	21473.643735606741	0
7	33705	21488.983014148161	1
7	33707	21489.410630016722	2
7	33708	21489.442782980973	1
7	33713	21489.983825182799	0
7	33717	21490.201145115639	1
7	33720	21490.57119902887	0
7	33724	21490.653650219051	1
7	33725	21491.196805263987	0
7	33732	21492.081755709499	1
7	33733	21492.437334092964	0
7	33772	21506.969584488298	1
7	33773	21507.267795389857	0
7	33840	21571.102166361355	1
7	33842	21571.688991060213	2
7	33843	21571.758859125028	1
7	33848	21572.385953129937	0
7	34007	21654.199169589484	1
7	34008	21654.413359960973	0
7	34080	21697.696049633959	1
7	34081	21698.009342729911	0
7	34090	21699.397227338429	1
7	34091	21699.811280933547	0
7	34135	21716.256214952471	1
7	34138	21716.657261298618	0
7	34170	21740.942193794234	1
7	34171	21741.284484020344	0
7	34325	21826.841159855761	1
7	34326	21827.321887648933	0
7	34385	21851.303158187972	1
7	34386	21851.69960891842	0
7	34402	21855.5849853225	1
7	34403	21855.895090654392	0
7	34435	21870.573938161261	1
7	34436	21871.122597834297	0
7	34450	21874.489656130779	1
7	34451	21874.626192366945	0
7	34535	21936.679683352284	1
7	34536	21936.916198692455	0
7	34605	22010.67486364607	1
7	34606	22011.441954636496	0
7	34660	22050.581430964672	1
7	34661	22050.817878859058	0
7	34715	22097.799482475347	1
7	34716	22098.006907401346	0
7	34735	22118.304954727023	1
7	34736	22118.541371980368	0
7	34745	22119.665030078957	1
7	34746	22120.334683583237	0
7	34805	22194.960381910026	1
7	34806	22195.112044353824	0
7	34820	22200.060148618299	1
7	34823	22200.745866827318	0
7	34832	22201.352724835795	1
7	34833	22202.079455413693	0
7	34855	22214.772892243957	1
7	34856	22214.917662640256	0
7	34865	22215.699359574347	1
7	34866	22216.106556570264	0
7	34875	22216.635847484486	1
7	34876	22217.596657624121	0
7	34880	22217.708144141711	1
7	34881	22218.528061791954	0
7	34910	22249.061320657496	1
7	34911	22249.075667493519	0
7	34915	22249.304462370137	1
7	34916	22249.4837024781	0
7	34970	22284.101263565146	1
7	34971	22284.443428066967	0
7	34990	22291.817465464996	1
7	34991	22292.219564199554	0
7	35150	22378.366560273055	1
7	35151	22378.859774864128	0
7	35185	22387.180900161962	1
7	35186	22387.737001393733	0
7	35215	22408.817239823759	1
7	35216	22408.967873458817	0
7	35225	22410.370701678764	1
7	35226	22410.673471733901	0
7	35480	22627.731073912879	1
7	35481	22628.454128244307	0
7	35525	22658.39240366095	1
7	35526	22658.524700793679	0
7	35555	22687.531850617233	1
7	35556	22687.803088559692	0
7	35670	22751.395269095691	1
7	35673	22751.938542527583	0
7	35700	22766.840966328451	1
7	35701	22767.544889260933	0
7	35825	22844.081013639617	1
7	35826	22844.119229707612	0
7	35870	22876.201959830967	1
7	35871	22876.625195520403	0
7	35920	22907.975340847079	1
7	35921	22908.145763122594	0
7	35940	22919.826364575267	1
7	35941	22920.548568318409	0
7	35955	22923.660561844363	1
7	35956	22923.89287389595	0
7	36060	22993.54375804579	1
7	36063	22994.360505068573	0
7	36105	23014.205200517716	1
7	36106	23014.932799436102	0
7	36110	23014.940446142747	1
7	36111	23015.867119265437	0
7	36260	23132.363351041883	1
7	36262	23132.618042232006	2
7	36263	23132.988489568179	1
7	36266	23133.930840773686	0
7	36270	23134.192064816473	1
7	36271	23134.362804103215	0
7	36350	23188.661213425288	1
7	36351	23189.184656913896	0
7	36430	23244.163811776435	1
7	36431	23244.358577898284	0
7	36435	23244.37104280426	1
7	36436	23244.810901101259	0
7	36440	23245.058628066219	1
7	36441	23245.601957859843	0
7	36455	23252.383897699996	1
7	36456	23252.729122387577	0
7	36460	23253.614228195861	1
7	36461	23253.644532054808	0
7	36595	23328.700576610675	1
7	36596	23329.02509249729	0
7	36605	23333.63592410169	1
7	36606	23333.946864945544	0
7	36625	23339.493341908077	1
7	36626	23339.78930102298	0
7	36745	23450.814025040589	1
7	36746	23451.443583118771	0
7	36750	23451.57331219077	1
7	36753	23452.428936642916	0
7	36757	23452.720566774101	1
7	36758	23453.279290153734	0
7	36770	23457.888836391213	1
7	36771	23458.447754856741	0
7	36795	23478.564526666509	1
7	36796	23478.652212087726	0
7	36800	23478.673942831226	1
7	36801	23479.209120562402	0
7	36805	23479.267326892991	1
7	36807	23479.357245976763	2
7	36808	23479.781115710511	1
7	36811	23480.296131489155	0
7	36840	23501.067450744075	1
7	36841	23501.123398528786	0
7	36890	23573.577555889339	1
7	36891	23573.663042702001	0
7	36905	23576.046389848423	1
7	36906	23576.788910535444	0
7	36940	23608.102653792727	1
7	36941	23608.411439124884	0
7	36980	23624.568099256529	1
7	36981	23624.643240411079	0
7	36995	23633.122032941645	1
7	36996	23633.293589654157	0
7	37045	23675.113033387397	1
7	37046	23676.041040777933	0
7	37055	23677.138935420214	1
7	37056	23677.283541197615	0
7	37065	23678.459406753053	1
7	37066	23678.774078681651	0
7	37120	23694.755761242781	1
7	37121	23695.323892744516	0
7	37170	23730.297370539808	1
7	37171	23731.01145167291	0
7	37195	23734.703852690309	1
7	37196	23734.867678884714	0
7	37265	23797.67238224361	1
7	37266	23798.047556594952	0
7	37375	23875.417461224128	1
7	37376	23875.855161677719	0
7	37475	23967.20620254595	1
7	37476	23967.370542999762	0
7	37500	23975.390811938659	1
7	37501	23975.596080487274	0
7	37520	23980.274667738169	1
7	37525	23980.577444352133	0
7	37529	23980.941915395794	1
7	37530	23981.061593385942	0
7	37534	23981.447239596796	1
7	37535	23981.563580032967	0
7	37539	23981.584571993846	1
7	37541	23981.622796321647	2
7	37542	23982.132897620246	1
7	37545	23982.594652005721	0
7	37549	23983.048406247638	1
7	37550	23983.208489625918	0
7	37554	23983.980294234999	1
7	37555	23984.130122824822	0
7	37559	23984.147399232126	1
7	37561	23984.635853543539	2
7	37563	23984.678581068586	3
7	37564	23985.044765600998	2
7	37567	23985.583234552544	1
7	37570	23986.038735955691	0
7	37585	23996.886327611946	1
7	37586	23997.031572884422	0
7	37605	24003.594294327438	1
7	37606	24004.265179781004	0
7	37640	24033.490323656524	1
7	37641	24033.587127899207	0
7	37710	24069.885257440594	1
7	37711	24070.383763227597	0
7	37740	24080.699082672018	1
7	37741	24080.97204638519	0
7	37895	24173.046994453108	1
7	37896	24173.250660834706	0
7	37922	24206.445068017807	1
7	37923	24206.541598081354	0
7	37935	24208.669975106518	1
7	37936	24208.826097121996	0
7	37975	24226.696136008176	1
7	37977	24227.100804201455	2
7	37978	24227.283561029408	1
7	37981	24227.919929197647	0
7	38095	24306.135910903799	1
7	38098	24306.903074489067	0
7	38140	24321.39235715487	1
7	38141	24321.917282682337	0
7	38150	24322.767037214617	1
7	38151	24323.508777167281	0
7	38295	24429.074508984761	1
7	38296	24429.537708653838	0
7	38345	24457.883311174981	1
7	38346	24458.544061866839	0
7	38440	24519.00411009333	1
7	38441	24519.846708399229	0
7	38507	24563.18391834002	1
7	38508	24563.426278252823	0
7	38565	24629.207572025725	1
7	38566	24629.221217664722	0
7	38635	24664.369972474176	1
7	38636	24664.652283336889	0
7	38740	24725.066319126298	1
7	38743	24725.375240123491	0
7	38770	24737.914961425462	1
7	38772	24738.199871225997	2
7	38773	24738.444337179454	1
7	38776	24738.967444047926	0
7	38800	24750.483647485052	1
7	38801	24751.042216978476	0
7	38810	24756.862422510399	1
7	38811	24757.028968791339	0
7	38842	24781.89649659481	1
7	38843	24782.091031451865	0
7	38875	24788.326582144835	1
7	38876	24788.386107273396	0
7	39025	24906.316829751503	1
7	39026	24906.620701020123	0
7	39140	24973.015007537081	1
7	39141	24973.376822357441	0
7	39155	24980.094308746762	1
7	39156	24980.114606041163	0
7	39290	25067.346566152896	1
7	39291	25067.425720558073	0
7	39295	25067.800841066017	1
7	39296	25068.33384021352	0
7	39345	25093.573948445685	1
7	39346	25093.60521843544	0
7	39360	25100.085594767617	1
7	39361	25100.318256424281	0
7	39370	25102.828961447416	1
7	39371	25102.861600853104	0
7	39440	25147.722901799305	1
7	39441	25147.921022572483	0
7	39450	25148.902296495572	1
7	39451	25149.409226928067	0
7	39480	25163.123287565191	1
7	39481	25163.852050228504	0
7	39515	25174.772133408789	1
7	39516	25174.81390397013	0
7	39625	25243.409245991134	1
7	39626	25243.601842847362	0
7	39665	25287.174712180648	1
7	39666	25287.318113268907	0
7	39845	25411.035543307769	1
7	39846	25411.261628554029	0
7	40075	25532.213747617175	1
7	40076	25532.835174796999	0
7	40085	25534.355391101249	1
7	40086	25534.441402813416	0
7	40230	25634.213234203527	1
7	40231	25634.426445407392	0
7	40340	25731.593917013553	1
7	40341	25732.081284666161	0
7	40402	25746.811604386757	1
7	40404	25747.171544329228	2
7	40405	25747.272762787237	1
7	40408	25747.962665935501	0
7	40457	25761.216517609909	1
7	40458	25761.475870183841	0
7	40525	25795.341567755758	1
7	40526	25795.522603817164	0
7	40535	25796.428474193905	1
7	40537	25796.891096782413	2
7	40538	25797.238750215177	1
7	40543	25797.748054611799	0
7	40547	25797.912402981885	1
7	40548	25798.538711381354	0
7	40570	25817.30293723829	1
7	40571	25818.059392818023	0
7	40585	25832.572432887881	1
7	40586	25833.039222133672	0
7	40635	25874.577481290984	1
7	40636	25874.935582766641	0
7	40685	25910.935458434618	1
7	40686	25911.393150513089	0
7	40690	25911.478669304115	1
7	40691	25912.177932372345	0
7	40795	25959.355877719671	1
7	40796	25959.36609918864	0
7	40802	25959.650442675348	1
7	40803	25959.96059512666	0
7	40810	25960.988236220038	1
7	40811	25961.285538298474	0
7	40850	25995.298984549331	1
7	40851	25995.331887192969	0
7	40925	26053.94044327774	1
7	40926	26054.43257510386	0
7	40935	26056.669957572208	1
7	40936	26057.169320438397	0
7	41045	26104.267214272584	1
7	41048	26104.650101033899	0
7	41057	26105.511378073087	1
7	41058	26106.014988019153	0
7	41260	26214.670377014255	1
7	41262	26214.714726236395	2
7	41263	26215.386307818415	1
7	41266	26216.175517495135	0
7	41280	26221.329705834281	1
7	41282	26221.483136065955	2
7	41283	26221.566008155918	1
7	41288	26222.242007522922	0
7	41325	26292.096752683443	1
7	41326	26292.857435347283	0
7	41382	26321.336669784917	1
7	41383	26321.502118912045	0
7	41390	26322.761840044171	1
7	41391	26323.133501437664	0
7	41435	26335.33673649554	1
7	41436	26335.569871611171	0
7	41505	26407.763144665298	1
7	41506	26408.10546540282	0
7	41580	26460.250097970451	1
7	41581	26460.31485927775	0
7	41590	26461.691022016692	1
7	41591	26462.258058536559	0
7	41715	26522.481230590822	1
7	41716	26522.849260162908	0
7	41790	26566.276176665449	1
7	41791	26566.664489893983	0
7	41905	26647.438727861136	1
7	41906	26647.475977291919	0
7	41910	26647.575843340274	1
7	41913	26648.093860931376	0
7	41920	26649.094875377046	1
7	41921	26649.441725265801	0
7	42095	26763.885008511358	1
7	42098	26764.209202924379	0
7	42110	26765.899293570608	1
7	42111	26766.34360263204	0
7	42165	26794.066503074932	1
7	42166	26794.281895914914	0
7	42180	26801.432352822183	1
7	42181	26801.545564026688	0
7	42230	26825.183018129601	1
7	42231	26825.572262955147	0
7	42255	26840.675811743568	1
7	42256	26841.446395210532	0
7	42260	26841.684368506687	1
7	42261	26842.033734477201	0
7	42270	26851.600570897102	1
7	42271	26852.249954444336	0
7	42320	26858.72988541441	1
7	42321	26859.339748668654	0
7	42330	26860.091725109862	1
7	42333	26860.357605230513	0
7	42517	26965.495511753775	1
7	42518	26965.689079624314	0
7	42585	27016.552665758852	1
7	42586	27017.245389195142	0
7	42695	27105.733678786994	1
7	42696	27106.367637387888	0
7	42755	27138.482378325194	1
7	42756	27138.980529434076	0
7	42985	27311.83139429151	1
7	42986	27311.9045632236	0
7	43140	27418.633680849346	1
7	43141	27418.722195120073	0
7	43150	27420.580142513598	1
7	43151	27421.168029934809	0
7	43195	27488.433948621541	1
7	43196	27488.821386032377	0
7	43260	27539.080500189773	1
7	43261	27539.302910641187	0
7	43310	27570.372870620288	1
7	43311	27571.135362832664	0
7	43385	27638.392924287118	1
7	43386	27638.663582763854	0
7	43400	27640.372034403453	1
7	43403	27640.582215106769	0
7	43430	27657.022282111549	1
7	43431	27657.677504354938	0
7	43455	27662.285989333999	1
7	43456	27663.139372698979	0
7	43590	27770.405278911408	1
7	43591	27770.474030228708	0
7	43640	27808.640810566159	1
7	43641	27809.188618973302	0
7	43647	27809.834547669658	1
7	43648	27809.998278723922	0
7	43652	27810.141144289556	1
7	43653	27810.777616382562	0
7	43660	27811.750776970122	1
7	43661	27811.941711750892	0
7	43690	27822.619565410328	1
7	43691	27822.6885699393	0
7	43705	27824.32883943532	1
7	43706	27824.932138908336	0
7	43740	27844.340670641529	1
7	43741	27844.390182756504	0
7	43905	27951.551852746436	1
7	43906	27951.625533324905	0
7	43955	27977.60705563232	1
7	43956	27978.347342137932	0
7	43980	27989.569583291604	1
7	43981	27989.963172263009	0
7	44020	28027.057297754504	1
7	44021	28027.658441213266	0
7	44030	28029.365311192335	1
7	44031	28029.847407368407	0
7	44035	28029.883441739619	1
7	44036	28030.543042606883	0
7	44055	28039.67914621045	1
7	44056	28039.990592529954	0
7	44060	28040.481534348624	1
7	44061	28040.871032638432	0
7	44125	28068.477515459619	1
7	44126	28068.546077728067	0
7	44135	28069.942900188277	1
7	44136	28069.975205872982	0
7	44170	28090.362528500368	1
7	44171	28090.962078846754	0
7	44335	28247.083143156873	1
7	44336	28247.437356069889	0
7	44435	28314.863408025536	1
7	44436	28315.399922643328	0
7	44575	28405.410281589373	1
7	44576	28406.028921144303	0
7	44715	28498.201579937397	1
7	44716	28498.69132806333	0
7	44800	28555.916975985176	1
7	44801	28556.154321637734	0
7	44840	28624.310397778858	1
7	44842	28624.519281390725	2
7	44843	28624.865226331187	1
7	44846	28625.836451969223	0
7	44915	28661.819015920092	1
7	44916	28662.336507823437	0
7	45140	28821.304603929013	1
7	45141	28822.037342800167	0
7	45205	28846.709842683406	1
7	45206	28846.938011168973	0
7	45360	28959.708391985531	1
7	45361	28960.155903924702	0
7	45550	29109.810561622443	1
7	45551	29110.57207207409	0
7	45780	29263.614508765158	1
7	45781	29263.853839335145	0
7	45825	29294.473212169769	1
7	45826	29294.730668715813	0
7	45835	29295.52958766939	1
7	45838	29296.269166059798	0
7	45845	29297.452348326162	1
7	45848	29298.003221705143	0
7	45885	29323.623388783057	1
7	45886	29323.738671424313	0
7	46010	29400.340671356158	1
7	46012	29400.419478714925	2
7	46013	29400.768490643588	1
7	46016	29401.691529642579	0
7	46105	29461.751814062	1
7	46106	29461.936323735555	0
7	46115	29464.132829407537	1
7	46116	29464.219313405956	0
7	46210	29550.801098059445	1
7	46211	29551.014557608658	0
7	46235	29554.516278855645	1
7	46236	29554.821993068671	0
7	46245	29556.284263739763	1
7	46246	29556.488247505219	0
7	46255	29563.675138136372	1
7	46256	29564.233592053723	0
7	46410	29679.622392933057	1
7	46411	29679.880727361515	0
7	46415	29679.886353390316	1
7	46416	29680.398763357662	0
7	46490	29724.862904523727	1
7	46491	29725.512664624581	0
7	46500	29727.499758647406	1
7	46501	29728.268268311972	0
7	46510	29729.06687827869	1
7	46511	29729.183664461661	0
7	46655	29794.010014914404	1
7	46656	29794.332623475196	0
7	46665	29795.546339313875	1
7	46666	29795.595301769127	0
7	46700	29817.10987580262	1
7	46701	29817.352575795325	0
7	46715	29826.982472790725	1
7	46716	29827.466251230978	0
7	46730	29837.090214421904	1
7	46731	29837.188989323852	0
7	46740	29838.461119143828	1
7	46741	29839.252011211215	0
7	46747	29839.723308215102	1
7	46748	29840.063596297007	0
7	46787	29868.689757177872	1
7	46788	29869.13123110442	0
7	46792	29869.318716828949	1
7	46793	29869.859627530282	0
7	46970	29971.359089646973	1
7	46971	29972.20731354581	0
8	18342	11294.166097340793	1
8	18344	11294.346048692771	0
8	18349	11295.146300269258	1
8	18351	11295.228442703743	0
8	18475	11352.652371737136	1
8	18481	11353.943863842523	0
8	18486	11353.971039277228	1
8	18488	11354.285912226303	0
8	18695	11525.075120224738	1
8	18696	11525.456136710067	0
8	18702	11526.258723349367	1
8	18706	11527.530984666161	0
8	20890	12939.404323381942	1
8	20891	12939.574004404477	0
8	21650	13466.34936245168	1
8	21651	13468.105138806228	0
8	25295	15804.331264976417	1
8	25301	15805.630052569429	0
8	26665	16743.005440124638	1
8	26666	16743.459002073389	0
8	27289	17162.859695337252	1
8	27305	17166.863621555653	2
8	27306	17167.654967070527	1
8	27314	17169.135751096972	0
8	28155	17731.260450410581	1
8	28156	17731.562485591633	0
8	28160	17732.292267282059	1
8	28161	17733.155927703481	0
8	28920	18250.217422614862	1
8	28921	18250.392156916457	0
8	30675	19374.400760432317	1
8	30676	19374.593568755305	0
8	34000	21653.230934654851	1
8	34001	21653.581653929421	0
8	34009	21654.413359960973	1
8	34011	21654.920451070165	0
8	38922	24797.033088408004	1
8	38926	24799.58878671917	0
8	40390	25745.750540638463	1
8	40391	25745.900076143944	0
8	40406	25747.272762787237	1
8	40414	25748.538537472361	0
8	42140	26780.591801132534	1
8	42141	26782.057070033623	0
8	42295	26855.831162539056	1
8	42296	26856.080942813128	0
8	42310	26857.70538164812	1
8	42322	26859.339748668654	2
8	42324	26859.360519712384	1
8	42331	26860.156423456652	0
8	42334	26860.357605230513	1
8	42336	26860.394406795874	0
9	20297	12554.150735054159	1
9	20299	12554.63435826672	0

