version 2
run First_exit_9-6-20191017-13:43:38-1880
attr configname First_exit_9
attr datetime 20191017-13:43:38
attr experiment First_exit_9
attr inifile omnetpp.ini
attr iterationvars ""
attr iterationvarsf ""
attr measurement ""
attr network ResponseTimeNetwork
attr processid 1880
attr repetition 6
attr replication #6
attr resultdir results
attr runnumber 6
attr seedset 6
param **.Source.interArrivalTime exponential(4s)
param **.jobPriority bernoulli(0.4)
param **.PS.serviceTimeU1 "uniform(0.4s, 1.0s)"
param **.PS.serviceTimeU2 "uniform(1s, 1.2s)"
param **.SS1.serviceTime exponential(0.4s)
param **.SS2.serviceTime exponential(0.8s)
param **.PS.exitProbability bernoulli(0.9)

vector 0 ResponseTimeNetwork.SS1 queueLength:vector ETV
attr interpolationmode sample-hold
attr title "queue length, vector"
vector 1 ResponseTimeNetwork.SS2 queueLength:vector ETV
attr interpolationmode sample-hold
attr title "queue length, vector"
vector 2 ResponseTimeNetwork.QueueU1 queueLength:vector ETV
attr interpolationmode sample-hold
attr title "queue length, vector"
vector 3 ResponseTimeNetwork.QueueU2 queueLength:vector ETV
attr interpolationmode sample-hold
attr title "queue length, vector"
vector 4 ResponseTimeNetwork.sink lifeTimeU1:vector ETV
attr interpolationmode none
attr title "lifetime of arrived jobs U1, vector"
attr unit s
vector 5 ResponseTimeNetwork.sink lifeTime:vector ETV
attr interpolationmode none
attr title "lifetime of arrived jobs, vector"
attr unit s
vector 6 ResponseTimeNetwork.sink lifeTimeU2:vector ETV
attr interpolationmode none
attr title "lifetime of arrived jobs U2, vector"
attr unit s
2	0	0	0
2	99	30.891958204691	1
2	100	31.032237503277	0
2	109	32.385479697732	1
2	110	32.706553301047	0
2	122	34.325192480049	1
2	125	35.035778022762	0
2	138	35.957076690196	1
2	139	36.673928814073	0
2	146	37.534128991898	1
2	149	38.307504614554	0
2	158	39.748877462653	1
2	159	39.864752109553	0
2	170	40.633373974553	1
2	171	41.261226689322	0
2	180	41.935541678875	1
2	183	42.510736555159	0
2	198	44.943100389346	1
2	199	45.523829790829	0
2	226	49.52895044597	1
2	227	49.793759898627	0
2	240	50.812840552633	1
2	241	51.501038081869	0
2	252	52.115065963798	1
2	253	52.776536301542	0
2	260	53.779175833667	1
2	263	54.440877694049	0
2	272	55.477191067644	1
2	273	55.635422053299	0
2	282	56.447528984929	1
2	285	56.875983724947	0
2	294	57.413615852412	1
2	295	58.267021810141	0
2	304	59.185183137778	1
2	305	59.655317288701	0
2	316	60.953375310949	1
2	317	61.070101733476	0
2	324	61.876425234062	1
2	327	62.456033374526	0
2	334	63.400145228995	1
2	335	63.773314261407	0
2	344	64.711029251916	1
2	347	65.276301072042	0
2	359	67.191973041055	1
2	362	67.71071396304	0
2	369	68.42641350881	1
2	370	68.97910784587	0
2	421	76.281449565782	1
2	422	76.425883086088	0
2	437	77.616259228798	1
2	438	77.745688650959	0
2	451	78.660470820828	1
2	452	79.05698467136	0
2	464	81.131650679251	1
2	465	81.192831999917	0
2	474	82.662484577419	1
2	477	82.727861304922	0
2	486	83.884408624002	1
2	487	83.918492274281	0
2	496	84.960438993535	1
2	497	85.407212618428	0
2	507	86.97009889754	1
2	508	87.231254886013	0
2	577	96.243583450001	1
2	578	96.292800252993	0
2	587	97.147876737381	1
2	588	97.177493330013	0
2	599	97.686523548815	1
2	601	97.77427524971	2
2	604	98.0584061423	1
2	609	98.969543628503	0
2	613	99.090256632551	1
2	616	99.498737828728	0
2	626	100.563834286833	1
2	628	100.832527251551	2
2	630	101.182136383978	3
2	631	101.201593763117	2
2	634	101.859975022884	1
2	638	102.157865751076	2
2	639	102.753083330268	1
2	647	103.169404873785	2
2	648	103.629032763993	1
2	652	104.147282379688	2
2	653	104.299981107857	1
2	657	104.622659150504	2
2	658	105.204867037354	1
2	662	105.393406683248	2
2	663	105.946967322674	1
2	666	106.413727304448	0
2	670	106.914400097712	1
2	671	107.234921752444	0
2	678	108.059606497963	1
2	679	108.123690104221	0
2	688	108.914368749385	1
2	689	109.219694545974	0
2	693	109.385084965128	1
2	697	109.441524823028	2
2	698	109.871213189575	1
2	702	110.577249920117	2
2	703	110.777259542157	1
2	707	110.822637371367	2
2	708	111.311948846296	1
2	712	111.641723700531	2
2	713	111.842130116063	1
2	717	112.09177802869	2
2	718	112.783920654111	1
2	722	113.179282205684	2
2	723	113.729377158327	1
2	727	114.345392979273	2
2	728	114.548272763766	1
2	732	114.763170219858	2
2	733	115.032214835254	1
2	737	115.410730664873	2
2	740	115.76064279621	1
2	743	116.514405057267	0
2	747	116.758624189834	1
2	748	117.069792742761	0
2	752	117.19942035088	1
2	753	117.727956376471	0
2	757	117.849125148558	1
2	758	118.562600043662	0
2	762	118.70847554433	1
2	763	119.522944218166	0
2	767	119.627255242355	1
2	768	120.226840286016	0
2	775	120.934180335666	1
2	776	121.318966298796	0
2	782	121.897808677255	1
2	783	121.950715948701	0
2	787	122.057488601989	1
2	788	122.919677860582	0
2	792	123.260648460141	1
2	794	123.330964432019	2
2	797	123.448425502063	1
2	803	123.592262171949	2
2	804	124.123391848675	1
2	808	124.580945582794	2
2	809	125.062701904134	1
2	813	125.168788125458	2
2	814	125.955172737607	1
2	818	126.125221037236	2
2	819	126.815614683892	1
2	823	126.937773011176	2
2	824	127.451335089014	1
2	828	127.968231849528	2
2	829	128.234634566925	1
2	833	128.515961767825	2
2	834	128.991501687061	1
2	838	129.187738773967	2
2	839	129.89446032477	1
2	843	130.533564295911	2
2	844	130.815135810351	1
2	848	131.237005096533	2
2	849	131.782389976935	1
2	853	131.855411705306	2
2	854	132.23563294724	1
2	859	132.67641482429	0
2	863	132.688252104908	1
2	864	133.173432375271	0
2	868	133.571357167656	1
2	870	133.643584538419	2
2	871	134.091781605002	1
2	877	134.267217543284	2
2	878	134.706175564103	1
2	882	135.071526100016	2
2	883	135.681652876143	1
2	888	136.435470631686	0
2	892	136.43917597822	1
2	894	136.763271872808	2
2	895	136.866955415592	1
2	898	137.46554747472	0
2	905	138.703027307935	1
2	907	138.967537636688	2
2	909	138.993448423349	3
2	910	139.01231565202	2
2	914	139.312466859656	3
2	917	139.674894720329	2
2	921	139.875952916971	3
2	922	140.242195664173	2
2	925	140.736339460792	1
2	929	140.763860508481	2
2	931	140.83006581475	3
2	932	141.243764863968	2
2	935	141.79103697875	1
2	938	142.514192953533	0
2	942	142.920417242721	1
2	943	143.056080030943	0
2	950	143.918811949927	1
2	951	144.4979419612	0
2	957	144.885174592635	1
2	958	144.927285919865	0
2	962	144.933763522785	1
2	964	145.173393533438	2
2	965	145.579014932891	1
2	968	146.364433754064	0
2	974	146.601074556189	1
2	975	147.227122409005	0
2	979	147.257501738107	1
2	981	147.646933651779	2
2	982	147.731614821513	1
2	986	147.989815999908	2
2	987	148.388653172568	1
2	990	149.046973403419	0
2	994	149.173028511463	1
2	996	149.869745926514	2
2	997	149.986693340928	1
2	1001	150.261600813982	2
2	1002	150.54143606831	1
2	1006	150.632928487671	2
2	1007	151.213783408251	1
2	1011	151.333292305095	2
2	1012	151.719987996729	1
2	1016	151.913877898307	2
2	1017	152.465238510134	1
2	1021	153.273445874939	2
2	1022	153.32721447867	1
2	1025	153.727525976874	0
2	1029	154.284280528317	1
2	1031	154.538467585466	2
2	1032	154.543975515958	1
2	1036	154.995324609196	2
2	1037	155.322874397473	1
2	1040	156.229641504461	0
2	1047	157.38404239802	1
2	1048	157.7899653637	0
2	1060	158.876644524364	1
2	1063	159.234707969209	0
2	1081	163.398572541262	1
2	1082	163.420915706983	0
2	1095	164.722165374333	1
2	1096	164.969916481726	0
2	1108	166.371822568085	1
2	1111	166.972766652159	0
2	1123	168.08871742724	1
2	1124	169.029675862114	0
2	1140	170.439211827431	1
2	1142	170.642287565452	2
2	1143	171.173193113054	1
2	1148	171.984396203668	0
2	1152	172.022478543796	1
2	1155	172.92252571207	0
2	1159	172.990730171494	1
2	1161	173.08764947677	2
2	1163	173.29408700315	3
2	1164	173.553676679511	2
2	1167	174.257213942254	1
2	1171	174.459561334076	2
2	1173	174.616145822152	3
2	1174	174.683550501302	2
2	1177	175.434113962403	1
2	1181	175.552407819747	2
2	1182	175.946813049647	1
2	1186	176.371325856687	2
2	1187	176.503101231637	1
2	1191	176.804830832076	2
2	1192	176.965703669996	1
2	1195	177.504980945182	0
2	1199	177.508294001193	1
2	1202	178.466191424024	0
2	1206	178.631311872543	1
2	1207	179.238197278152	0
2	1211	179.671403434859	1
2	1213	179.717131858594	2
2	1214	179.748210969022	1
2	1217	180.721858936981	0
2	1221	180.785369030333	1
2	1222	181.609345958861	0
2	1231	182.132524297812	1
2	1232	182.999137826464	0
2	1241	183.758493032519	1
2	1244	184.467840395602	0
2	1256	185.540947237472	1
2	1261	186.381102523501	0
2	1268	187.058254486127	1
2	1271	187.426193399602	0
2	1280	188.450139732959	1
2	1283	189.350082044597	0
2	1295	191.036034850073	1
2	1300	191.451206553601	0
2	1415	208.200756607876	1
2	1416	208.298606110752	0
2	1434	209.691877855683	1
2	1437	210.278991417649	0
2	1444	210.867707317847	1
2	1447	211.647823659533	0
2	1457	213.48235242305	1
2	1462	214.021154647383	0
2	1471	215.20579424906	1
2	1472	215.501963346654	0
2	1484	217.468629772163	1
2	1485	217.846591755718	0
2	1533	225.161451610507	1
2	1534	225.589258235804	0
2	1541	226.689202787735	1
2	1544	227.47718631287	0
2	1551	228.339951316439	1
2	1553	228.426241423561	2
2	1554	228.666743760061	1
2	1559	229.192676888796	0
2	1563	230.076889590175	1
2	1564	230.167709117027	0
2	1568	230.265454857142	1
2	1569	230.989172082784	0
2	1582	231.622429702677	1
2	1591	232.361098335328	0
2	1595	232.517244114929	1
2	1598	233.083857501176	0
2	1607	233.786336200601	1
2	1608	234.264226593654	0
2	1615	235.022075106249	1
2	1618	235.895791819058	0
2	1631	236.78531938506	1
2	1634	237.312011559	0
2	1641	238.156735520818	1
2	1646	239.035058831255	0
2	1655	240.033060462942	1
2	1656	240.174303581816	0
2	1660	240.446241130866	1
2	1661	240.621787597908	0
2	1670	241.60655047102	1
2	1671	241.688346697826	0
2	1680	242.753395044791	1
2	1681	243.076060136052	0
2	1698	245.600631377983	1
2	1699	245.601605094334	0
2	1708	246.931473919325	1
2	1709	247.361980264185	0
2	1716	248.416346638215	1
2	1717	249.004843609285	0
2	1726	249.745103887637	1
2	1728	250.0146333784	2
2	1729	250.29221619374	1
2	1734	250.848813336872	0
2	1744	252.285861934465	1
2	1745	252.681397588987	0
2	1754	253.275928411789	1
2	1755	254.095758505135	0
2	1759	254.543210674921	1
2	1760	254.84812532949	0
2	1764	255.110052545535	1
2	1766	255.187317672505	2
2	1767	255.280981100087	1
2	1772	255.748426052245	0
2	1776	255.943219575664	1
2	1777	256.176459746637	0
2	1784	256.655559344099	1
2	1786	256.792932099315	2
2	1787	257.328514125912	1
2	1792	257.792452029573	0
2	1796	258.356088155163	1
2	1797	258.469872453125	0
2	1801	258.903088083492	1
2	1804	259.365245783204	0
2	1808	259.439667854289	1
2	1809	259.821261655135	0
2	1813	260.318122244946	1
2	1814	260.704236570714	0
2	1818	261.165727971573	1
2	1819	261.676770912033	0
2	1823	261.713228815107	1
2	1824	262.183957698072	0
2	1834	263.410489480474	1
2	1836	263.462657071421	2
2	1839	263.775182864458	1
2	1844	264.723879383706	0
2	1848	265.325465525587	1
2	1849	265.422064345019	0
2	1858	266.085460371023	1
2	1859	266.830414430906	0
2	1863	267.518824567752	1
2	1864	267.709905504125	0
2	1871	268.653089100469	1
2	1872	268.904564145456	0
2	1876	269.179311439435	1
2	1877	269.844049195495	0
2	1883	270.125484080987	1
2	1884	270.487940257337	0
2	1898	272.255007758276	1
2	1900	272.404014377937	2
2	1901	272.577662373954	1
2	1906	273.055056743804	0
2	1912	273.468958503587	1
2	1913	273.858240171257	0
2	1917	273.919442570078	1
2	1918	274.590375593412	0
2	1925	275.516432942459	1
2	1926	275.973277536328	0
2	1933	276.909080335273	1
2	1934	277.356717617684	0
2	1946	278.345822784807	1
2	1948	278.899289486934	2
2	1949	279.011936988975	1
2	1956	279.754174642791	0
2	1960	279.84631592861	1
2	1961	280.632124076425	0
2	1965	280.690717014852	1
2	1966	281.476464766418	0
2	1970	281.849193005029	1
2	1971	282.12308680682	0
2	1975	282.326809888318	1
2	1976	282.864820434307	0
2	1983	283.831081534153	1
2	1985	284.132898721424	2
2	1986	284.234359428487	1
2	1991	284.887819188708	0
2	1995	284.946776913332	1
2	1996	285.760647201413	0
2	2000	285.804357973023	1
2	2001	286.685676164102	0
2	2005	286.763044094902	1
2	2008	287.393574777214	0
2	2014	287.508956504816	1
2	2015	288.059661569461	0
2	2022	288.62542864952	1
2	2023	289.310453585689	0
2	2027	289.544707829044	1
2	2028	289.821759687099	0
2	2034	290.217313157749	1
2	2035	290.235415976183	0
2	2039	290.588090336495	1
2	2042	291.136544707106	0
2	2046	291.324075502194	1
2	2048	291.958629263246	2
2	2049	292.113011917999	1
2	2053	292.326612657972	2
2	2054	292.999156880254	1
2	2057	293.415486225873	0
2	2061	294.202728074441	1
2	2062	294.218139222745	0
2	2066	294.31781908797	1
2	2068	294.48573152801	2
2	2069	294.667241608599	1
2	2073	294.944483898596	2
2	2074	295.356746312339	1
2	2078	295.472189055695	2
2	2079	296.09128957085	1
2	2083	296.137051568946	2
2	2084	296.764960904482	1
2	2088	296.923935543112	2
2	2091	297.722880210464	1
2	2095	298.133184761757	2
2	2097	298.134247569733	3
2	2098	298.53555571215	2
2	2101	299.111035925818	1
2	2104	299.72138037292	0
2	2111	300.678529421043	1
2	2113	300.818099187949	2
2	2114	301.400763217375	1
2	2117	301.916139609941	0
2	2121	301.983146372567	1
2	2122	302.374699214861	0
2	2126	302.381546271037	1
2	2132	303.126329747321	2
2	2133	303.270488406919	1
2	2136	303.675289858194	0
2	2140	303.792046138705	1
2	2142	304.068973191704	2
2	2143	304.416357269525	1
2	2147	304.607459383903	2
2	2148	304.995103483522	1
2	2151	305.456808765992	0
2	2158	306.062297897888	1
2	2160	306.07188317917	2
2	2162	306.699716156877	3
2	2163	306.887654315369	2
2	2166	307.691423172239	1
2	2170	307.856144472257	2
2	2173	308.683948973162	1
2	2176	309.199494443243	0
2	2183	310.429376166897	1
2	2184	310.769232284479	0
2	2196	312.654938804755	1
2	2199	313.427771767895	0
2	2208	314.150023086324	1
2	2209	314.936926761982	0
2	2216	316.139823406456	1
2	2217	316.392975315931	0
2	2226	317.635934834707	1
2	2227	317.759389386712	0
2	2238	319.206086560129	1
2	2239	319.384651768919	0
2	2248	320.065671256555	1
2	2249	320.398729218975	0
2	2258	321.096951440034	1
2	2259	321.810721147074	0
2	2266	322.458430344279	1
2	2268	322.815543122313	2
2	2269	323.197367676175	1
2	2272	323.70281848527	0
2	2278	323.824440071165	1
2	2281	324.365998726305	0
2	2285	324.806105511534	1
2	2286	324.938653331543	0
2	2293	325.804973203471	1
2	2294	326.499359304705	0
2	2304	328.458547149645	1
2	2305	328.724481516578	0
2	2314	329.594078918842	1
2	2319	330.484979858357	0
2	2328	331.430851863384	1
2	2329	331.862702404257	0
2	2338	332.873172325284	1
2	2339	333.233944883212	0
2	2379	339.960614180535	1
2	2380	339.964231172359	0
2	2392	341.123087101932	1
2	2393	341.692503041417	0
2	2406	342.866575676367	1
2	2407	343.345052773801	0
2	2416	344.022123520565	1
2	2417	344.303480834158	0
2	2424	345.165664271069	1
2	2425	345.904449180577	0
2	2552	363.925007656646	1
2	2553	363.933889931364	0
2	2564	365.447332247591	1
2	2565	365.453325473581	0
2	2569	365.642904570231	1
2	2570	366.035271601489	0
2	2574	366.19676887246	1
2	2577	366.491275200078	0
2	2581	366.795424712625	1
2	2582	367.1545740741	0
2	2589	368.169809915865	1
2	2591	368.215817860158	2
2	2592	368.460268633177	1
2	2597	369.106761847639	0
2	2601	369.494530466535	1
2	2604	370.024709159385	0
2	2611	370.746250298257	1
2	2612	371.18925480928	0
2	2618	371.611830398522	1
2	2619	372.14897496185	0
2	2623	372.171590481373	1
2	2624	372.612669055925	0
2	2628	372.733017541305	1
2	2631	373.598806534305	0
2	2635	373.72041695263	1
2	2636	374.022345131652	0
2	2640	374.193852825322	1
2	2641	374.693654281662	0
2	2645	374.854465103057	1
2	2646	375.558961392443	0
2	2650	375.967949202722	1
2	2651	376.442798212699	0
2	2655	376.576303236968	1
2	2656	377.22111740696	0
2	2660	377.798845622459	1
2	2661	377.888301200902	0
2	2667	377.937220033481	1
2	2668	378.457599918282	0
2	2672	378.611162879518	1
2	2673	379.264337305369	0
2	2677	379.292273877111	1
2	2680	379.973936279461	0
2	2684	380.14440741402	1
2	2687	380.655500573589	0
2	2694	381.543319144222	1
2	2696	382.203509126236	2
2	2697	382.208973972936	1
2	2702	383.061632504052	0
2	2706	383.548734303019	1
2	2707	384.017662355554	0
2	2714	384.791437812944	1
2	2715	385.715760314249	0
2	2724	386.617862791396	1
2	2725	386.796842163632	0
2	2734	387.461456909769	1
2	2735	387.71558961572	0
2	2748	389.401577100968	1
2	2751	390.171491091809	0
2	2762	391.448931986773	1
2	2765	392.000101039716	0
2	2776	392.906678162389	1
2	2777	393.119737998041	0
2	2809	397.29243411039	1
2	2810	397.98179053475	0
2	2819	398.706369670324	1
2	2821	398.818421961188	2
2	2822	398.937339451601	1
2	2825	399.581821046042	0
2	2831	400.117410730588	1
2	2832	400.354962160083	0
2	2836	400.458557162311	1
2	2837	401.092953666084	0
2	2846	401.896089345267	1
2	2850	402.088857974707	2
2	2853	402.535688498214	1
2	2859	403.147836473842	2
2	2860	403.207216211099	1
2	2864	403.231325366539	2
2	2867	403.910819875419	1
2	2871	404.064851105245	2
2	2872	404.475440455804	1
2	2875	404.913800339325	0
2	2879	405.355656459188	1
2	2880	405.557470979186	0
2	2887	406.501642429296	1
2	2889	406.742349353924	2
2	2890	406.78235827565	1
2	2895	407.192445244005	0
2	2899	407.916946470267	1
2	2901	408.017800414771	2
2	2902	408.187398944626	1
2	2905	408.63586901605	0
2	2909	408.712161816573	1
2	2910	409.561852850317	0
2	2917	410.670513950233	1
2	2920	411.49173430155	0
2	2927	412.243833862292	1
2	2928	412.742143954354	0
2	3140	444.202951275001	1
2	3141	444.677338573776	0
2	3150	445.835300335273	1
2	3151	446.142516685344	0
2	3158	446.666077259467	1
2	3159	447.177133595172	0
2	3163	447.781873658981	1
2	3164	447.950772237193	0
2	3168	448.040312746147	1
2	3173	448.920991710873	0
2	3177	449.045470081141	1
2	3186	449.6949838503	0
2	3190	449.771596526371	1
2	3191	450.164467573279	0
2	3195	450.250774037359	1
2	3198	451.086861274691	0
2	3202	451.099076983993	1
2	3203	451.869651988402	0
2	3207	451.988876668978	1
2	3208	452.610464111829	0
2	3212	452.821499998766	1
2	3214	453.061572867926	2
2	3215	453.433532344617	1
2	3218	454.158612681434	0
2	3225	455.040366811497	1
2	3226	455.268449235124	0
2	3230	455.326449728103	1
2	3232	455.642900822602	2
2	3233	455.862512513831	1
2	3237	456.414397621675	2
2	3238	456.618633759556	1
2	3242	456.686308200728	2
2	3247	457.539111941842	1
2	3251	458.415592781336	2
2	3252	458.446478293579	1
2	3256	458.773587344161	2
2	3258	458.982127517016	3
2	3259	459.409297021734	2
2	3263	459.431331824914	3
2	3264	460.381046034884	2
2	3268	460.547248650368	3
2	3269	461.365795100736	2
2	3273	461.605726381427	3
2	3276	462.170827490394	2
2	3280	462.416149983266	3
2	3281	463.025547843822	2
2	3285	463.084461112713	3
2	3286	463.771099490928	2
2	3289	464.440324279549	1
2	3293	465.132761524423	2
2	3294	465.339167927927	1
2	3297	465.80568990095	0
2	3301	466.156691709737	1
2	3303	466.313423662989	2
2	3305	466.494604625185	3
2	3306	466.735861936141	2
2	3310	467.079781413381	3
2	3311	467.264245851081	2
2	3315	467.616431650801	3
2	3316	468.10973957118	2
2	3320	468.582044178263	3
2	3321	469.036824312968	2
2	3325	469.44128656805	3
2	3326	469.667323308879	2
2	3329	470.281003098258	1
2	3333	470.508332447452	2
2	3335	470.589172005074	3
2	3336	470.978312623988	2
2	3340	471.254575250791	3
2	3341	471.670708218332	2
2	3349	472.103303349817	3
2	3350	472.242884631244	2
2	3355	473.240286897424	1
2	3359	473.397696901105	2
2	3360	473.776125618372	1
2	3364	473.88920940324	2
2	3365	474.550335595919	1
2	3369	474.853119846146	2
2	3372	475.416916060005	1
2	3376	475.761932479215	2
2	3380	475.943458965586	3
2	3381	476.06761126474	2
2	3385	476.262207695317	3
2	3386	476.798124231654	2
2	3390	477.137090824634	3
2	3391	477.416825724975	2
2	3394	478.308215830498	1
2	3397	478.852242651325	0
2	3401	479.020175377292	1
2	3403	479.188951313598	2
2	3405	479.239900170752	3
2	3406	479.274887574347	2
2	3410	479.587399562209	3
2	3412	479.661331352113	4
2	3413	480.120097525813	3
2	3417	480.780558906886	4
2	3418	480.805454015196	3
2	3421	481.632297089207	2
2	3425	481.860285757925	3
2	3428	482.539837464341	2
2	3431	483.11721450577	1
2	3435	483.754130452542	2
2	3438	483.930065926839	1
2	3441	484.526364994677	0
2	3445	484.63900952732	1
2	3447	484.863657350398	2
2	3448	485.22140560781	1
2	3452	485.288697754933	2
2	3453	486.041506694093	1
2	3457	486.162099931688	2
2	3458	486.769940618634	1
2	3462	486.880305097194	2
2	3463	487.381362447211	1
2	3467	487.421708712208	2
2	3468	488.235463326446	1
2	3472	488.512457607491	2
2	3473	489.067871068719	1
2	3477	489.343295264653	2
2	3478	490.067862346091	1
2	3482	490.180415344143	2
2	3483	490.824976605664	1
2	3487	491.037975239592	2
2	3488	491.454134175482	1
2	3492	491.82464237702	2
2	3493	491.98319003044	1
2	3497	492.078521159993	2
2	3498	492.885842602675	1
2	3502	493.473081207342	2
2	3503	493.794688265187	1
2	3506	494.196555142732	0
2	3513	495.314808162376	1
2	3515	495.626986842568	2
2	3516	495.781031250324	1
2	3520	496.652293746865	2
2	3521	496.686497686546	1
2	3525	496.805905433952	2
2	3526	497.183935186661	1
2	3532	497.312318825022	2
2	3533	498.150830395867	1
2	3537	498.869224763159	2
2	3538	498.909966683688	1
2	3541	499.646224210013	0
2	3548	500.341308648373	1
2	3549	500.646048234145	0
2	3553	500.840539160945	1
2	3555	501.138256149384	2
2	3556	501.576536360404	1
2	3562	501.92990741638	2
2	3565	502.20243643557	1
2	3569	502.495533372757	2
2	3570	502.737578659899	1
2	3574	502.745507142241	2
2	3575	503.179949706396	1
2	3579	503.348699781747	2
2	3580	503.780734624643	1
2	3584	504.398816972538	2
2	3585	504.567252992535	1
2	3588	505.409610500488	0
2	3592	505.607802792776	1
2	3593	506.387188097577	0
2	3597	506.479593656781	1
2	3598	507.27298963873	0
2	3605	507.760030736968	1
2	3606	508.655883006121	0
2	3613	509.472269885807	1
2	3614	509.576952348066	0
2	3623	510.594466030623	1
2	3624	510.871907055027	0
2	3635	511.689276157662	1
2	3636	512.541079999901	0
2	3643	513.304214097794	1
2	3644	513.506159753095	0
2	3655	514.532626932471	1
2	3656	515.438225435255	0
2	3670	517.032963102553	1
2	3673	517.306661111605	0
2	3679	518.042977881192	1
2	3680	518.293150521512	0
2	3692	520.329442395414	1
2	3694	520.414512817299	2
2	3695	520.504908109667	1
2	3698	521.374216962863	0
2	3702	521.609003510377	1
2	3703	522.02227170535	0
2	3715	523.761805290912	1
2	3716	524.449509170349	0
2	3725	525.852875496799	1
2	3726	526.110507352627	0
2	3733	526.877879081054	1
2	3738	527.642785147321	0
2	3747	528.615066042831	1
2	3748	529.234376088274	0
2	3752	529.358646347199	1
2	3755	530.075632536295	0
2	3759	530.599506407934	1
2	3760	530.641551708733	0
2	3767	531.819702574746	1
2	3768	531.927429191186	0
2	3782	533.533610510031	1
2	3784	533.607862149881	2
2	3786	533.733918986004	3
2	3787	533.977427106653	2
2	3790	534.443313907575	1
2	3794	534.578191255185	2
2	3795	534.844808969064	1
2	3801	535.287505068795	2
2	3802	535.622672351379	1
2	3805	536.298984172544	0
2	3809	536.556480316994	1
2	3810	537.060134114115	0
2	3814	537.372277745528	1
2	3817	537.761726768757	0
2	3821	538.332293476653	1
2	3822	538.587623874587	0
2	3826	538.652466200744	1
2	3829	539.390509354719	0
2	3836	540.056533183095	1
2	3837	540.683877085359	0
2	3844	541.661517409973	1
2	3848	541.958777135085	2
2	3849	542.018362494162	1
2	3856	542.453616091306	0
2	3860	542.529653164244	1
2	3861	543.1761002518	0
2	3865	543.627588649734	1
2	3866	543.850640316191	0
2	3870	544.126318817642	1
2	3871	544.402392239985	0
2	3875	544.466320034525	1
2	3876	544.963449771958	0
2	3880	545.65200876723	1
2	3881	545.771141922776	0
2	3885	546.036377389069	1
2	3887	546.177716267225	2
2	3888	546.713011525082	1
2	3891	547.276552807609	0
2	3895	547.445342849153	1
2	3897	547.774005935928	2
2	3898	547.790550831402	1
2	3902	547.926212713322	2
2	3903	548.226234089932	1
2	3907	548.719779714376	2
2	3908	548.826196839171	1
2	3911	549.62371776828	0
2	3915	550.203405704978	1
2	3916	550.209308699029	0
2	3923	551.59756250062	1
2	3924	551.710752490139	0
2	3933	552.577757775627	1
2	3934	552.848206674656	0
2	3938	552.857869391449	1
2	3942	552.99557841536	2
2	3944	553.345301103227	3
2	3945	553.735974470176	2
2	3949	554.254816372493	3
2	3950	554.717119594686	2
2	3953	555.60812050735	1
2	3958	556.280583036853	0
2	3970	557.94600828611	1
2	3972	558.00785525594	2
2	3974	558.102258908292	3
2	3975	558.105994131671	2
2	3982	558.936399573901	1
2	3987	559.570096637191	0
2	3993	560.300007679739	1
2	3994	560.545147418346	0
2	3998	560.868096563882	1
2	4001	561.251148820365	0
2	4005	561.267415932526	1
2	4006	561.870876113348	0
2	4010	562.369305735447	1
2	4011	562.495188604085	0
2	4015	562.923710329482	1
2	4016	563.227156120235	0
2	4020	563.346865573053	1
2	4021	563.936752938501	0
2	4025	564.060218292303	1
2	4027	564.138336036499	2
2	4028	564.656555439833	1
2	4032	564.671908970664	2
2	4033	565.219814932694	1
2	4036	565.665010433154	0
2	4043	566.56488143184	1
2	4044	567.095709667051	0
2	4048	567.266670339272	1
2	4051	568.046815757708	0
2	4055	568.119333100298	1
2	4057	568.170257003524	2
2	4058	568.688975121149	1
2	4062	568.846524516761	2
2	4063	569.548137310774	1
2	4067	570.054666908947	2
2	4068	570.139968587154	1
2	4072	570.539634421944	2
2	4073	570.873210628678	1
2	4077	571.197870353205	2
2	4080	571.766338770159	1
2	4084	571.787860803477	2
2	4085	572.575452736227	1
2	4089	572.628150723759	2
2	4090	573.434709860126	1
2	4095	574.002138989952	0
2	4099	574.22298452288	1
2	4101	574.469150688433	2
2	4102	574.960569764276	1
2	4106	575.576605130766	2
2	4107	575.693614889889	1
2	4110	576.123705672634	0
2	4117	576.859168291622	1
2	4122	577.510667033562	0
2	4129	577.966868983372	1
2	4132	578.339875288656	0
2	4203	589.701155894804	1
2	4204	589.702619978994	0
2	4217	591.288686795094	1
2	4218	591.418893331963	0
2	4222	591.563459015873	1
2	4223	591.945410960283	0
2	4229	592.040162110533	1
2	4234	592.483880244031	0
2	4240	593.335518266576	1
2	4241	593.335798024315	0
2	4245	593.782892512842	1
2	4246	593.909889190806	0
2	4250	594.190620135304	1
2	4251	594.86390224269	0
2	4255	595.240549558611	1
2	4256	595.692535673057	0
2	4260	595.710831518418	1
2	4261	596.227539549743	0
2	4268	597.198978503599	1
2	4269	597.319947390187	0
2	4278	598.111144370965	1
2	4279	598.564532011862	0
2	4290	599.771296635488	1
2	4291	599.973188784461	0
2	4305	601.445782876764	1
2	4306	602.227984745031	0
2	4313	602.969198044075	1
2	4314	603.188319546425	0
2	4329	605.605126954099	1
2	4330	605.982566571443	0
2	4343	606.62682662275	1
2	4344	607.132435987631	0
2	4353	607.827997543915	1
2	4354	608.491679829333	0
2	4371	610.709855958773	1
2	4372	610.959485181628	0
2	4386	612.059185045208	1
2	4387	612.489929483013	0
2	4396	613.058302295828	1
2	4399	613.700093261359	0
2	4410	614.756221908412	1
2	4413	615.188122633539	0
2	4431	617.418834089798	1
2	4433	617.560489606656	2
2	4434	618.298044680918	1
2	4439	619.175248024028	0
2	4448	620.19536164155	1
2	4450	620.540998805028	2
2	4451	620.696166856049	1
2	4458	621.340556090439	0
2	4464	621.973062986779	1
2	4465	622.012829224274	0
2	4469	622.317935211556	1
2	4470	622.454514516678	0
2	4474	622.788216908071	1
2	4475	623.333320719537	0
2	4479	623.806820109707	1
2	4480	623.897020939572	0
2	4484	624.796759292893	1
2	4485	624.873529496018	0
2	4489	625.231307328386	1
2	4490	625.334526073488	0
2	4497	626.269396841687	1
2	4498	626.887343419737	0
2	4505	627.705692897801	1
2	4506	628.163410081782	0
2	4742	662.456539404274	1
2	4743	662.870027030883	0
2	4805	671.983862748298	1
2	4810	672.641785527223	0
2	4819	673.129348528957	1
2	4820	673.594654814729	0
2	4829	674.380172573538	1
2	4830	674.955739182111	0
2	4840	675.312494563051	1
2	4841	675.786172238382	0
2	4854	676.840368848803	1
2	4856	676.860435437555	2
2	4858	677.016993602898	3
2	4861	677.113759038009	2
2	4866	678.103363537526	1
2	4870	678.339357341419	2
2	4871	678.725610311998	1
2	4875	678.876363390741	2
2	4876	679.672464624297	1
2	4880	680.090392222079	2
2	4881	680.310285265993	1
2	4885	680.484159269844	2
2	4886	681.295796727964	1
2	4890	681.668166642123	2
2	4891	681.994593385064	1
2	4895	682.046455491512	2
2	4896	682.886007308324	1
2	4900	683.248711461711	2
2	4901	683.532291084032	1
2	4905	683.577101893146	2
2	4906	684.466440908953	1
2	4910	684.547659483434	2
2	4911	685.405339432943	1
2	4915	685.869615189516	2
2	4916	686.060619006881	1
2	4920	686.315531544471	2
2	4921	686.629669030819	1
2	4925	686.714619433343	2
2	4926	687.17582600449	1
2	4930	687.308632359317	2
2	4931	688.007794541463	1
2	4937	688.676002540465	2
2	4938	688.888471100636	1
2	4942	689.221857732586	2
2	4943	689.84257617045	1
2	4946	690.277366796665	0
2	4950	690.792822114587	1
2	4951	691.202910317125	0
2	4955	691.393611010815	1
2	4956	692.024361111101	0
2	4963	692.527794744008	1
2	4964	693.251792835694	0
2	4968	693.485547398806	1
2	4969	694.073160996817	0
2	4983	695.587827749637	1
2	4985	695.883737146598	2
2	4986	695.963450709002	1
2	4989	696.683855194708	0
2	4993	696.822491765815	1
2	4996	697.649256491165	0
2	5000	698.443361818132	1
2	5001	698.577997838303	0
2	5008	699.402238789557	1
2	5009	699.885455531271	0
2	5019	701.185098819818	1
2	5020	701.539816284988	0
2	5024	702.073040580618	1
2	5025	702.275145544454	0
2	5029	702.404803650544	1
2	5030	703.167888473782	0
2	5036	703.328014042463	1
2	5039	703.873747949085	0
2	5052	705.246831909746	1
2	5053	705.261921583551	0
2	5064	706.166688151485	1
2	5065	706.409030677813	0
2	5074	707.312108254967	1
2	5075	707.563705154943	0
2	5081	707.956863042255	1
2	5082	708.127924273458	0
2	5086	708.67746121675	1
2	5087	709.028125424419	0
2	5091	709.039953561808	1
2	5092	709.479459792205	0
2	5096	709.768628869354	1
2	5097	710.064220106664	0
2	5104	711.48777882504	1
2	5105	711.829588976798	0
2	5109	712.298260706041	1
2	5112	712.380457521619	0
2	5116	712.519426526988	1
2	5117	713.245255218882	0
2	5123	713.304721663888	1
2	5124	713.754963328054	0
2	5135	714.88630297749	1
2	5136	715.058705121761	0
2	5145	716.301915489447	1
2	5146	716.451890356902	0
2	5158	717.553682470968	1
2	5161	718.232833749119	0
2	5360	749.986130371214	1
2	5361	750.173767727958	0
2	5370	750.894220614762	1
2	5371	751.315710644862	0
2	5382	752.883949309593	1
2	5383	752.908726908332	0
2	5399	754.13591028689	1
2	5402	755.018203163678	0
2	5413	756.287681311379	1
2	5414	756.505789497793	0
2	5421	757.107191339279	1
2	5426	757.960444075865	0
2	5432	758.2807953076	1
2	5433	758.378279971489	0
2	5437	758.55432919589	1
2	5438	758.783761503007	0
2	5447	759.452204858024	1
2	5450	759.723212284567	0
2	5454	760.369208224669	1
2	5455	760.641630652566	0
2	5464	761.120727287064	1
2	5468	761.486522353764	2
2	5471	761.882022450278	1
2	5476	762.768108926546	0
2	5480	762.937086062969	1
2	5481	763.694182242239	0
2	5485	763.931131341058	1
2	5486	764.412816928765	0
2	5490	764.56478022435	1
2	5491	764.976156453435	0
2	5495	764.986475407022	1
2	5496	765.661876961608	0
2	5500	766.154104162125	1
2	5501	766.644702892118	0
2	5505	766.755158017221	1
2	5506	767.15258054074	0
2	5516	768.39114739773	1
2	5518	768.583620242843	2
2	5519	769.083787529283	1
2	5522	770.013641180816	0
2	5528	770.701848949654	1
2	5529	770.767977744453	0
2	5533	771.149471610232	1
2	5534	771.698827450788	0
2	5543	772.962148161071	1
2	5544	773.279801681936	0
2	5548	773.544056241098	1
2	5551	774.224437069772	0
2	5555	774.258114019008	1
2	5557	774.418992143099	2
2	5558	775.171654688399	1
2	5564	775.586021010075	2
2	5565	775.96136026687	1
2	5569	776.515102959432	2
2	5570	776.930197945954	1
2	5573	777.82180635577	0
2	5577	778.532994593774	1
2	5578	778.641146263405	0
2	5582	779.034589053694	1
2	5584	779.052987762181	2
2	5585	779.156022177282	1
2	5589	779.327764309233	2
2	5590	779.870455023292	1
2	5593	780.839461838007	0
2	5597	781.467814686436	1
2	5599	781.508293015224	2
2	5600	781.55746104775	1
2	5604	782.06956158468	2
2	5605	782.257878342196	1
2	5609	782.625236759887	2
2	5610	783.231149911154	1
2	5614	783.842819234884	2
2	5617	784.01112859833	1
2	5621	784.075049638935	2
2	5622	784.814789296658	1
2	5626	785.21610391856	2
2	5627	785.261397897703	1
2	5630	786.025532697439	0
2	5637	786.939184373739	1
2	5639	787.066891611077	2
2	5640	787.420615511639	1
2	5644	787.928758537419	2
2	5645	788.036579063972	1
2	5649	788.355220869598	2
2	5650	788.636634535081	1
2	5654	788.875507601839	2
2	5656	789.075325679895	3
2	5657	789.635525727476	2
2	5660	790.206723361946	1
2	5664	790.861829582503	2
2	5665	790.888336646063	1
2	5668	791.599985177507	0
2	5672	791.88907601589	1
2	5674	791.922452361145	2
2	5675	792.025844638068	1
2	5679	792.173486553831	2
2	5680	792.647260529008	1
2	5684	792.754151734305	2
2	5685	793.587892650459	1
2	5688	794.032856915724	0
2	5692	794.073886623883	1
2	5693	794.798772307039	0
2	5697	794.897354923775	1
2	5699	794.976557608513	2
2	5700	795.294742900059	1
2	5704	795.500210300055	2
2	5705	795.804114091369	1
2	5709	796.161861552859	2
2	5710	796.679022368529	1
2	5714	796.989973078144	2
2	5715	797.141099918979	1
2	5718	797.966129029282	0
2	5722	798.150491434745	1
2	5723	798.75967008031	0
2	5727	799.010444194879	1
2	5728	799.460557002314	0
2	5732	799.722014623966	1
2	5733	800.096731372011	0
2	5737	800.279620650814	1
2	5738	800.755094872062	0
2	5764	805.06723761509	1
2	5765	805.614380458157	0
2	5776	806.335929406557	1
2	5779	806.752700189288	0
2	5788	807.496415142671	1
2	5791	808.106829518566	0
2	5795	808.607078989298	1
2	5796	808.916194770459	0
2	5800	809.032478709106	1
2	5801	809.544837837966	0
2	5810	810.453773488363	1
2	5811	810.85591804336	0
2	5818	811.471021217261	1
2	5821	812.163458754609	0
2	5858	817.685215976616	1
2	5859	817.934300786836	0
2	5866	819.418074003837	1
2	5867	819.529412501792	0
2	5874	820.42113289914	1
2	5875	820.838569653428	0
2	5884	822.15887441692	1
2	5889	822.245944726022	0
2	5893	822.524420026063	1
2	5894	822.720642454058	0
2	5898	823.030580430004	1
2	5901	823.151725069501	0
2	5905	823.375669666624	1
2	5906	823.554616969426	0
2	5912	823.670933024703	1
2	5915	824.108471616844	0
2	5919	824.112400009504	1
2	5920	824.67194643493	0
2	5924	824.841270305074	1
2	5927	825.18594471032	0
2	5933	825.448336039454	1
2	5934	825.778477617094	0
2	5943	826.983361552218	1
2	5945	827.190667589925	2
2	5947	827.432980634306	3
2	5948	827.437624891169	2
2	5953	828.017497358026	1
2	5956	828.485436042	0
2	5960	829.034774326169	1
2	5962	829.234732995256	2
2	5963	829.36815940521	1
2	5967	829.610493407863	2
2	5968	830.124063720436	1
2	5972	830.490592733718	2
2	5973	830.739887795246	1
2	5977	831.207998985518	2
2	5978	831.540926587743	1
2	5981	832.15547534928	0
2	5985	832.155631709017	1
2	5987	832.178248981247	2
2	5988	833.076412495946	1
2	5992	833.679969645882	2
2	5993	833.924300680192	1
2	5997	834.299250219903	2
2	5998	834.535521771548	1
2	6002	834.951970142421	2
2	6003	835.405480241658	1
2	6006	835.956077867862	0
2	6010	836.407712907606	1
2	6011	836.493269151798	0
2	6015	836.595241069787	1
2	6017	837.227755316659	2
2	6018	837.366927692922	1
2	6023	838.221054819109	0
2	6030	839.387310791609	1
2	6031	839.628524299454	0
2	6107	851.656048757674	1
2	6108	851.819382189052	0
2	6120	853.264333892295	1
2	6121	853.980124980374	0
2	6128	854.986452669442	1
2	6131	855.404295027558	0
2	6175	860.619630197282	1
2	6176	860.816706419061	0
2	6194	862.510616256355	1
2	6195	862.950105730933	0
2	6204	863.956569546162	1
2	6205	864.56928153967	0
2	6293	877.934644309262	1
2	6295	878.169081681576	2
2	6296	878.238340706122	1
2	6299	878.687425386603	0
2	6303	878.813002677471	1
2	6304	879.368050000514	0
2	6313	880.009619327302	1
2	6315	880.274347969846	2
2	6318	880.663712507928	1
2	6323	881.563973344466	0
2	6327	881.905627030101	1
2	6330	882.361877180286	0
2	6334	882.368076327809	1
2	6336	882.662158248358	2
2	6337	883.027517379005	1
2	6341	883.126328415583	2
2	6344	883.876232633576	1
2	6348	884.567395888292	2
2	6349	884.744086899817	1
2	6353	885.089167400643	2
2	6354	885.504068183782	1
2	6358	885.591576491078	2
2	6359	886.197239341516	1
2	6363	886.481717878538	2
2	6364	886.915999731723	1
2	6367	887.360225065447	0
2	6374	888.138987889412	1
2	6376	888.392179026389	2
2	6377	888.511033574281	1
2	6382	888.982773233833	0
2	6386	889.278435793161	1
2	6387	889.801209301431	0
2	6391	890.074171509255	1
2	6392	890.432126672356	0
2	6399	891.154759732807	1
2	6403	891.32600103494	2
2	6404	891.522034148196	1
2	6408	891.533576746609	2
2	6411	892.051505210646	1
2	6414	892.546647563786	0
2	6418	892.619750810945	1
2	6419	893.008699597348	0
2	6423	893.27219525676	1
2	6424	893.723425295599	0
2	6428	893.933581226088	1
2	6429	894.469845921988	0
2	6433	894.514471619092	1
2	6434	895.13433002911	0
2	6441	895.827318489261	1
2	6443	895.891182180264	2
2	6444	896.431089598569	1
2	6449	897.119689671579	0
2	6453	897.18448462314	1
2	6454	898.064258837351	0
2	6461	899.219465500767	1
2	6462	899.478665615223	0
2	6471	900.635181096959	1
2	6472	901.053878832446	0
2	6479	901.807080956179	1
2	6482	902.774306730344	0
2	6486	902.941765062825	1
2	6487	903.346970163123	0
2	6493	903.548992191876	1
2	6494	904.153668615991	0
2	6501	904.93918789448	1
2	6503	905.100507751276	2
2	6504	905.14761147427	1
2	6507	905.645462719934	0
2	6513	906.3806021889	1
2	6514	906.404226665735	0
2	6521	907.690317222684	1
2	6523	907.73127232802	2
2	6524	908.022249542573	1
2	6527	908.443133404409	0
2	6533	908.843008756517	1
2	6536	909.102128971904	0
2	6540	909.399086223312	1
2	6541	909.873428963474	0
2	6545	910.011783784006	1
2	6546	910.408818720211	0
2	6550	910.698137653792	1
2	6551	910.831589023233	0
2	6555	911.292991744671	1
2	6556	911.700970948883	0
2	6560	911.781942953827	1
2	6561	912.350994297838	0
2	6568	912.898504339569	1
2	6569	913.519483940372	0
2	6573	913.542498831151	1
2	6574	914.103198877698	0
2	6580	914.298679870088	1
2	6581	914.946796743594	0
2	6585	915.082400180216	1
2	6588	915.840955726173	0
2	6592	916.408288176167	1
2	6593	916.505521767376	0
2	6597	916.562143485742	1
2	6598	917.127478097448	0
2	6618	920.113583192667	1
2	6619	920.384361293375	0
2	6644	923.591650735221	1
2	6647	923.902491018803	0
2	6654	924.826425877911	1
2	6655	925.441154893183	0
2	6662	926.251001133122	1
2	6665	926.789401537248	0
2	6674	927.23845791035	1
2	6677	928.135123209956	0
2	6727	934.07675684059	1
2	6728	934.561874987439	0
2	6986	971.541980807382	1
2	6987	972.421122345863	0
2	7003	974.097179440381	1
2	7006	974.247043820634	0
2	7017	975.522068514486	1
2	7018	975.563439097838	0
2	7025	976.367731518589	1
2	7028	976.638069129247	0
2	7071	982.277933345836	1
2	7072	982.303677904536	0
2	7081	983.13699859481	1
2	7082	983.985235416027	0
2	7111	988.370319350185	1
2	7112	988.38735095344	0
2	7119	989.03595039855	1
2	7122	989.592109472933	0
2	7287	1011.643642603165	1
2	7288	1012.041928241098	0
2	7301	1013.128621565498	1
2	7302	1013.218286907648	0
2	7308	1013.668609141779	1
2	7309	1014.203087597222	0
2	7313	1014.231212177594	1
2	7314	1015.11679821594	0
2	7318	1015.47741756952	1
2	7319	1015.680482184024	0
2	7323	1015.968800886776	1
2	7325	1016.188941339007	2
2	7326	1016.358270180014	1
2	7330	1016.358866988861	2
2	7333	1017.107234212778	1
2	7337	1017.151445502816	2
2	7339	1017.670423691393	3
2	7340	1017.72794078572	2
2	7344	1018.268674579321	3
2	7345	1018.301091991759	2
2	7349	1018.348043027447	3
2	7350	1019.083024785829	2
2	7354	1019.3735441005	3
2	7355	1020.062378689389	2
2	7361	1020.470305828218	3
2	7362	1021.000807848036	2
2	7366	1021.270650350798	3
2	7367	1021.41329952015	2
2	7371	1021.911665786031	3
2	7373	1022.062136953563	4
2	7374	1022.272922803996	3
2	7378	1022.569666412129	4
2	7379	1022.762858695652	3
2	7383	1022.801474518187	4
2	7384	1023.657133975321	3
2	7388	1024.142655011294	4
2	7389	1024.394309067469	3
2	7395	1024.496958317648	4
2	7396	1025.239414264144	3
2	7400	1025.321551368251	4
2	7401	1025.841758139267	3
2	7405	1026.231799453963	4
2	7406	1026.588593893799	3
2	7409	1027.319332386156	2
2	7413	1027.424908671945	3
2	7415	1027.521341263946	4
2	7416	1027.967635242616	3
2	7419	1028.471967259304	2
2	7423	1028.686320155678	3
2	7424	1029.03279735071	2
2	7428	1029.205577358166	3
2	7429	1029.720929928099	2
2	7433	1029.868992278354	3
2	7434	1030.426050709349	2
2	7437	1031.293156762768	1
2	7440	1031.766613132341	0
2	7444	1032.038502128083	1
2	7446	1032.088361524856	2
2	7447	1032.63764819924	1
2	7451	1032.830914837453	2
2	7452	1033.087375435999	1
2	7456	1033.290412987161	2
2	7457	1033.905493178612	1
2	7461	1034.103284558597	2
2	7462	1034.701799185502	1
2	7467	1035.310693426451	0
2	7471	1035.431638706528	1
2	7472	1036.264157074478	0
2	7476	1036.274661667543	1
2	7478	1037.124475702803	2
2	7479	1037.155923766478	1
2	7483	1037.331815061126	2
2	7484	1038.056155509849	1
2	7487	1038.999104497463	0
2	7497	1040.061055503601	1
2	7501	1040.3248466081	2
2	7503	1040.724009627141	3
2	7504	1040.827995830284	2
2	7509	1041.266843365388	1
2	7512	1042.144148312951	0
2	7516	1042.276386598762	1
2	7518	1042.35920105201	2
2	7519	1042.693044361542	1
2	7522	1043.395967926621	0
2	7526	1043.513551718292	1
2	7528	1043.797098751628	2
2	7529	1044.113523473149	1
2	7532	1045.018848637981	0
2	7539	1046.429388134907	1
2	7541	1046.760615200178	2
2	7542	1046.817760876822	1
2	7548	1047.167322577228	2
2	7549	1047.701214446849	1
2	7553	1047.758142868207	2
2	7554	1048.389715530281	1
2	7558	1048.703174941417	2
2	7559	1049.344407477765	1
2	7563	1049.41332881197	2
2	7564	1049.879932091781	1
2	7568	1050.119363219259	2
2	7569	1050.767512061284	1
2	7573	1050.921227890488	2
2	7576	1051.756084803562	1
2	7580	1052.186873488814	2
2	7581	1052.57235435287	1
2	7585	1053.245431020676	2
2	7586	1053.311211223598	1
2	7590	1053.745753085014	2
2	7591	1054.299832705106	1
2	7595	1054.700954778254	2
2	7596	1055.081972454512	1
2	7600	1055.259978625361	2
2	7601	1055.687789525581	1
2	7606	1056.661611635122	0
2	7610	1057.25355112396	1
2	7611	1057.573228127254	0
2	7615	1057.611050805618	1
2	7616	1058.553982065549	0
2	7626	1060.183822156569	1
2	7627	1060.478832323361	0
2	7631	1060.651738000593	1
2	7632	1061.050321984874	0
2	7648	1062.905834218659	1
2	7649	1063.195995915986	0
2	7658	1064.006906360253	1
2	7659	1064.744464731847	0
2	7670	1065.585762494169	1
2	7671	1066.089147199855	0
2	7681	1067.565538425584	1
2	7682	1067.940961669923	0
2	7710	1073.268584061655	1
2	7711	1073.904702722259	0
2	7730	1075.78607674378	1
2	7732	1076.033016255157	2
2	7739	1076.283286385728	1
2	7742	1077.186994115101	0
2	7748	1077.740622927588	1
2	7749	1078.134307712247	0
2	7755	1078.346599192719	1
2	7758	1078.624583223532	0
2	7765	1079.606430213711	1
2	7767	1079.681633678114	2
2	7769	1079.805470955345	3
2	7770	1080.03981484801	2
2	7774	1080.612554183884	3
2	7775	1080.972122291498	2
2	7781	1081.522661277996	3
2	7782	1081.876387437409	2
2	7788	1082.19626544446	3
2	7789	1082.487687498307	2
2	7793	1082.586906464447	3
2	7794	1083.381364725413	2
2	7798	1083.451853687505	3
2	7799	1084.076564939343	2
2	7802	1084.684239009046	1
2	7806	1085.529396984596	2
2	7807	1085.529461245867	1
2	7811	1085.587757607375	2
2	7812	1086.115105519606	1
2	7816	1086.528027788195	2
2	7817	1086.67129214548	1
2	7821	1087.106295820866	2
2	7822	1087.306593960872	1
2	7826	1087.369736454473	2
2	7827	1088.050145339849	1
2	7831	1088.139658959931	2
2	7832	1089.047478259471	1
2	7836	1089.361158248586	2
2	7837	1089.462485876889	1
2	7841	1089.561947483259	2
2	7842	1090.458366413019	1
2	7846	1091.204821920224	2
2	7847	1091.324867374753	1
2	7853	1091.864454021916	2
2	7856	1092.151653761953	1
2	7859	1093.055708622677	0
2	7863	1093.236237835488	1
2	7864	1093.556084457902	0
2	7868	1093.662081316964	1
2	7869	1093.987285126723	0
2	7873	1094.257575054101	1
2	7874	1094.696366766678	0
2	7878	1095.13439903861	1
2	7879	1095.373901580019	0
2	7883	1095.383711115801	1
2	7884	1096.314798336454	0
2	7888	1096.517354036391	1
2	7889	1096.787513124828	0
2	7893	1097.217648485429	1
2	7894	1097.296574411194	0
2	7901	1098.585140386063	1
2	7903	1098.598344965516	2
2	7904	1098.72048060836	1
2	7909	1099.647603635189	0
2	7913	1100.243935472522	1
2	7914	1100.458899925302	0
2	7918	1100.519618000412	1
2	7919	1101.079966759009	0
2	7923	1101.800466894256	1
2	7924	1101.933423987709	0
2	7928	1101.975479844542	1
2	7929	1102.380597722789	0
2	7933	1102.976067607182	1
2	7934	1103.260208563626	0
2	7941	1104.061276671738	1
2	7943	1104.359773282757	2
2	7944	1104.367095735276	1
2	7947	1104.878446976727	0
2	7954	1106.046062324668	1
2	7955	1106.364850380112	0
2	7990	1112.4340176344	1
2	7993	1113.029744225255	0
2	8009	1114.487521368021	1
2	8012	1114.870709080509	0
2	8019	1115.378314069454	1
2	8020	1115.710472345798	0
2	8031	1116.54722881627	1
2	8034	1117.220313138682	0
2	8038	1117.56854289845	1
2	8039	1117.799309910256	0
2	8050	1118.374281155406	1
2	8051	1119.300797188635	0
2	8060	1120.90446865529	1
2	8061	1120.910003513404	0
2	8067	1121.052885158323	1
2	8068	1121.318075045039	0
2	8072	1121.70810478237	1
2	8073	1122.213327492707	0
2	8077	1122.419384868764	1
2	8078	1122.941916550629	0
2	8082	1123.23874412213	1
2	8083	1123.714659952305	0
2	8087	1124.113751994016	1
2	8088	1124.709352140061	0
2	8092	1124.891847321289	1
2	8093	1125.63600273866	0
2	8097	1125.707430433629	1
2	8098	1126.41838906843	0
2	8102	1126.544452082827	1
2	8103	1126.953079461798	0
2	8107	1127.116629381529	1
2	8108	1127.560268874492	0
2	8112	1127.818932284321	1
2	8115	1128.403013113399	0
2	8119	1128.524459416246	1
2	8120	1129.219868815622	0
2	8127	1130.446304028886	1
2	8128	1130.734511498014	0
2	8135	1131.674106224852	1
2	8138	1132.065042530258	0
2	8148	1133.080659537567	1
2	8153	1133.685809581239	0
2	8162	1134.934623841381	1
2	8163	1135.186848574342	0
2	8170	1136.061663160607	1
2	8173	1136.747322268482	0
2	8182	1138.003481010613	1
2	8183	1138.181857574382	0
2	8194	1139.106973129891	1
2	8195	1139.606904982194	0
2	8204	1140.487506401294	1
2	8206	1141.083208443664	2
2	8207	1141.182425122359	1
2	8210	1141.975620979653	0
2	8214	1142.03753618336	1
2	8217	1142.504475354892	0
2	8221	1142.768991042924	1
2	8224	1143.291102104843	0
2	8228	1143.352677441428	1
2	8229	1144.053541089524	0
2	8236	1144.770516531181	1
2	8238	1144.846482891091	2
2	8240	1145.190746921649	3
2	8241	1145.603513853787	2
2	8244	1146.304986413079	1
2	8247	1146.955530877388	0
2	8255	1147.450314353618	1
2	8257	1147.510070617125	2
2	8258	1147.524171687034	1
2	8262	1147.536734372963	2
2	8263	1148.363767579454	1
2	8267	1148.699335700649	2
2	8268	1148.934542877623	1
2	8274	1149.26998170377	2
2	8275	1149.662090224656	1
2	8279	1150.055725833337	2
2	8280	1150.493913490814	1
2	8284	1150.643880173735	2
2	8285	1151.492879136861	1
2	8289	1151.608554700819	2
2	8290	1152.417930361605	1
2	8294	1152.75596567157	2
2	8295	1153.003244565218	1
2	8299	1153.127432196144	2
2	8301	1153.625414355183	3
2	8302	1153.63111005642	2
2	8306	1154.356724422618	3
2	8307	1154.366336238734	2
2	8310	1155.195165057132	1
2	8314	1155.26296358134	2
2	8316	1155.476623512588	3
2	8317	1155.687060123101	2
2	8320	1156.56186479407	1
2	8323	1157.430478090398	0
2	8327	1157.483017780773	1
2	8328	1158.331628244627	0
2	8332	1158.528773560791	1
2	8333	1158.78418271828	0
2	8337	1158.804206827808	1
2	8338	1159.536427962291	0
2	8342	1159.583991561325	1
2	8343	1160.088260336709	0
2	8347	1160.195121891464	1
2	8348	1160.650212276843	0
2	8355	1161.828266580337	1
2	8356	1162.349106920068	0
2	8365	1163.365942348204	1
2	8368	1163.915692606638	0
2	8508	1186.591798826514	1
2	8509	1186.618583962905	0
2	8520	1187.57630224109	1
2	8521	1188.236122513401	0
2	8528	1188.75292692852	1
2	8529	1189.078741947679	0
2	8536	1190.355164733144	1
2	8539	1190.891897073878	0
2	8561	1194.005504689404	1
2	8562	1194.40441217844	0
2	8569	1194.929309120048	1
2	8574	1195.654532813584	0
2	8578	1195.862795690941	1
2	8579	1196.12525526702	0
2	8583	1196.205412482433	1
2	8586	1196.78601127572	0
2	8590	1197.538253365055	1
2	8591	1197.668516834757	0
2	8595	1197.707081989637	1
2	8597	1197.730983780287	2
2	8602	1198.267071253412	1
2	8610	1198.687962704903	2
2	8613	1199.062462856832	1
2	8617	1199.381757753901	2
2	8618	1199.758107427579	1
2	8624	1199.960458190932	2
2	8625	1200.208254099802	1
2	8629	1200.794792882989	2
2	8630	1201.174112521789	1
2	8634	1201.304065470909	2
2	8636	1201.67549925598	3
2	8637	1202.050918252698	2
2	8640	1202.493508156554	1
2	8644	1202.734148380736	2
2	8646	1202.869741342073	3
2	8647	1203.190993655452	2
2	8651	1203.3961864968	3
2	8653	1203.509318321792	4
2	8657	1203.961205616719	5
2	8658	1204.012296144923	4
2	8662	1204.271300416298	5
2	8663	1204.848611322583	4
2	8667	1204.882486570258	5
2	8668	1205.478944485194	4
2	8672	1205.790412347143	5
2	8673	1206.089848088358	4
2	8676	1206.960980211549	3
2	8680	1207.159117550712	4
2	8681	1207.366633344094	3
2	8685	1207.74892752064	4
2	8686	1207.902722993797	3
2	8690	1207.940058620356	4
2	8691	1208.445297466895	3
2	8694	1209.348725409877	2
2	8698	1209.451506092013	3
2	8700	1209.852983243598	4
2	8701	1210.272421533313	3
2	8704	1211.233590486251	2
2	8708	1211.685422728443	3
2	8710	1211.710953095922	4
2	8712	1211.768312034441	5
2	8713	1212.133067065688	4
2	8717	1212.438968283592	5
2	8719	1212.570291601047	6
2	8720	1212.843174067769	5
2	8724	1212.86349051781	6
2	8726	1212.95377895621	7
2	8727	1213.486465125043	6
2	8731	1213.5062369932	7
2	8732	1214.261471618783	6
2	8736	1214.847217693837	7
2	8737	1215.041914581253	6
2	8741	1215.192645839702	7
2	8742	1215.79676937631	6
2	8746	1215.889128941834	7
2	8747	1216.794381260617	6
2	8751	1216.920022258464	7
2	8752	1217.423180320092	6
2	8755	1217.995733468958	5
2	8759	1218.941551283681	6
2	8760	1218.987848066005	5
2	8764	1218.997300955768	6
2	8765	1219.780008188986	5
2	8768	1220.698887439144	4
2	8772	1220.831579432153	5
2	8773	1221.274493957895	4
2	8776	1221.838523794596	3
2	8780	1221.984244898441	4
2	8782	1222.317754128579	5
2	8783	1222.366840850028	4
2	8788	1223.063248396643	3
2	8792	1223.089207514463	4
2	8793	1223.758902000009	3
2	8799	1224.279220765911	4
2	8800	1224.472112959416	3
2	8804	1224.547229098349	4
2	8805	1225.369851210646	3
2	8809	1225.569951896346	4
2	8810	1226.223581565756	3
2	8814	1226.27733704564	4
2	8817	1227.136688951475	3
2	8821	1227.263109381782	4
2	8822	1227.644248710412	3
2	8826	1227.688750444563	4
2	8828	1227.711302017442	5
2	8829	1228.171251222331	4
2	8833	1228.442276755722	5
2	8834	1228.975499053419	4
2	8838	1229.345893122667	5
2	8839	1229.585665437745	4
2	8842	1229.997598020712	3
2	8846	1230.478292710709	4
2	8847	1230.686121848717	3
2	8852	1231.629133983774	2
2	8856	1231.73256159744	3
2	8858	1232.18551763779	4
2	8859	1232.486538912708	3
2	8863	1232.938400335911	4
2	8864	1232.97642445986	3
2	8868	1233.602643173522	4
2	8870	1233.694133542449	5
2	8871	1233.729490919018	4
2	8875	1233.771771843749	5
2	8877	1233.831502519761	6
2	8879	1233.881689934455	7
2	8880	1234.294577351332	6
2	8884	1234.720407696937	7
2	8885	1235.174649945207	6
2	8889	1235.247956265691	7
2	8890	1235.827873859208	6
2	8894	1236.777461304291	7
2	8895	1236.808011098279	6
2	8899	1237.463525385761	7
2	8900	1237.548891706046	6
2	8904	1238.221701951401	7
2	8905	1238.441283203688	6
2	8909	1238.813176716107	7
2	8910	1239.31938368718	6
2	8914	1239.975571218798	7
2	8915	1240.116942166657	6
2	8920	1240.985500651764	5
2	8924	1241.345256122515	6
2	8925	1241.537111072827	5
2	8928	1242.092496354531	4
2	8932	1242.583875353	5
2	8934	1242.626052559598	6
2	8935	1242.75392942054	5
2	8939	1242.878323890987	6
2	8940	1243.684343843048	5
2	8944	1243.908105405811	6
2	8945	1244.329904347265	5
2	8949	1244.441704730239	6
2	8950	1244.876308283934	5
2	8954	1245.144796137103	6
2	8955	1245.445950331891	5
2	8958	1245.990634358747	4
2	8962	1246.430162439534	5
2	8963	1246.876061019002	4
2	8967	1247.230132804508	5
2	8970	1247.715061681185	4
2	8975	1248.397247519696	3
2	8978	1249.280548385557	2
2	8981	1250.14407822972	1
2	8984	1250.782313756904	0
2	8988	1251.394873864338	1
2	8990	1251.414867350139	2
2	8992	1251.46809332761	3
2	8993	1251.719343597468	2
2	8997	1251.847658463439	3
2	8998	1252.519021822538	2
2	9002	1252.643475065555	3
2	9003	1253.209398329284	2
2	9007	1253.339975363516	3
2	9008	1253.909181645213	2
2	9011	1254.734380758254	1
2	9015	1254.819862066819	2
2	9017	1255.052240960516	3
2	9018	1255.387862098104	2
2	9021	1256.189454891373	1
2	9025	1256.237232630971	2
2	9027	1256.493390457702	3
2	9028	1256.904068771683	2
2	9031	1257.655293660777	1
2	9034	1258.079206641557	0
2	9038	1258.081105454845	1
2	9040	1258.237160092289	2
2	9041	1258.715685516715	1
2	9045	1258.781859408377	2
2	9046	1259.526618134489	1
2	9050	1259.855504896913	2
2	9051	1260.060177851168	1
2	9055	1260.096621736887	2
2	9056	1260.980162089018	1
2	9062	1261.058630994673	2
2	9063	1261.739235015659	1
2	9067	1261.901459256034	2
2	9068	1262.321954917701	1
2	9071	1262.815388506444	0
2	9078	1263.281112606142	1
2	9080	1263.480644828149	2
2	9081	1264.185386915671	1
2	9086	1264.779456115214	0
2	9090	1264.924091239222	1
2	9093	1265.531296228178	0
2	9097	1265.904872345244	1
2	9098	1266.435393970579	0
2	9102	1266.885119122812	1
2	9103	1266.960687811419	0
2	9107	1267.201282193854	1
2	9108	1267.670670260934	0
2	9117	1269.05566715067	1
2	9118	1269.192186442835	0
2	9122	1269.370443874901	1
2	9123	1269.863994002182	0
2	9132	1270.797510840302	1
2	9134	1271.13238750348	2
2	9136	1271.278198018129	3
2	9137	1271.738030270978	2
2	9140	1272.293838252897	1
2	9143	1272.738435948339	0
2	9147	1272.769181726995	1
2	9148	1273.242058968895	0
2	9152	1273.380814653683	1
2	9153	1274.181794402727	0
2	9162	1275.263835107303	1
2	9164	1275.895740427987	2
2	9165	1276.082905970446	1
2	9170	1276.608060489108	0
2	9174	1276.980521952406	1
2	9175	1277.535686897279	0
2	9179	1278.143793783726	1
2	9180	1278.349254153275	0
2	9184	1278.752821658963	1
2	9185	1279.134978791677	0
2	9192	1280.599236850352	1
2	9193	1280.953044709541	0
2	9202	1281.696376679806	1
2	9203	1282.640257073963	0
2	9348	1305.024914703879	1
2	9350	1305.415528592833	2
2	9353	1305.61984083194	1
2	9356	1306.457009492979	0
2	9364	1306.555858030705	1
2	9367	1307.046087184527	0
2	9371	1307.086318359797	1
2	9374	1307.923772779319	0
2	9378	1308.03653000401	1
2	9383	1308.745306211456	0
2	9387	1308.850435313998	1
2	9392	1309.677710272863	0
2	9404	1311.787648564264	1
2	9405	1312.092740127051	0
2	9482	1320.467411126615	1
2	9485	1321.151990690994	0
2	9498	1322.205906563228	1
2	9499	1322.638833635234	0
2	9509	1323.487154474568	1
2	9511	1323.731564499141	2
2	9512	1324.036723458234	1
2	9517	1324.869804231709	0
2	9523	1325.354482851635	1
2	9524	1325.470979566433	0
2	9531	1326.157880839151	1
2	9534	1326.550780204197	0
2	9541	1327.120233333459	1
2	9542	1327.766356399402	0
2	9594	1334.503198257531	1
2	9595	1334.656212085324	0
2	9604	1335.838837922387	1
2	9605	1336.303980871781	0
2	9614	1337.122073481787	1
2	9615	1337.574687178226	0
2	9622	1338.284526136348	1
2	9625	1339.136839805709	0
2	9694	1348.940879443772	1
2	9695	1349.495199924361	0
2	9704	1350.255164780015	1
2	9709	1351.00166953409	0
2	9713	1351.517499411234	1
2	9716	1351.703251815428	0
2	9720	1352.285737549527	1
2	9721	1352.627311515509	0
2	9725	1352.813450365228	1
2	9726	1353.032676663044	0
2	9730	1353.189159400759	1
2	9731	1353.727198662822	0
2	9735	1354.431692328913	1
2	9736	1354.442446562302	0
2	9740	1354.687462595471	1
2	9742	1354.888254433612	2
2	9743	1355.175336231691	1
2	9747	1355.280058972648	2
2	9748	1355.621445827586	1
2	9751	1356.122253334037	0
2	9755	1356.941695876087	1
2	9757	1356.99179313093	2
2	9758	1357.105490523464	1
2	9762	1357.589067882824	2
2	9763	1357.682434364668	1
2	9767	1357.93382701647	2
2	9768	1358.50504687799	1
2	9771	1358.914321743863	0
2	9775	1359.18616425479	1
2	9776	1359.412045011137	0
2	9780	1359.434648290872	1
2	9781	1359.937457699402	0
2	9785	1359.956254037057	1
2	9786	1360.609668853114	0
2	9790	1360.967709440813	1
2	9791	1361.04374446052	0
2	9795	1361.100021931993	1
2	9796	1361.937266116569	0
2	9800	1362.308288014688	1
2	9801	1362.454293817401	0
2	9805	1362.701304336003	1
2	9806	1363.118991334343	0
2	9810	1363.182248090352	1
2	9811	1363.739845275812	0
2	9815	1363.757630314066	1
2	9816	1364.431903869033	0
2	9820	1364.634873279749	1
2	9823	1365.226078638042	0
2	9827	1365.416898647824	1
2	9828	1365.77581840691	0
2	9832	1365.82993972034	1
2	9833	1366.246358001026	0
2	9837	1366.388983309038	1
2	9838	1366.856847134585	0
2	9845	1367.833855903275	1
2	9848	1368.458209872319	0
2	9852	1368.733964516436	1
2	9853	1369.253253489433	0
2	9860	1369.85531596101	1
2	9861	1370.485177622296	0
2	10009	1391.427617022658	1
2	10010	1391.446893811345	0
2	10014	1392.133408379116	1
2	10015	1392.393230343729	0
2	10023	1392.940081919348	1
2	10024	1393.136967574505	0
2	10028	1393.367691303089	1
2	10029	1393.699841498423	0
2	10033	1393.854097663041	1
2	10034	1394.102280080717	0
2	10038	1394.175214129953	1
2	10039	1394.725692294843	0
2	10046	1395.18786348509	1
2	10051	1395.969645227797	0
2	10055	1396.096730911434	1
2	10056	1396.535158458657	0
2	10060	1396.700941973611	1
2	10063	1397.347614376692	0
2	10067	1397.418156816861	1
2	10068	1397.78542540984	0
2	10072	1397.843975545393	1
2	10075	1398.704146944571	0
2	10079	1398.890338319697	1
2	10080	1399.192756971976	0
2	10084	1399.401626586392	1
2	10085	1399.892708846301	0
2	10089	1399.97201147501	1
2	10092	1400.559621725816	0
2	10096	1400.564793425451	1
2	10099	1401.457352190118	0
2	10103	1401.698479270184	1
2	10104	1402.107762223508	0
2	10111	1402.67197526877	1
2	10114	1403.361788396516	0
2	10123	1404.218854631556	1
2	10124	1404.552791524191	0
2	10131	1405.696462929395	1
2	10135	1406.037657909309	2
2	10136	1406.242073448399	1
2	10141	1406.975290809689	0
2	10145	1407.117246570965	1
2	10146	1407.703368895339	0
2	10150	1407.928990193265	1
2	10151	1408.274210233405	0
2	10161	1409.924460028033	1
2	10162	1410.647545964296	0
2	10169	1411.217902312028	1
2	10170	1412.067971175096	0
2	10181	1412.774822366019	1
2	10184	1412.971846528656	0
2	10188	1413.436358961751	1
2	10191	1413.920160602338	0
2	10195	1414.032566096164	1
2	10196	1414.866512388529	0
2	10205	1415.356824736389	1
2	10207	1415.573816322759	2
2	10208	1415.821150388082	1
2	10213	1416.437377299953	0
2	10220	1416.869150258703	1
2	10221	1417.598642315695	0
2	10228	1418.764928704825	1
2	10229	1419.175745914437	0
2	10236	1420.13497829631	1
2	10241	1420.340641032558	0
2	10250	1421.352050719288	1
2	10251	1421.408056289124	0
2	10260	1422.281381271608	1
2	10261	1422.729322319039	0
2	10265	1423.359479634079	1
2	10268	1423.69970364252	0
2	10272	1423.861123788776	1
2	10273	1424.188778762593	0
2	10277	1424.380775580117	1
2	10278	1425.004519992023	0
2	10282	1425.105526531463	1
2	10283	1425.433397715845	0
2	10289	1425.922535471735	1
2	10290	1426.296223425799	0
2	10300	1427.437637033742	1
2	10302	1427.830705192947	2
2	10304	1427.836800556781	3
2	10307	1428.1700532825	2
2	10314	1429.024587391157	1
2	10318	1429.228589923883	2
2	10319	1429.688636686214	1
2	10323	1430.334306870402	2
2	10324	1430.614485018774	1
2	10328	1431.034103459385	2
2	10329	1431.388011964251	1
2	10332	1432.257720399395	0
2	10336	1432.568031510034	1
2	10337	1432.745575495184	0
2	10341	1433.482468713013	1
2	10342	1433.53036571022	0
2	10346	1433.550737285039	1
2	10348	1433.982144882468	2
2	10349	1434.31598506186	1
2	10353	1434.796420207077	2
2	10355	1434.848422047736	3
2	10356	1435.066877439738	2
2	10359	1435.569881279886	1
2	10363	1435.593700497678	2
2	10365	1435.983892844658	3
2	10366	1436.375974679066	2
2	10370	1436.746111074428	3
2	10371	1436.992306373667	2
2	10374	1437.848945987763	1
2	10377	1438.629466759998	0
2	10386	1439.815847776215	1
2	10387	1439.908923458752	0
2	10396	1440.392986361995	1
2	10398	1440.64795051276	2
2	10401	1441.280880140678	1
2	10406	1442.227410873936	0
2	10418	1443.666204726051	1
2	10419	1444.101924242152	0
2	10428	1445.33639836417	1
2	10429	1445.850135569394	0
2	10648	1476.697505332545	1
2	10649	1476.753522287384	0
2	10682	1481.117544149366	1
2	10697	1482.061469705525	0
2	10704	1482.990801410069	1
2	10705	1483.33839515376	0
2	10712	1484.397180119753	1
2	10713	1484.635430483083	0
2	10722	1485.527781247334	1
2	10723	1485.867613576661	0
2	10736	1487.412742547361	1
2	10737	1487.894339474319	0
2	10769	1491.325951271186	1
2	10776	1492.031596733285	0
2	10783	1492.884626366338	1
2	10786	1493.417630118485	0
2	10793	1494.630963952105	1
2	10798	1495.227943688426	0
2	10805	1496.346037830596	1
2	10806	1496.41548032023	0
2	10813	1497.688317672683	1
2	10815	1497.785992292983	2
2	10818	1497.877188315223	1
2	10825	1498.323627461706	0
2	10831	1498.759723248671	1
2	10832	1499.263650521523	0
2	10836	1499.499545708949	1
2	10837	1500.224337913868	0
2	10841	1500.386129963672	1
2	10842	1500.711416545072	0
2	10846	1501.111967587539	1
2	10849	1501.655835518315	0
2	10853	1502.156622747461	1
2	10854	1502.540364574249	0
2	10858	1502.718123115724	1
2	10859	1503.000631805862	0
2	10863	1503.021229875101	1
2	10864	1503.959553019729	0
2	10871	1505.176429828252	1
2	10873	1505.293238524331	2
2	10875	1505.334757458061	3
2	10876	1505.66152411185	2
2	10879	1506.225633081959	1
2	10882	1506.667455327117	0
2	10886	1506.737907286679	1
2	10889	1507.272830315518	0
2	10893	1507.472606682213	1
2	10894	1507.890766072252	0
2	10898	1508.494981982573	1
2	10899	1508.680226035954	0
2	10903	1509.239344745037	1
2	10904	1509.623807106519	0
2	10908	1510.221797452173	1
2	10909	1510.266986852258	0
2	10913	1511.0512435578	1
2	10914	1511.176505431558	0
2	10921	1512.023210415054	1
2	10922	1512.89913139695	0
2	10931	1514.375381201014	1
2	10932	1514.657867339232	0
2	10943	1515.650041715374	1
2	10944	1516.357112847667	0
2	10953	1517.437249652053	1
2	10954	1517.813928738588	0
2	10961	1518.690576610545	1
2	10962	1519.044524748416	0
2	10974	1520.397891600762	1
2	10977	1520.770387173888	0
2	10986	1521.928321465464	1
2	10987	1521.984205751612	0
2	10996	1522.690611413932	1
2	10998	1523.14730106001	2
2	10999	1523.473091981725	1
2	11002	1524.034151096481	0
2	11006	1524.488762176899	1
2	11007	1524.543911667426	0
2	11011	1524.672910152729	1
2	11012	1525.188395770431	0
2	11027	1527.42851894645	1
2	11028	1527.60532736371	0
2	11044	1529.809015702759	1
2	11045	1530.116815636984	0
2	11055	1531.434957621446	1
2	11058	1532.184966977897	0
2	11064	1532.308242868408	1
2	11065	1532.828580167915	0
2	11069	1532.998885100401	1
2	11070	1533.390042317684	0
2	11074	1533.720894514828	1
2	11075	1534.024127003622	0
2	11079	1534.578054714515	1
2	11080	1534.655610687217	0
2	11084	1534.680663740211	1
2	11085	1535.637121868857	0
2	11089	1535.829634966668	1
2	11092	1536.528688167573	0
2	11096	1536.836156018763	1
2	11097	1537.427348415718	0
2	11101	1537.892746184442	1
2	11102	1538.331473501144	0
2	11106	1538.727089201884	1
2	11107	1538.744978580974	0
2	11111	1538.903671929467	1
2	11112	1539.665495365277	0
2	11116	1540.14300193173	1
2	11117	1540.250182948565	0
2	11121	1540.286532250865	1
2	11122	1541.203345198721	0
2	11134	1542.859169081019	1
2	11135	1543.242255857192	0
2	11146	1544.514994280288	1
2	11147	1544.564383852832	0
2	11156	1545.800107850844	1
2	11157	1545.908290076699	0
2	11166	1547.257421049727	1
2	11167	1547.337101012818	0
2	11176	1548.114244977257	1
2	11177	1548.928821424559	0
2	11184	1549.615046639161	1
2	11187	1550.384752634379	0
2	11194	1551.113622823112	1
2	11195	1551.517226002437	0
2	11204	1552.562236885844	1
2	11205	1552.844807050961	0
2	11212	1553.476570670783	1
2	11214	1553.610437696899	2
2	11217	1554.28889913785	1
2	11222	1554.811907515467	0
2	11226	1555.297865235106	1
2	11227	1555.396972111312	0
2	11231	1555.781820694368	1
2	11232	1555.931071271773	0
2	11236	1556.136271972132	1
2	11237	1556.598463256822	0
2	11244	1557.612297154611	1
2	11246	1557.71493335702	2
2	11248	1557.721319670735	3
2	11249	1558.306304320625	2
2	11254	1558.97225147749	1
2	11259	1559.938173064382	0
2	11263	1560.459047446498	1
2	11264	1560.606005197137	0
2	11268	1561.186151897721	1
2	11269	1561.504812587078	0
2	11273	1561.616247896431	1
2	11274	1562.165966901581	0
2	11281	1562.638293379711	1
2	11283	1562.751130815356	2
2	11284	1563.61126311829	1
2	11288	1564.016852497903	2
2	11289	1564.087758045948	1
2	11293	1564.217356535084	2
2	11294	1564.611535608607	1
2	11298	1564.766784289665	2
2	11300	1564.804494556953	3
2	11303	1565.180332205423	2
2	11307	1565.260225921683	3
2	11308	1565.785917270022	2
2	11312	1565.850114098625	3
2	11313	1566.258137961548	2
2	11316	1567.170567036724	1
2	11320	1567.292752483855	2
2	11321	1567.857904100815	1
2	11325	1568.201840870444	2
2	11326	1568.554253567686	1
2	11330	1568.903151121068	2
2	11331	1569.300156500913	1
2	11335	1569.576865230839	2
2	11336	1570.292145224545	1
2	11340	1570.822371645828	2
2	11342	1570.908557418996	3
2	11343	1570.909736054228	2
2	11347	1571.270952357635	3
2	11348	1571.575391620607	2
2	11352	1571.813350119038	3
2	11353	1572.323859559116	2
2	11357	1572.436518054023	3
2	11358	1573.032465324202	2
2	11362	1573.473875017006	3
2	11363	1573.638002855867	2
2	11369	1574.008063971303	3
2	11370	1574.235110510398	2
2	11374	1574.620504981779	3
2	11376	1574.726803121621	4
2	11377	1574.990025867919	3
2	11381	1575.001646002799	4
2	11382	1575.976212155797	3
2	11385	1576.954308586965	2
2	11388	1577.534894994019	1
2	11392	1578.064794413989	2
2	11396	1578.325477878876	3
2	11397	1578.387601670927	2
2	11401	1578.501894318717	3
2	11402	1579.135444575945	2
2	11408	1579.471591830072	3
2	11409	1579.976719178191	2
2	11413	1580.82891149992	3
2	11414	1580.85457991243	2
2	11418	1581.077754903703	3
2	11421	1581.433945848445	2
2	11424	1582.258977174784	1
2	11428	1582.29175478026	2
2	11431	1582.87203375667	1
2	11435	1582.984187690886	2
2	11437	1583.570904072434	3
2	11438	1583.620062815795	2
2	11441	1584.449567759155	1
2	11445	1584.454424050424	2
2	11447	1584.538332336877	3
2	11448	1585.049762728183	2
2	11451	1585.762395998301	1
2	11455	1585.782275955614	2
2	11456	1586.369151322288	1
2	11460	1586.459103915023	2
2	11462	1587.057921457085	3
2	11463	1587.364245414059	2
2	11466	1588.03016191551	1
2	11470	1588.223935895442	2
2	11471	1588.583591923141	1
2	11475	1589.437259710811	2
2	11476	1589.561263930495	1
2	11480	1589.849535759129	2
2	11481	1590.04514150254	1
2	11485	1590.090382662674	2
2	11487	1590.334134005504	3
2	11488	1591.015823417693	2
2	11491	1591.6629029006	1
2	11495	1591.714528944316	2
2	11497	1591.92478464042	3
2	11498	1592.194865308586	2
2	11501	1592.615682376572	1
2	11505	1592.750713917305	2
2	11507	1592.952274871112	3
2	11508	1593.4693518257	2
2	11512	1593.584783014364	3
2	11513	1594.452379423403	2
2	11517	1594.949281665258	3
2	11518	1595.354502840084	2
2	11522	1595.407122414682	3
2	11523	1595.963406620477	2
2	11527	1596.117479250871	3
2	11528	1596.423579611699	2
2	11532	1596.782293514724	3
2	11533	1597.416267921519	2
2	11537	1597.502666335994	3
2	11538	1597.836697177565	2
2	11542	1598.233814117913	3
2	11543	1598.290512959169	2
2	11547	1598.373333485721	3
2	11548	1599.089283934723	2
2	11552	1599.093775793702	3
2	11553	1599.888304519861	2
2	11557	1600.168573456949	3
2	11558	1600.659590857451	2
2	11561	1601.071187980448	1
2	11564	1601.668394716338	0
2	11615	1607.836325075825	1
2	11618	1608.747219660712	0
2	11629	1609.767935837464	1
2	11630	1610.332329679207	0
2	11637	1611.732982871901	1
2	11638	1612.076392570251	0
2	11652	1613.506719543664	1
2	11654	1613.978495600544	2
2	11655	1614.045101801512	1
2	11660	1614.609797751551	0
2	11666	1615.123638082766	1
2	11667	1615.584745646521	0
2	11680	1617.707504494107	1
2	11681	1618.016662016531	0
2	11692	1619.206983066574	1
2	11695	1619.49986988946	0
2	11704	1620.495232991764	1
2	11705	1620.898061566913	0
2	11720	1622.701355141197	1
2	11721	1623.518430665668	0
2	11728	1624.358072979413	1
2	11729	1624.843908717876	0
2	11736	1625.741230712891	1
2	11737	1626.329637101173	0
2	11747	1627.830767170321	1
2	11748	1628.135353652315	0
2	11759	1629.098626359401	1
2	11762	1629.288470650298	0
2	11785	1630.871129709255	1
2	11788	1631.652169535795	0
2	11801	1633.11112036389	1
2	11802	1633.317861259469	0
2	11809	1634.165977421943	1
2	11810	1635.033652327788	0
2	11819	1636.498363537725	1
2	11820	1636.630499574329	0
2	11832	1637.819229215148	1
2	11839	1638.579874472806	0
2	11848	1639.354822888142	1
2	11849	1639.470880740342	0
2	11856	1640.076267527981	1
2	11859	1640.449058348939	0
2	11866	1641.333931787874	1
2	11867	1641.924672071889	0
2	11873	1642.303858294258	1
2	11874	1642.731702110471	0
2	11881	1643.303884525181	1
2	11883	1643.6124988561	2
2	11885	1643.815264322998	3
2	11886	1643.909316316128	2
2	11889	1644.590374790479	1
2	11893	1644.797456216465	2
2	11894	1645.362036761802	1
2	11898	1645.61041384944	2
2	11899	1646.074229296783	1
2	11902	1646.659336144125	0
2	11906	1647.271852168514	1
2	11907	1647.274891858755	0
2	11914	1648.363561427924	1
2	11916	1648.697700259077	2
2	11918	1648.725733956686	3
2	11919	1648.757323819466	2
2	11922	1649.199313592745	1
2	11926	1649.307831659706	2
2	11927	1649.919030846071	1
2	11931	1649.938764096874	2
2	11932	1650.817213908697	1
2	11936	1650.934947160983	2
2	11937	1651.657416900827	1
2	11941	1651.922182945818	2
2	11942	1652.171831636385	1
2	11947	1652.582779120675	0
2	11951	1652.980524236448	1
2	11952	1653.032590997194	0
2	11959	1654.19044005296	1
2	11963	1654.484131943237	2
2	11965	1654.550143586458	3
2	11966	1654.677425440981	2
2	11971	1655.137313654528	1
2	11975	1655.528897896787	2
2	11976	1656.104400512737	1
2	11980	1656.431535301945	2
2	11981	1656.640675667089	1
2	11985	1656.84677787851	2
2	11986	1657.638198513372	1
2	11989	1658.311545852499	0
2	11993	1658.574070601116	1
2	11994	1658.863337874619	0
2	12001	1659.523103079459	1
2	12003	1659.531721898137	2
2	12005	1659.711755717269	3
2	12008	1660.009342737097	2
2	12011	1660.423376920933	1
2	12015	1660.522046468136	2
2	12018	1661.090243590318	1
2	12022	1661.723179557205	2
2	12023	1661.893983759705	1
2	12027	1662.400039513592	2
2	12028	1662.437431318939	1
2	12033	1663.187911110206	0
2	12037	1663.298951369103	1
2	12038	1663.77499682137	0
2	12042	1663.797355831877	1
2	12043	1664.732188402835	0
2	12047	1664.775982105751	1
2	12048	1665.562000291489	0
2	12055	1666.663371179006	1
2	12057	1666.764118063295	2
2	12058	1666.980978391433	1
2	12063	1667.754774149295	0
2	12070	1668.42225027142	1
2	12071	1668.795417435022	0
2	12075	1669.236828416611	1
2	12076	1669.32923926946	0
2	12082	1669.75480440844	1
2	12083	1669.978588339847	0
2	12087	1670.738595191214	1
2	12088	1670.905387433779	0
2	12092	1671.37964878552	1
2	12093	1671.519389189661	0
2	12100	1673.118588069627	1
2	12101	1673.163384042515	0
2	12108	1674.215251142524	1
2	12109	1674.896607262057	0
2	12116	1676.419017718012	1
2	12117	1676.494229240783	0
2	12124	1677.255720285294	1
2	12129	1677.972142700779	0
2	12139	1679.769562344607	1
2	12140	1680.337918172379	0
2	12144	1680.426682638519	1
2	12149	1681.220328291713	0
2	12159	1681.963912641469	1
2	12160	1682.114623475608	0
2	12164	1682.365340209926	1
2	12165	1682.899304472071	0
2	12169	1682.973578661071	1
2	12170	1683.617733003314	0
2	12174	1683.67712317171	1
2	12175	1684.566129943424	0
2	12179	1684.662348586568	1
2	12180	1685.214038599816	0
2	12184	1685.249601203353	1
2	12185	1685.769431758693	0
2	12192	1686.970030196685	1
2	12193	1687.309014713226	0
2	12230	1692.574910080143	1
2	12231	1692.964217328766	0
2	12242	1693.969632024794	1
2	12243	1694.767061990846	0
2	12253	1696.74320688642	1
2	12258	1697.3064140273	0
2	12272	1698.543412893926	1
2	12275	1699.218659074533	0
2	12287	1700.499836164329	1
2	12290	1701.318771306959	0
2	12299	1702.410377432159	1
2	12300	1703.133897411984	0
2	12309	1703.92792767697	1
2	12310	1704.679371122665	0
2	12319	1705.394653171455	1
2	12320	1706.311962278209	0
2	12342	1709.735465917304	1
2	12343	1709.862726876068	0
2	12352	1711.529493359006	1
2	12353	1711.568639370122	0
2	12365	1713.27468969054	1
2	12368	1713.598082825423	0
2	12380	1715.291588131598	1
2	12381	1715.569791187274	0
2	12388	1716.312335624133	1
2	12389	1716.803760579808	0
2	12400	1717.865147500118	1
2	12402	1718.095471864623	2
2	12405	1718.212269362921	1
2	12410	1718.668492922068	0
2	12414	1718.747494312189	1
2	12415	1719.659484577107	0
2	12419	1719.866344821156	1
2	12422	1720.493873614373	0
2	12426	1720.696688652608	1
2	12427	1720.903832156744	0
2	12431	1721.486134465037	1
2	12432	1721.58290756738	0
2	12436	1721.604210352861	1
2	12437	1721.988243012523	0
2	12441	1722.423612979896	1
2	12442	1722.715540999055	0
2	12446	1723.065477856104	1
2	12447	1723.582529412882	0
2	12451	1723.824118856982	1
2	12452	1724.293821106871	0
2	12456	1724.366387427515	1
2	12457	1725.065540649995	0
2	12461	1725.271549439465	1
2	12462	1725.727579193676	0
2	12469	1726.580807502926	1
2	12470	1727.10493028436	0
2	12479	1727.723568267518	1
2	12480	1728.287434574748	0
2	12484	1728.306617015438	1
2	12487	1728.919063882037	0
2	12491	1729.40116367818	1
2	12492	1729.429981332338	0
2	12496	1729.524504281928	1
2	12497	1730.135119036511	0
2	12501	1730.24836540842	1
2	12502	1731.006856570738	0
2	12541	1736.034869441539	1
2	12542	1736.47421741739	0
2	12551	1737.532484200867	1
2	12552	1737.627897030926	0
2	12564	1739.013974393727	1
2	12567	1739.488035533131	0
2	12576	1740.520042402392	1
2	12581	1740.88544419638	0
2	12588	1741.715663424429	1
2	12589	1742.426647931031	0
2	12595	1742.803520858029	1
2	12596	1743.042724127901	0
2	12600	1743.207404324329	1
2	12603	1743.752146680393	0
2	12607	1744.116453873122	1
2	12608	1744.245878388007	0
2	12615	1745.044907422771	1
2	12616	1745.32646480335	0
2	12622	1745.725248138575	1
2	12623	1745.914657634982	0
2	12627	1746.117500953294	1
2	12628	1746.667218813879	0
2	12632	1746.759928403807	1
2	12633	1747.210436976069	0
2	12640	1748.044499173485	1
2	12641	1748.072619468646	0
2	12648	1748.604578184348	1
2	12651	1748.904899768086	0
2	12658	1749.355113071583	1
2	12661	1749.708046386923	0
2	12668	1750.496419829412	1
2	12669	1751.247163463544	0
2	12676	1752.089856641821	1
2	12677	1752.678200715847	0
2	12714	1757.556443850847	1
2	12717	1757.696192400456	0
2	12729	1758.824335063041	1
2	12731	1759.011100546111	2
2	12732	1759.415776778497	1
2	12735	1760.181202739869	0
2	12739	1760.330209790589	1
2	12740	1760.743468803559	0
2	12744	1761.347841524223	1
2	12745	1761.63499871322	0
2	12749	1761.76066414238	1
2	12750	1762.112349463087	0
2	12754	1762.782117221751	1
2	12755	1763.010292990059	0
2	12759	1763.389004317501	1
2	12760	1763.85320256061	0
2	12764	1763.860407625219	1
2	12765	1764.685154806795	0
2	12769	1764.84215810444	1
2	12772	1765.168484951575	0
2	12783	1765.922169456032	1
2	12784	1766.254417783693	0
2	12791	1767.304871832826	1
2	12792	1767.668593505882	0
2	12803	1768.675665861216	1
2	12804	1769.298829551572	0
2	12815	1770.318378193071	1
2	12816	1770.697242796253	0
2	12858	1777.085405644287	1
2	12859	1777.336135826232	0
2	12868	1778.504350288294	1
2	12877	1779.189637454851	0
2	12888	1780.697339227213	1
2	12890	1780.830599739717	2
2	12891	1780.831028943482	1
2	12896	1781.818746291307	0
2	12900	1782.27883648609	1
2	12901	1782.671853450519	0
2	12908	1783.832788328253	1
2	12909	1784.346302515661	0
2	13010	1798.93214340935	1
2	13013	1799.858575584622	0
2	13026	1800.942390778309	1
2	13027	1801.170997941004	0
2	13036	1802.049088753604	1
2	13037	1802.551787936989	0
2	13044	1803.381213558786	1
2	13049	1804.114261088868	0
2	13056	1804.893470543078	1
2	13059	1805.512922327662	0
2	13073	1806.568542337744	1
2	13076	1807.32896689854	0
2	13115	1812.528377578951	1
2	13116	1812.800446903262	0
2	13127	1813.868447092523	1
2	13128	1813.997148402849	0
2	13137	1814.690999144016	1
2	13138	1815.129586367564	0
2	13149	1816.153107011908	1
2	13152	1816.766527670365	0
2	13240	1830.217026254584	1
2	13245	1830.61169598198	0
2	13252	1831.354281091468	1
2	13253	1831.852306482126	0
2	13257	1832.312073502472	1
2	13258	1832.487108817813	0
2	13265	1834.036120277911	1
2	13266	1834.046851809904	0
2	13270	1834.089945624953	1
2	13271	1834.570694578182	0
2	13278	1835.241199882559	1
2	13280	1835.274788431663	2
2	13283	1835.922318588034	1
2	13288	1836.643823970086	0
2	13299	1837.585660765911	1
2	13300	1837.768566593318	0
2	13309	1839.247286349151	1
2	13310	1839.576348372665	0
2	13319	1840.802501521612	1
2	13322	1841.272468098975	0
2	13331	1842.202536849782	1
2	13333	1842.241211613002	2
2	13334	1842.306608484615	1
2	13339	1843.294931914308	0
2	13343	1843.348154662407	1
2	13344	1844.182609250233	0
2	13353	1845.770377240207	1
2	13354	1845.971889127068	0
2	13358	1846.625548759483	1
2	13359	1846.640750989759	0
2	13363	1847.154150346168	1
2	13364	1847.198623875318	0
2	13370	1847.396901309787	1
2	13371	1848.142977046151	0
2	13375	1848.567675457215	1
2	13376	1848.908730146637	0
2	13380	1849.006946683016	1
2	13381	1849.897608502604	0
2	13385	1849.917250451136	1
2	13386	1850.30015363607	0
2	13393	1851.022033836766	1
2	13395	1851.053125709996	2
2	13396	1851.79525353948	1
2	13400	1851.966647961787	2
2	13403	1852.247498821908	1
2	13407	1852.309977759069	2
2	13408	1852.980649383062	1
2	13412	1853.182406369508	2
2	13413	1853.519454215908	1
2	13416	1853.964601634418	0
2	13420	1853.988808281903	1
2	13421	1854.889742606574	0
2	13425	1854.904648570792	1
2	13426	1855.434800164423	0
2	13430	1855.783951133607	1
2	13431	1856.348074112668	0
2	13435	1856.642648302213	1
2	13436	1856.979827443765	0
2	13446	1858.246914565244	1
2	13450	1858.3461883862	2
2	13451	1858.723686518868	1
2	13456	1859.160124546544	0
2	13460	1859.574742690268	1
2	13461	1859.688753530591	0
2	13465	1859.956419149496	1
2	13466	1860.591449516754	0
2	13476	1862.001818456756	1
2	13478	1862.018402940672	2
2	13481	1862.803571126911	1
2	13488	1863.458937309657	0
2	13492	1863.493673279776	1
2	13493	1864.17992447356	0
2	13497	1864.186497452383	1
2	13498	1864.628275831949	0
2	13502	1864.95476892214	1
2	13503	1865.469224515624	0
2	13509	1866.342550323315	1
2	13510	1866.465696623848	0
2	13514	1866.934560445717	1
2	13515	1866.966912072917	0
2	13522	1867.710171840959	1
2	13524	1867.985550704156	2
2	13525	1868.342428392658	1
2	13530	1869.28030188421	0
2	13537	1870.032387940141	1
2	13539	1870.125001099521	2
2	13540	1870.47782243781	1
2	13545	1871.383339983804	0
2	13552	1872.631201203756	1
2	13554	1872.664320429774	2
2	13555	1872.777362947839	1
2	13558	1873.335230086206	0
2	13565	1874.468270397886	1
2	13566	1874.894733236006	0
2	13575	1875.83574227606	1
2	13579	1876.206999542666	2
2	13580	1876.640520474941	1
2	13587	1877.30667463436	0
2	13591	1877.460743340314	1
2	13592	1877.80247478124	0
2	13596	1877.993756376331	1
2	13597	1878.305842094238	0
2	13612	1880.601549707291	1
2	13614	1880.613081287182	2
2	13615	1880.94104769246	1
2	13618	1881.528651875186	0
2	13622	1881.688201792353	1
2	13627	1882.144884475016	0
2	13631	1882.350386306511	1
2	13632	1883.113381401378	0
2	13636	1883.380069193982	1
2	13637	1884.093858265386	0
2	13641	1884.367052978274	1
2	13642	1884.755430958535	0
2	13646	1884.845736070919	1
2	13647	1885.505749954445	0
2	13651	1885.799460085768	1
2	13652	1886.407072114268	0
2	13656	1886.68989200225	1
2	13658	1886.797673951869	2
2	13659	1887.193246763082	1
2	13663	1887.674552735027	2
2	13664	1887.753304447163	1
2	13667	1888.380113275977	0
2	13671	1888.645352265618	1
2	13673	1888.944188505626	2
2	13674	1889.351973745948	1
2	13679	1889.86145953352	0
2	13683	1890.008793731697	1
2	13684	1890.263239159225	0
2	13688	1890.577999534077	1
2	13690	1890.896331308114	2
2	13691	1891.0321052565	1
2	13694	1891.633797181746	0
2	13698	1891.679398618772	1
2	13700	1891.932471049632	2
2	13701	1892.411273867194	1
2	13705	1892.415801424159	2
2	13706	1892.822243380662	1
2	13710	1892.885783132453	2
2	13711	1893.500252648978	1
2	13715	1893.758037330237	2
2	13716	1894.309309473377	1
2	13719	1894.794252691394	0
2	13723	1894.978366887569	1
2	13724	1895.480660772952	0
2	13728	1895.528952443704	1
2	13730	1895.844843337014	2
2	13731	1896.087274157931	1
2	13735	1896.229768285676	2
2	13736	1897.073671519454	1
2	13740	1897.322371712006	2
2	13741	1897.668797225901	1
2	13745	1897.936896154996	2
2	13746	1898.522650093841	1
2	13750	1898.573142493579	2
2	13751	1899.439911898621	1
2	13755	1899.53062704617	2
2	13756	1899.941058302461	1
2	13759	1900.881646654452	0
2	13763	1901.221508616059	1
2	13764	1901.566853723139	0
2	13768	1901.633726400294	1
2	13769	1902.148978587868	0
2	13773	1902.545588094499	1
2	13774	1902.592225126805	0
2	13778	1902.687667915383	1
2	13779	1903.126544643728	0
2	13783	1903.192888617863	1
2	13784	1903.754060009144	0
2	13788	1903.868556993624	1
2	13789	1904.37250823432	0
2	13793	1904.440572072175	1
2	13794	1904.959059276594	0
2	13798	1905.053441769801	1
2	13799	1905.781888267933	0
2	13803	1905.901076812711	1
2	13804	1906.656529532442	0
2	13808	1906.713103323414	1
2	13809	1907.553295774873	0
2	13815	1907.714644954178	1
2	13816	1908.145835502421	0
2	13831	1910.063597708845	1
2	13833	1910.447599594912	2
2	13834	1910.589206701445	1
2	13837	1911.070269616994	0
2	13841	1911.266657880721	1
2	13842	1911.683000612792	0
2	13846	1911.771751744511	1
2	13849	1912.533823100033	0
2	13856	1913.132249746562	1
2	13859	1913.522582248806	0
2	13866	1914.329324293559	1
2	13871	1914.711196432936	0
2	13885	1916.739012262802	1
2	13886	1916.970749674386	0
2	13901	1918.643104804838	1
2	13906	1919.133977953226	0
2	13915	1919.577948647144	1
2	13916	1920.02016808621	0
[...]
6	149987	20333.355905616887	4034.9619908125
6	150391	20388.59676436381	4030.8887556862
6	150434	20394.597088904116	18858.418144614
6	150459	20399.353386512256	18619.761540672
6	150527	20407.51914223055	4012.4829559588
6	150560	20412.07167195086	7575.7741236854
6	150568	20413.308975539027	4007.6453071257
6	150670	20427.637352426391	3923.0113663122
6	151048	20479.174008030249	7624.0886533317
6	151105	20487.054286883901	7623.6561199325
6	151223	20504.778326212232	10752.118772473
6	151341	20519.468944891951	10763.56445982
6	151825	20586.051164812118	14480.019393675
6	151929	20600.218760279555	7625.6878122691
6	151962	20604.993155439515	7577.9415190381
6	152117	20623.379335577777	13266.161895551
6	152160	20629.864865279002	10848.34528571
6	152358	20656.285358423078	3854.5766542908
6	152435	20666.710408454658	13197.57890831
6	152478	20672.106265834942	10873.952899365
6	152633	20693.424829595942	13202.432992425
6	152812	20716.87062920815	15712.435260773
6	152932	20733.036847675485	13183.019704076
6	152937	20734.003345183782	3801.3902188822
6	152947	20735.18031606901	10906.395191371
6	153032	20746.053438071474	3800.6208989372
6	153040	20747.176219243589	10884.261782433
6	153048	20748.944712830507	3800.9865713866
6	153100	20755.906690522269	13080.769075872
6	153103	20756.325361881717	20657.925765259
6	153127	20759.97844995054	13079.925995401
6	153144	20761.882347015185	3793.4185955106
6	154377	20923.974444950547	3913.9424809086
6	154469	20934.745061225852	3897.9974528835
6	154480	20936.5528329322	13240.302783579
6	154559	20948.655904958618	3865.6321243765
6	154562	20949.199715789954	13241.721084174
6	154616	20957.244521108118	7643.1779715741
6	154663	20963.625448990648	13238.407476628
6	154678	20965.111246492748	13234.995344407
6	154792	20980.808786352062	13214.46750633
6	156136	21163.062095871787	14875.12419316
6	156409	21201.858966988453	11220.312334808
6	156434	21205.247359576064	19214.186347346
6	156504	21214.707818866232	4047.166201011
6	156839	21260.410077931022	11173.861671771
6	157025	21286.907665235444	13429.969554259
6	157066	21293.893685031809	20836.520687877
6	157199	21311.867887440405	13424.751385584
6	157255	21318.907949748251	4128.8749523991
6	157319	21329.72261893506	4136.748996314
6	157332	21331.714054533363	13440.065994068
6	157340	21332.591807392462	20860.735799013
6	159837	21663.630327797535	4440.9582004919
6	159992	21684.712845207091	13779.584722153
6	160179	21706.90345362522	20951.050837984
6	160193	21709.525778189435	15357.654514359
6	160204	21712.073353467178	11568.471294342
6	160211	21713.059607638274	13771.633215683
6	160225	21715.649431616017	4427.6884187414
6	160357	21733.252341053257	4409.9883280517
6	160798	21792.313135208231	11619.978642556
6	160961	21814.765356523773	4414.3104539315
6	161124	21838.543466500328	4330.108590058
6	161813	21930.616597618529	15469.930340239
6	161818	21931.115696691948	16550.930937728
6	161985	21955.178114550042	4326.9917762746
6	162005	21957.91791517217	11626.655517321
6	162086	21968.941233551636	4317.6273247549
6	162104	21972.576577066996	20823.533172386
6	162151	21977.722457335232	13861.923116303
6	162160	21978.633328782901	11631.514983425
6	162462	22019.560313467443	8084.6865562831
6	162497	22024.249731685915	8061.299613075
6	162504	22025.01848408435	13813.721686182
6	162523	22028.691955061951	8060.1546870748
6	162661	22047.108078127908	4300.7279921159
6	162775	22064.126158700414	4297.5552644857
6	163082	22104.579164791987	4328.7298798217
6	163202	22122.947049647659	4335.2072394596
6	163337	22142.301608989197	11757.650670834
6	163345	22143.338361253399	18456.503234921
6	163356	22145.913769252082	4290.8625967946
6	163670	22187.289826935715	4282.2385187685
6	163817	22207.129386141103	19524.737182917
6	165803	22476.59865659564	14118.135900335
6	165811	22478.034116916221	19776.143673147
6	165892	22487.595187986131	8346.1517042049
6	165980	22499.877969526223	4520.9851536752
6	165996	22503.112393635328	4521.1124130822
6	166014	22506.120029886443	14061.84700066
6	166076	22515.013818265688	8284.5221426691
6	166129	22524.709400064782	4495.6415212203
6	166157	22528.879509116528	18772.951974224
6	166193	22533.026912751101	12016.30979949
6	166293	22544.275717022042	18679.877735345
6	166368	22555.720318178838	14057.369492545
6	166456	22566.192391387752	8204.5087636083
6	166508	22571.068908835116	8188.4304769418
6	166554	22577.545211716422	8180.4425005914
6	166713	22600.688618405824	18592.442552749
6	166745	22605.199251457266	4481.0544584052
6	166775	22610.539479700904	17109.15118532
6	167009	22643.194667422919	8139.0609551795
6	167021	22644.573888557971	17130.182117402
6	167777	22742.206938296189	17190.517107665
6	167885	22757.028067950352	17176.076917223
6	167912	22760.029672582919	17174.129148917
6	168568	22845.925387602207	14265.184827577
6	168576	22847.54505500761	8202.9072631369
6	168587	22849.153949984864	14260.772989068
6	168611	22853.124992847305	4563.9585910125
6	168673	22860.254764493325	4567.0879124749
6	168837	22882.512887000341	12183.976851104
6	168991	22903.851957858402	12172.074506322
6	169113	22919.076826812888	12148.555779222
6	169281	22942.544462778093	8132.6446412811
6	169536	22977.029998076287	8091.828683096
6	169545	22978.515323753514	12052.874667592
6	169774	23008.273285170734	8026.3884122815
6	170944	23164.521517509221	14434.201033327
6	170989	23171.472865640092	14437.582035984
6	171219	23202.796160566668	14428.505781679
6	171322	23217.638741001676	8127.1087856118
6	171350	23221.816845219911	4694.6901335941
6	171370	23225.20074440283	14440.889101471
6	171382	23226.455054153644	8129.6798763482
6	171419	23231.388624931175	8127.0813893931
6	171617	23259.06261248882	8128.5340648546
6	172803	23418.137206498632	4850.0702479906
6	172813	23419.566187091596	4842.5355908342
6	172849	23425.437293185391	12386.765209524
6	173032	23445.98468982843	8239.034123287
6	174978	23709.643784361523	16909.518749828
6	175006	23713.054870889061	16898.936812383
6	175099	23726.094296857767	5099.2521230477
6	175114	23728.12689275202	12651.221007592
6	175160	23733.828823275078	20915.562739899
6	175424	23771.604740620687	12628.605932975
6	175504	23781.914996565975	8492.9217229185
6	175513	23782.395640963459	14782.665061923
6	175641	23799.737929253983	5085.3183867108
6	175653	23801.451158845383	5083.4584830841
6	175765	23815.260755366	16877.015602856
6	175927	23837.094756624621	16897.230467541
6	175940	23839.031117946754	5102.2207237502
6	175956	23842.064326060523	8531.9834212869
6	176971	23975.873414042505	5202.7579995165
6	177048	23986.616037485244	20887.546945578
6	177106	23995.29559784472	20840.32499924
6	177111	23996.170751507683	12651.374843978
6	177124	23998.046484318758	8640.1156017545
6	177160	24002.587581561144	5170.4873758082
6	177187	24007.478279789781	5144.2404056678
6	177275	24019.010905128309	5099.3658423236
6	177371	24031.282097905652	19564.600065654
6	177643	24068.663232079998	12710.685006457
6	178160	24141.325688186114	5027.8056981092
6	178200	24146.876760746784	5025.1293389712
6	178361	24170.573488631159	4967.0548192224
6	178373	24171.651364886634	4965.9774369045
6	178379	24172.792193708069	17155.211366295
6	178405	24176.737672298926	15067.824092777
6	178445	24181.435669823376	20914.484358462
6	178531	24192.4222038685	12781.122409624
6	178537	24194.147789328836	12762.339712698
6	178702	24216.16799360496	12612.590035837
6	178816	24230.772620399491	4962.6333496817
6	178913	24244.416813349173	8750.1288927909
6	179007	24255.217375398668	15138.864924644
6	179383	24306.13455283652	19802.30039419
6	179407	24309.894332862515	20944.550979289
6	179510	24323.253424281079	12547.904613193
6	179558	24329.095074735732	18520.003796142
6	179701	24349.966154832591	23418.060426008
6	179716	24353.085441224195	12536.807680919
6	179766	24360.201713075173	8811.6049897238
6	179867	24373.262897919827	4890.9908686601
6	179939	24383.660388673061	12422.217399946
6	180029	24396.808488492027	12418.428681126
6	180037	24398.561752930202	17305.941665351
6	180059	24401.655229340552	12384.816635549
6	180123	24409.795028916105	12330.443519774
6	180313	24434.933034011497	4889.7731761221
6	180389	24445.848164620073	12084.105700534
6	180410	24448.234818409438	12086.396411213
6	180604	24475.101828337839	12100.097247498
6	180678	24483.297470154665	18600.653691542
6	180690	24486.157379462389	17361.218367433
6	180782	24499.617621116718	15252.912959744
6	180866	24511.118900750585	12111.046116649
6	180978	24526.499743400428	4923.697725025
6	181095	24542.834925508133	17392.658465974
6	181290	24567.753794324964	4886.3512255937
6	181596	24608.102403276698	8783.2017883846
6	182220	24692.983251514892	8806.0421846241
6	183558	24879.181749257495	20116.419910963
6	183820	24915.264878477813	12216.589696665
6	183843	24918.314629469351	8760.3458011684
6	183922	24929.686599804606	8737.0279796307
6	183986	24937.622236917174	4861.7099469333
6	184434	24996.061013559911	4836.974903692
6	186941	25335.808773370007	5065.1560437527
6	186986	25342.02532336485	5047.7595387499
6	187004	25344.983313771537	15772.997348057
6	187205	25373.77654097878	9074.2972662033
6	187247	25379.087747273889	5034.1718077786
6	188100	25494.607524817359	15837.778888042
6	188105	25495.211575189015	15836.701526022
6	188176	25504.484563324291	18283.925095095
6	188838	25595.409096694708	9149.9034985182
6	189003	25619.245778146312	9055.8959186273
6	189013	25620.169343532128	12772.253608485
6	189019	25621.284365768144	12773.148102443
6	189052	25625.065260134331	15881.375906504
6	189094	25630.349477230544	12776.297094274
6	189150	25639.185992787796	5146.6645087261
6	189274	25654.92459130317	9057.4232701026
6	189295	25658.755277737622	12751.604707124
6	189306	25660.644143916966	5083.3464505614
6	189345	25665.401344500549	5081.2765977874
6	189479	25684.29378683397	8983.9339156205
6	189563	25696.041433486505	8928.0493782524
6	189668	25708.998013444641	20813.447472849
6	189676	25710.326702647959	24654.384294483
6	189913	25741.731860659896	18330.334284323
6	190043	25759.47119422068	8960.3087435928
6	190086	25766.14781704179	24206.935182347
6	190143	25774.883035270748	5079.4710377408
6	190217	25784.457161486259	20801.873951773
6	190309	25796.867988532148	20741.804503429
6	190356	25803.210203553988	5070.5850328198
6	190462	25817.422765434877	20739.339262571
6	190514	25826.328269267798	15959.254689497
6	190540	25829.314376879315	12648.598275633
6	190554	25830.484713708208	15956.590351064
6	190726	25853.50544790618	5078.3756953856
6	190816	25866.42712368534	5020.1867789879
6	191387	25944.557992999924	5012.7382637113
6	191475	25958.036813016487	8929.3701368544
6	191488	25960.267715266411	12699.196117229
6	191491	25960.881420694635	12693.059831992
6	191591	25976.317490433782	19746.327550677
6	192696	26124.353210627918	16185.731753867
6	193856	26280.972959579686	20020.870721168
6	193870	26283.469168855036	5272.775567748
6	193913	26288.761237412896	5228.1953073968
6	193921	26290.198729578471	21165.328661967
6	194153	26321.357104741009	5184.8441518685
6	194207	26330.727682833763	16370.580842415
6	194215	26332.213886045589	5172.4970641126
6	194254	26338.649618337181	20032.528797443
6	194261	26339.482112404675	20026.282175061
6	194297	26344.580630741658	18502.163792677
6	194343	26352.832580521815	24363.248977143
6	194358	26355.034179044394	18502.403426336
6	194487	26370.959413101359	16303.979930918
6	194490	26371.599920311778	16303.165889075
6	194533	26376.732533064273	5120.687731454
6	194875	26421.086854229703	9232.6245241991
6	194897	26423.169776165508	5121.5621207357
6	195056	26445.032812263888	5094.5890132327
6	195493	26503.374808728017	4930.7246453952
6	195498	26504.030997965319	4927.0416802846
6	197679	26805.119923928633	5204.8606500547
6	198011	26850.473229584345	5198.2565256359
6	199074	26991.18368573456	9746.9379319972
6	199176	27003.630300118792	5316.7107074289
6	199249	27013.812055345129	19098.898703836
6	199257	27015.438394101447	16880.132924871
6	199295	27020.643946650549	19102.995945857
6	199351	27030.016107424878	19090.795455926
6	199480	27048.538308442912	13483.310063594
6	199488	27049.59181324776	13481.380217728
6	199529	27055.509907107304	13462.895212861
6	199537	27057.234299228264	25233.908668706
6	199614	27068.660233579918	5323.8866926994
6	199622	27070.145722260761	5321.8469050683
6	199681	27078.295989849947	13468.216401595
6	199923	27107.301740958981	19120.523176462
6	200181	27143.050721410123	13470.9982742
6	200289	27157.426700798955	24885.587760088
6	200380	27171.578726690609	16949.309776644
6	200422	27176.630587385335	9631.7941875022
6	200874	27238.520410306864	21889.092783091
6	200972	27253.085758752953	26549.195149285
6	201055	27263.402710628853	19219.223208615
6	201149	27277.098074578187	16955.224286086
6	201541	27329.439445118671	9670.4915534389
6	201575	27334.366672633189	5351.2078071998
6	201621	27341.484759603043	19189.7871891
6	201631	27342.828806229655	24800.873625793
6	201698	27351.866385414425	9674.0585463223
6	201717	27354.111569564158	13469.787123443
6	201769	27360.802576039939	5339.5372136051
6	202022	27393.615555658259	9663.0157572826
6	202050	27397.71845411614	5354.5057484882
6	202255	27427.450182582136	13435.607875328
6	202446	27452.750949149229	13449.694972974
6	202679	27481.988698892134	9697.0702780535
6	202989	27521.910954905836	5352.8363147092
6	203199	27551.086789925838	5371.6298219052
6	203253	27559.123786235113	5375.9807706944
6	203261	27560.41137964388	9674.8549583095
6	203287	27564.188061777761	19308.694228053
6	203450	27585.666826730011	5379.4808595249
6	203746	27627.712236755317	19309.582034473
6	203923	27651.292314447065	5254.6115713005
6	203944	27654.65869136194	5230.904218273
6	203949	27655.512193846211	5231.6144471197
6	203996	27662.942576733392	5181.2236345764
6	204116	27679.13976141021	19248.243872059
6	204279	27704.067940181238	25001.532400628
6	204341	27712.799432220658	19268.298390195
6	204530	27738.208180296537	13512.368022055
6	204676	27755.638521821724	9737.5815456756
6	204706	27760.831221445251	5232.450856934
6	204711	27761.753693908892	9738.1280577472
6	204766	27768.268641203288	22301.726272628
6	204799	27774.052501827078	17242.911770287
6	204812	27775.826430663811	5237.5647165391
6	204828	27777.241872354149	5236.7724648205
6	204835	27778.165850593726	9704.5980172573
6	204864	27782.270971314209	9707.6004005651
6	205156	27822.50283783187	13493.385659748
6	205330	27846.478556795108	5280.3825177086
6	205341	27848.912010769981	9750.8681594014
6	205516	27871.716934082532	13471.597011952
6	205634	27888.529286140216	21235.825414304
6	205723	27901.776352125745	5282.1170584935
6	205824	27913.858484602407	5280.129985697
6	208017	28214.594410554652	10030.554536914
6	208028	28216.408940252715	5521.8469134427
6	208044	28219.614639942727	10016.371680939
6	208244	28246.403600598179	21580.179833071
6	208378	28266.038620074751	13703.164957074
6	208520	28285.468544917233	5541.2977423603
6	209320	28394.152958363576	13803.256667499
6	209423	28409.193494378544	13784.578475454
6	209439	28411.450440317626	22788.054882256
6	209590	28432.815051219288	10179.965611867
6	209684	28445.481188583653	10184.782456693
6	209687	28446.274048467725	13809.006718183
6	209692	28447.065788651769	24304.827269669
6	209695	28447.880449609644	13808.549577224
6	209706	28449.866857794532	13806.017074997
6	209735	28452.571014852682	10173.970030465
6	209948	28480.302995898295	17784.450456879
6	210017	28490.167383034902	19868.268603571
6	210157	28510.419939768504	13795.841173164
6	210176	28512.518727440763	5579.6521511941
6	210205	28515.465060921761	13798.261297861
6	210223	28517.02581831287	13798.04948958
6	210231	28518.494856706591	10097.992199992
6	210303	28530.019390984768	13769.735644705
6	210313	28531.331356251383	13770.400528238
6	210411	28546.715639966265	13692.379356204
6	210460	28553.545974464114	17679.861665637
6	210578	28567.29376151171	19912.473683451
6	211263	28658.684614659105	5654.1755830433
6	211289	28664.078743558241	13685.460483333
6	211332	28670.357695321976	17712.943172764
6	211386	28677.598045531387	13680.646370296
6	211646	28711.527543926808	5690.0650708103
6	211658	28713.242683065506	17729.336206183
6	211840	28740.440732237149	24376.977217357
6	212215	28789.982630455832	5688.8090210078
6	212399	28814.610132804619	5679.9930550245
6	212759	28867.008009096152	22102.67761381
6	212847	28879.176566227442	5684.9977943035
6	213167	28920.696716928863	5719.9530309868
6	213294	28940.454745469487	13840.967570292
6	213589	28976.599617168602	13846.27217036
6	213710	28993.56736711023	5713.7585862707
6	213716	28994.547763814	5703.0822723695
6	213739	28997.700001969949	13854.959913212
6	213924	29021.238681658513	26233.19182691
6	214655	29121.371327763305	13963.850857605
6	214658	29121.958858916883	5709.5589190772
6	214713	29130.860912549144	13943.515850556
6	214867	29151.707886014992	5710.5327792586
6	214913	29158.653337754654	5712.8963858246
6	214926	29161.318914823532	10559.604219666
6	214948	29164.624791253004	5710.6989371831
6	214951	29165.286043456681	5709.4906872307
6	214959	29167.124758838694	20270.650832043
6	214978	29170.978783461842	20261.471455992
6	215035	29178.736335116085	5661.0148100376
6	215435	29235.386169708259	22430.541836517
6	215550	29249.51964817156	14002.361688641
6	215579	29253.514917043847	22410.263084383
6	215668	29266.731598533567	5529.5680925853
6	215795	29283.49087245615	26432.36838861
6	215800	29284.215463148726	14022.386525191
6	215820	29287.549988021485	18194.610662992
6	215868	29294.949025031662	22379.450143213
6	215921	29302.785580110986	5531.5703951462
6	216217	29341.52700151528	18122.781554793
6	216307	29352.459570093143	22416.247183563
6	216712	29405.398807024739	26438.162340518
6	216759	29412.472979599486	5587.1670733014
6	217123	29459.77570442298	10711.097882267
6	217139	29462.113249933407	5613.8351439417
6	217188	29469.571431471327	20431.060114141
6	217239	29476.40989698536	5610.9713346462
6	217285	29482.899764086458	5574.6018446239
6	217324	29487.965287796095	5547.5789950549
6	217423	29501.01046385431	22528.26616553
6	217456	29505.680086673715	20440.405802752
6	217489	29511.616388781381	23743.269760132
6	217492	29512.548681156862	5519.7630994037
6	217506	29514.340175911796	18177.883477175
6	217535	29517.514704355656	18163.957345413
6	217708	29539.805396496424	10564.614854834
6	217778	29548.703263307655	10543.284751304
6	218044	29588.378309640719	5451.926518106
6	218190	29606.67596327091	10453.268165986
6	218298	29622.588757732524	5444.4414415219
6	218326	29626.642200736017	18249.396055885
6	218456	29645.729000690176	18120.865527263
6	218478	29649.192408016712	18100.766910749
6	218483	29649.622992966852	18099.860889989
6	218486	29650.599424509114	5441.6169780156
6	218525	29655.048926799527	5438.7016858666
6	218595	29665.702411699357	10361.240630438
6	218618	29668.736732341551	5423.0347138602
6	218639	29672.174000302625	14176.866891238
6	218693	29679.572454602474	17968.022008929
6	218813	29694.010827474498	10361.454299897
6	218833	29697.416748351711	5408.7634118522
6	218934	29712.167518876273	10372.542215418
6	218951	29714.003164008878	17977.854915447
6	219033	29725.230400567793	14210.370426021
6	219209	29748.366094489034	17963.087591635
6	219259	29755.89329186977	10356.069314836
6	219429	29778.727783530493	17961.128501945
6	219456	29782.609132473597	14238.135054679
6	219481	29787.283798408514	17942.716409242
6	219492	29789.24592219289	10330.605893041
6	219555	29796.140265221342	17901.954970569
6	219614	29803.990737161467	14238.469176721
6	219817	29831.590792290501	10339.420450208
6	220013	29858.052825738497	24010.558044185
6	220033	29860.610335034233	5458.2338269581
6	220071	29866.027613644402	17835.900031377
6	220079	29867.525272640779	17836.11663502
6	220159	29879.814758053939	17773.323741341
6	220370	29906.994235838813	10363.260402792
6	220376	29908.560126280462	17668.278289869
6	220627	29941.343773317248	20722.905340307
6	220647	29944.296363030705	20709.513429566
6	220742	29958.999197798554	24047.982746093
6	220755	29960.737648964167	20715.649267255
6	220806	29967.671506799391	24047.96370749
6	220933	29985.348434632279	17533.814969268
6	220986	29993.888890671179	14292.672591206

