version 2
run First_exit_5-1-20191017-13:43:27-1822
attr configname First_exit_5
attr datetime 20191017-13:43:27
attr experiment First_exit_5
attr inifile omnetpp.ini
attr iterationvars ""
attr iterationvarsf ""
attr measurement ""
attr network ResponseTimeNetwork
attr processid 1822
attr repetition 1
attr replication #1
attr resultdir results
attr runnumber 1
attr seedset 1
param **.Source.interArrivalTime exponential(4s)
param **.jobPriority bernoulli(0.4)
param **.PS.serviceTimeU1 "uniform(0.4s, 1.0s)"
param **.PS.serviceTimeU2 "uniform(1s, 1.2s)"
param **.SS1.serviceTime exponential(0.4s)
param **.SS2.serviceTime exponential(0.8s)
param **.PS.exitProbability bernoulli(0.5)

vector 0 ResponseTimeNetwork.SS1 queueLength:vector ETV
attr interpolationmode sample-hold
attr title "queue length, vector"
vector 1 ResponseTimeNetwork.SS2 queueLength:vector ETV
attr interpolationmode sample-hold
attr title "queue length, vector"
vector 2 ResponseTimeNetwork.QueueU1 queueLength:vector ETV
attr interpolationmode sample-hold
attr title "queue length, vector"
vector 3 ResponseTimeNetwork.QueueU2 queueLength:vector ETV
attr interpolationmode sample-hold
attr title "queue length, vector"
vector 4 ResponseTimeNetwork.sink lifeTimeU2:vector ETV
attr interpolationmode none
attr title "lifetime of arrived jobs U2, vector"
attr unit s
vector 5 ResponseTimeNetwork.sink lifeTime:vector ETV
attr interpolationmode none
attr title "lifetime of arrived jobs, vector"
attr unit s
vector 6 ResponseTimeNetwork.sink lifeTimeU1:vector ETV
attr interpolationmode none
attr title "lifetime of arrived jobs U1, vector"
attr unit s
0	0	0	0
0	1075	459.312267624022	1
0	1076	459.88275836089	0
0	1680	706.821015671152	1
0	1681	706.934656808489	0
0	1739	730.315549870315	1
0	1741	730.749908898356	0
0	2516	1007.778670250875	1
0	2523	1008.58089441417	0
0	4300	1765.292544340546	1
0	4301	1765.314904000203	0
0	4305	1765.802611899155	1
0	4306	1766.004051346426	0
0	5022	2101.603011934726	1
0	5024	2101.620640583253	0
0	5635	2413.13428584994	1
0	5639	2413.494443419115	0
0	6807	2900.598066162071	1
0	6809	2900.599874897922	0
0	8275	3417.34358807027	1
0	8281	3418.17595029976	0
0	11552	4771.811742310828	1
0	11554	4771.982773554775	0
0	18430	7643.9744699341	1
0	18431	7644.262203101338	0
0	18705	7749.525003861694	1
0	18706	7749.758297628975	0
0	20507	8436.82932881144	1
0	20509	8437.269987486828	0
0	21207	8726.887361728938	1
0	21209	8727.163032772641	0
0	22549	9229.803226985325	1
0	22559	9231.231005037309	0
0	22652	9284.911837838023	1
0	22654	9285.21133580516	0
0	22900	9387.681246688019	1
0	22901	9388.088983875725	0
0	23295	9502.967208698071	1
0	23296	9503.586122652977	0
0	25410	10266.290811395823	1
0	25411	10266.453376943557	0
0	28055	11364.283397519383	1
0	28056	11364.365608123478	0
0	28067	11365.379860476472	1
0	28074	11366.724898886451	0
0	28995	11814.219863718225	1
0	28996	11814.363426578961	0
0	29190	11871.438381179056	1
0	29191	11871.699673326468	0
0	34902	14186.735087266208	1
0	34904	14187.260821925317	0
0	36540	14833.823185015758	1
0	36541	14834.675618755477	0
0	36974	15078.089780835361	1
0	36981	15078.902621717675	0
0	38820	15721.700940355057	1
0	38821	15722.456003381799	0
0	38825	15723.229879187535	1
0	38829	15723.71095257978	0
0	40177	16292.891402962058	1
0	40179	16293.051658571038	0
0	40295	16345.195951820993	1
0	40296	16345.412212340926	0
0	40759	16479.82414353268	1
0	40763	16480.057395369015	0
0	44737	18165.45490701441	1
0	44741	18166.940715094319	0
0	44780	18172.269477894138	1
0	44781	18172.88961199841	0
0	44785	18173.40751857392	1
0	44786	18173.503229442062	0
0	45725	18523.594958016367	1
0	45729	18524.145813664818	0
0	46585	18870.004190293285	1
0	46586	18871.127718281964	0
0	47885	19367.396557446807	1
0	47890	19368.15894598626	2
0	47891	19368.539767609648	1
0	47894	19368.632593715271	0
0	47907	19370.296820649989	1
0	47909	19370.638908586563	0
0	48945	19740.408728024934	1
0	48946	19740.667360356605	0
0	48975	19753.759111233581	1
0	48976	19753.824137340118	0
0	49110	19813.139074253099	1
0	49111	19813.35209845042	0
0	50037	20082.618059282955	1
0	50039	20082.815657679508	0
0	51155	20483.362108926114	1
0	51159	20484.181933904091	0
0	53045	21216.353579410606	1
0	53046	21216.403466660477	0
0	53964	21633.384887537198	1
0	53966	21633.684909678299	0
0	55420	22188.863919444738	1
0	55421	22188.901672505419	0
0	57264	22892.822085639548	1
0	57269	22893.470351196958	2
0	57271	22893.772667887368	1
0	57273	22894.344834763842	0
0	57292	22896.729242654837	1
0	57294	22897.113467951041	0
0	57309	22898.596824915562	1
0	57311	22898.691331231734	0
0	58100	23173.597089178981	1
0	58109	23174.829247070907	0
0	58240	23239.102439435966	1
0	58241	23239.237316852476	0
0	58877	23476.499768853032	1
0	58881	23477.511112244301	0
0	58900	23481.34709443465	1
0	58901	23481.61911958111	0
0	58907	23482.293234951231	1
0	58909	23482.633101915503	0
0	59065	23559.473370227622	1
0	59068	23560.171833940441	2
0	59070	23560.51325857846	1
0	59074	23560.622713699366	0
0	59504	23676.502249258558	1
0	59506	23676.598402036932	0
0	63520	25415.052715067498	1
0	63521	25415.493967729966	0
0	66807	26752.674364448023	1
0	66809	26753.055732085294	0
0	67547	27084.445090560851	1
0	67549	27084.476755412368	0
0	68864	27612.093674018294	1
0	68868	27612.332447357531	0
0	68884	27615.594774066718	1
0	68886	27615.749133780298	0
0	69832	28057.526918287468	1
0	69834	28057.663212715595	0
0	73790	29671.811576494001	1
0	73791	29672.311608838379	0
1	0	0	0
1	470	175.619102242836	1
1	471	175.90546859173	0
1	850	352.315814668649	1
1	851	352.364086012035	0
1	1780	736.851554349591	1
1	1781	738.730780566226	0
1	2549	1013.21353045578	1
1	2552	1013.947374608245	2
1	2556	1015.095559418923	1
1	2560	1016.06284690497	2
1	2561	1019.342628008019	1
1	2566	1020.504585883043	0
1	2652	1050.945908907283	1
1	2664	1052.213412646297	0
1	2685	1055.628676949622	1
1	2686	1056.155065966063	0
1	2730	1062.441157032867	1
1	2731	1064.23125659969	0
1	2855	1098.787870615384	1
1	2862	1099.876204960157	2
1	2866	1100.581451083494	1
1	2871	1101.749538072604	0
1	2929	1125.54171444505	1
1	2931	1125.682627745618	0
1	2934	1125.990688832537	1
1	2936	1126.253842895351	0
1	3484	1356.441406387849	1
1	3489	1357.592954799135	0
1	3497	1358.766571764195	1
1	3500	1359.332425592573	2
1	3501	1360.9898749262	1
1	3505	1361.923540413324	2
1	3506	1362.399432989642	1
1	3510	1362.827974728368	2
1	3511	1363.099948116954	1
1	3514	1363.221644740406	0
1	3557	1369.294148291277	1
1	3559	1369.818274069775	0
1	3620	1379.39909542598	1
1	3621	1379.606874450824	0
1	4672	1928.066907911137	1
1	4676	1929.414081801622	0
1	6685	2870.025888671091	1
1	6686	2870.959707603667	0
1	6690	2871.62822463109	1
1	6691	2872.02527949801	0
1	6750	2887.958688755921	1
1	6751	2888.203119187756	0
1	6755	2888.619036201574	1
1	6756	2888.995381882777	0
1	6917	2924.116511173084	1
1	6920	2924.576175327602	2
1	6921	2925.264142520548	1
1	6924	2925.466239994147	0
1	6927	2925.666009258953	1
1	6930	2926.339532944662	2
1	6931	2926.780574060684	1
1	6935	2927.257205509009	2
1	6936	2927.627897683106	1
1	6939	2927.644295075385	0
1	6955	2931.343752725538	1
1	6956	2933.034379311311	0
1	7887	3280.849009886358	1
1	7889	3281.245566207276	0
1	7897	3282.289366500286	1
1	7909	3283.282734223193	0
1	7912	3284.089784321457	1
1	7914	3284.581290131557	0
1	7917	3284.634280047182	1
1	7919	3285.522235743659	0
1	7922	3285.623800287757	1
1	7924	3285.69114527544	0
1	8227	3407.574920465706	1
1	8229	3407.63244344097	0
1	8595	3580.300364862635	1
1	8596	3580.662300275926	0
1	8600	3581.599841215469	1
1	8601	3582.384375326791	0
1	8610	3583.94392110709	1
1	8616	3586.173010457993	0
1	8620	3586.827778087078	1
1	8621	3588.042519922327	0
1	8645	3593.642184371808	1
1	8649	3594.418603158909	0
1	8652	3594.660146662834	1
1	8656	3595.314070813347	0
1	8725	3609.970259472075	1
1	8726	3610.667953408772	0
1	8730	3611.16787599859	1
1	8731	3612.173773456442	0
1	8895	3655.126942580666	1
1	8899	3656.761792458365	0
1	9045	3715.019214886376	1
1	9046	3715.491725008227	0
1	9312	3844.864032524343	1
1	9316	3845.801347267593	0
1	9320	3846.218992651499	1
1	9321	3848.389690916149	0
1	9390	3877.701020322828	1
1	9391	3878.974159385333	0
1	9740	4084.022409480541	1
1	9744	4084.266896237329	0
1	9750	4085.602201129959	1
1	9751	4085.843676568461	0
1	10010	4186.193868628989	1
1	10011	4186.277013834573	0
1	10277	4310.757156869088	1
1	10281	4315.396428421958	0
1	10285	4316.039884342885	1
1	10301	4319.128755052459	0
1	10335	4324.265053369615	1
1	10336	4324.666802531263	0
1	10340	4325.200573378584	1
1	10341	4325.765711071506	0
1	10347	4326.692191753141	1
1	10350	4327.094785850193	2
1	10351	4330.443368182529	1
1	10356	4331.354112893317	0
1	10367	4332.932314024328	1
1	10371	4334.19334071644	0
1	10567	4392.65247457611	1
1	10569	4392.783382869235	0
1	10595	4396.908187408714	1
1	10596	4397.458294805785	0
1	10602	4398.441720836697	1
1	10604	4398.779866242806	0
1	10607	4398.854746286426	1
1	10619	4401.003512893982	0
1	10895	4519.848282913456	1
1	10896	4521.098097758876	0
1	10920	4525.783062040414	1
1	10921	4526.421024662287	0
1	10995	4559.404904622063	1
1	10996	4559.458489564799	0
1	11000	4559.911980583837	1
1	11004	4560.550873265577	0
1	11240	4651.910540777296	1
1	11241	4652.607183036512	0
1	11250	4653.613459867264	1
1	11251	4654.281978398023	0
1	11870	4918.759949050205	1
1	11871	4918.869239560874	0
1	12072	4979.112157120414	1
1	12074	4979.181807547739	0
1	12092	4982.231484664555	1
1	12094	4982.792976412809	0
1	12100	4983.419925811139	1
1	12104	4984.258478461528	0
1	12107	4984.736191714519	1
1	12111	4986.776664088126	0
1	12115	4987.213031019801	1
1	12116	4987.765626057927	0
1	12120	4988.700192664462	1
1	12121	4989.666509480443	0
1	12565	5175.936745615135	1
1	12566	5176.08094130635	0
1	13430	5585.188276843146	1
1	13431	5585.868384331415	0
1	13910	5779.900763183057	1
1	13911	5780.794002206798	0
1	13960	5797.105783614289	1
1	13961	5797.529644631637	0
1	13965	5797.934498587712	1
1	13966	5798.533279741393	0
1	14015	5822.458795053695	1
1	14016	5822.781740245839	0
1	14220	5915.86374679889	1
1	14225	5917.020981898461	2
1	14226	5918.360429949966	1
1	14229	5918.921335731301	0
1	14232	5919.072907849635	1
1	14234	5919.539288294485	0
1	14237	5919.702696224163	1
1	14244	5920.566454836447	2
1	14246	5920.754967679867	1
1	14251	5921.166931874344	0
1	15120	6303.51029453899	1
1	15121	6303.867051802843	0
1	15130	6305.546627198474	1
1	15131	6305.875022281696	0
1	15444	6402.007750378764	1
1	15446	6402.076410211469	0
1	15697	6496.826445628336	1
1	15701	6499.962637695307	0
1	15705	6500.670895135878	1
1	15706	6502.150978727297	0
1	15752	6512.474963459666	1
1	15759	6513.862915554884	0
1	16040	6614.940345362867	1
1	16041	6615.033078507815	0
1	16045	6615.650949791089	1
1	16046	6616.563220610228	0
1	16315	6739.153188692067	1
1	16316	6739.86539199416	0
1	16325	6741.392154788956	1
1	16330	6742.361665638129	2
1	16331	6743.696520888017	1
1	16334	6743.868978211533	0
1	16867	6976.414464383102	1
1	16870	6976.979665354681	2
1	16871	6977.256399295442	1
1	16874	6977.33869345342	0
1	16879	6978.133599000666	1
1	16882	6978.560273725083	2
1	16884	6978.987284073428	1
1	16887	6979.195149796652	2
1	16890	6980.117012631763	3
1	16891	6980.948189593906	2
1	16894	6981.224384810198	1
1	16896	6981.310452951737	0
1	16909	6983.25319537023	1
1	16911	6983.556432610381	0
1	16937	6987.015702865701	1
1	16939	6987.387680852882	0
1	17870	7395.361305824888	1
1	17871	7397.339980281438	0
1	18480	7656.12575582965	1
1	18481	7656.151764568502	0
1	19407	7995.701224966326	1
1	19421	8001.44701509933	0
1	19425	8002.401104384484	1
1	19426	8002.675238935494	0
1	19522	8034.214515561139	1
1	19524	8034.491891892292	0
1	19802	8138.217116726628	1
1	19806	8138.800368607716	0
1	19812	8139.406462913818	1
1	19819	8143.909232555778	0
1	19957	8189.849525445717	1
1	19959	8190.748114057504	0
1	19962	8190.749027482251	1
1	19964	8191.143065422751	0
1	19967	8191.308233860711	1
1	19970	8191.772276029939	2
1	19971	8193.013270097583	1
1	19974	8193.274045949823	0
1	20077	8226.376587975935	1
1	20079	8226.979573777135	0
1	20170	8258.797817678611	1
1	20174	8259.821334574663	0
1	20177	8260.021810347263	1
1	20181	8260.914734704413	0
1	20650	8500.819009612182	1
1	20651	8501.323739519862	0
1	20655	8501.857225232997	1
1	20656	8502.020994211358	0
1	20780	8558.272431141131	1
1	20781	8558.552788272504	0
1	20920	8613.212483704496	1
1	20921	8613.330982506956	0
1	21270	8744.159769430364	1
1	21271	8745.249064800784	0
1	21280	8746.72720157354	1
1	21281	8747.132560854399	0
1	21597	8857.762283112246	1
1	21599	8858.257325969669	0
1	21890	8981.674334265332	1
1	21891	8982.20668264122	0
1	21982	9023.310555293724	1
1	21986	9024.80441938859	0
1	23025	9445.50591534895	1
1	23026	9445.513336444964	0
1	23037	9446.860225315151	1
1	23039	9446.87211435424	0
1	23107	9456.11435646782	1
1	23111	9457.675251298835	0
1	23211	9478.264476919308	1
1	23213	9478.342534084627	0
1	23955	9826.051644957902	1
1	23956	9826.69769339762	0
1	23965	9828.016105599053	1
1	23966	9828.185449791292	0
1	23970	9829.140514613327	1
1	23971	9829.569123336721	0
1	24087	9865.716871444416	1
1	24089	9866.023143371377	0
1	24147	9874.496032793635	1
1	24149	9874.626723536716	0
1	24627	10058.250330303226	1
1	24629	10058.387144441537	0
1	24835	10101.200635196315	1
1	24839	10101.547109689973	0
1	24842	10101.765342992885	1
1	24844	10102.241925201384	0
1	24975	10159.973814211575	1
1	24976	10160.047064046317	0
1	24987	10161.621432729938	1
1	24991	10163.039833621708	0
1	25030	10174.259240375302	1
1	25031	10174.751618758383	0
1	25100	10201.306201026256	1
1	25101	10201.905872403132	0
1	25120	10205.192420225617	1
1	25121	10205.312721046171	0
1	25172	10213.35231939602	1
1	25175	10213.923260769027	2
1	25176	10215.36541140599	1
1	25184	10215.964047368549	2
1	25186	10216.39495398573	1
1	25191	10216.502768244963	0
1	25194	10216.875562853252	1
1	25198	10217.418344675657	0
1	25201	10217.538861755074	1
1	25203	10217.643877077743	0
1	25211	10218.843702735079	1
1	25215	10219.312538217522	0
1	25592	10367.250778403929	1
1	25599	10370.645076900283	0
1	25775	10453.919442558585	1
1	25776	10453.97529903663	0
1	25780	10454.658668541523	1
1	25781	10455.645957877271	0
1	25792	10456.947579401935	1
1	25795	10457.505997900635	2
1	25796	10458.200009126479	1
1	25799	10458.237319528226	0
1	25802	10459.013303762332	1
1	25804	10459.606492011834	0
1	26094	10569.861768807529	1
1	26096	10570.028226904074	0
1	26304	10680.6955180215	1
1	26306	10680.7727462431	0
1	26770	10860.1910745654	1
1	26771	10861.197121500565	0
1	26777	10862.120207478866	1
1	26786	10864.989597747146	0
1	27047	10968.263033203306	1
1	27049	10968.734977003214	0
1	27052	10969.089374411842	1
1	27054	10969.242048866196	0
1	27059	10969.501301721195	1
1	27067	10970.569760454018	2
1	27069	10971.076222178961	1
1	27076	10972.052317770327	0
1	27089	10974.140966588436	1
1	27093	10974.698558735236	0
1	27096	10974.767569699921	1
1	27101	10975.783260427126	0
1	27480	11132.551575901368	1
1	27489	11136.286276385717	0
1	27827	11255.772198885273	1
1	27830	11256.198560399063	2
1	27831	11257.900432775038	1
1	27836	11258.040831505873	0
1	27839	11258.76110286625	1
1	27844	11259.971437028314	0
1	27847	11260.18780362863	1
1	27849	11260.679453404857	0
1	28120	11373.192037892078	1
1	28121	11373.544966501031	0
1	28125	11374.310590924216	1
1	28126	11377.760704442792	0
1	28140	11382.569683894111	1
1	28141	11383.519965421405	0
1	28210	11414.737146383749	1
1	28211	11415.492936611563	0
1	28670	11631.129388293776	1
1	28671	11632.629984208909	0
1	28955	11789.317856159069	1
1	28956	11790.046122709642	0
1	30295	12339.805789230515	1
1	30296	12339.946090848247	0
1	30520	12455.587497528743	1
1	30521	12456.408395900072	0
1	30525	12457.012046414155	1
1	30526	12457.779901995979	0
1	30852	12566.233181093081	1
1	30856	12567.206673152563	0
1	31277	12728.655008415943	1
1	31282	12729.313801389765	2
1	31286	12731.207664448972	1
1	31291	12732.263087525013	0
1	31515	12811.201222485605	1
1	31516	12811.400252536164	0
1	31520	12812.265425766996	1
1	31521	12813.753487066265	0
1	31542	12816.318301210312	1
1	31546	12818.737598486444	0
1	31900	12938.805923665065	1
1	31901	12939.081282101977	0
1	32105	13013.757644704313	1
1	32106	13015.011781633999	0
1	32265	13091.469822053809	1
1	32266	13091.592598056745	0
1	32557	13237.930420429296	1
1	32561	13238.601931625588	0
1	32895	13369.697870293429	1
1	32896	13370.524155943447	0
1	32985	13414.563676850669	1
1	32986	13415.726782785803	0
1	32995	13417.162467848397	1
1	32996	13417.211770034177	0
1	33055	13435.103078967223	1
1	33056	13435.310779159684	0
1	33155	13478.23019412748	1
1	33156	13478.478550714676	0
1	33160	13479.289330859764	1
1	33161	13481.436116682792	0
1	33907	13813.993123561515	1
1	33910	13814.451359939713	2
1	33911	13815.625103751684	1
1	33916	13817.111542705105	0
1	34690	14131.078297690835	1
1	34691	14131.321989281804	0
1	34880	14181.541184939174	1
1	34907	14187.363240204162	2
1	34911	14188.179424392399	1
1	34919	14189.160047175525	0
1	34922	14189.653130785951	1
1	34927	14190.171925048872	2
1	34929	14190.669318608257	1
1	34934	14191.671839870033	0
1	34952	14194.532275624776	1
1	34954	14194.596416405589	0
1	34959	14195.211043643363	1
1	34961	14195.498095223324	0
1	35465	14401.4572861821	1
1	35466	14401.637621533203	0
1	35514	14409.674696028974	1
1	35522	14411.308957305267	2
1	35526	14411.567805039414	1
1	35532	14412.611171933259	2
1	35534	14412.6794037953	1
1	35537	14413.295885082376	2
1	35540	14413.899180761021	3
1	35541	14414.084668680524	2
1	35544	14414.866765410198	1
1	35547	14415.027738510875	2
1	35550	14415.805615438206	3
1	35556	14418.125873010858	2
1	35559	14418.240389044615	1
1	35564	14418.720753162232	0
1	35567	14419.28196443014	1
1	35569	14419.428452011892	0
1	35572	14419.964159273749	1
1	35576	14423.23515409558	0
1	35935	14581.034041974629	1
1	35936	14581.120480432416	0
1	35940	14581.818937592822	1
1	35941	14581.837361736912	0
1	36435	14801.36870184008	1
1	36436	14801.523755393552	0
1	37030	15088.494144706478	1
1	37031	15089.584976882767	0
1	37385	15229.841241843647	1
1	37391	15231.725728686535	0
1	37395	15232.378471926189	1
1	37396	15233.193398018741	0
1	37545	15306.75222134642	1
1	37546	15307.840850525008	0
1	37575	15313.098927671537	1
1	37576	15313.127674515371	0
1	37747	15378.429106699575	1
1	37749	15378.74305503192	0
1	37752	15379.070344601564	1
1	37755	15379.955208378604	2
1	37756	15380.142678404699	1
1	37759	15380.325261111428	0
1	37902	15417.63648077167	1
1	37904	15417.784860033657	0
1	38005	15450.814706203129	1
1	38006	15451.059700230445	0
1	38010	15451.752242075308	1
1	38011	15453.425286640081	0
1	38430	15604.170790003167	1
1	38431	15604.282959937386	0
1	39085	15811.761138179906	1
1	39086	15811.809003661028	0
1	39224	15865.520848725024	1
1	39226	15865.638059868717	0
1	39950	16175.624018622281	1
1	39951	16177.010329406255	0
1	40245	16309.002610471536	1
1	40246	16311.005183412461	0
1	40565	16420.102073317034	1
1	40566	16420.241764265252	0
1	41557	16843.369320111332	1
1	41561	16844.889181897064	0
1	41930	16995.351185935022	1
1	41931	16995.531509620333	0
1	42902	17436.883779879404	1
1	42904	17437.090849176351	0
1	43135	17553.294608197627	1
1	43136	17553.585729936005	0
1	43385	17699.540336768058	1
1	43386	17699.619258090962	0
1	43475	17741.983146804444	1
1	43476	17742.045108405328	0
1	43687	17822.643735921016	1
1	43689	17823.179320544229	0
1	43692	17823.295177596254	1
1	43696	17824.490575421235	0
1	43710	17826.569956937299	1
1	43711	17828.850822914997	0
1	43807	17848.184908239122	1
1	43810	17848.891312605047	2
1	43811	17850.839504759796	1
1	43815	17851.647457119115	2
1	43819	17852.002701966358	1
1	43826	17852.849944852896	0
1	43842	17855.631362686116	1
1	43844	17856.139731501968	0
1	43854	17857.273702349324	1
1	43856	17857.425970470016	0
1	44052	17904.083447269263	1
1	44059	17905.723926283336	0
1	44430	18040.780918618466	1
1	44431	18041.878484873265	0
1	45273	18353.362235537867	1
1	45275	18353.672642747938	0
1	45390	18375.893531241377	1
1	45391	18376.520986089922	0
1	45395	18377.175903295326	1
1	45396	18377.258933839993	0
1	45430	18396.513183539259	1
1	45434	18396.904150694538	0
1	46060	18673.514669129467	1
1	46061	18673.74205740962	0
1	46065	18674.384084846795	1
1	46066	18674.57173366921	0
1	46080	18676.974295200752	1
1	46081	18677.078593653285	0
1	46085	18677.527399474693	1
1	46089	18677.792436052139	0
1	46102	18679.540294075287	1
1	46111	18680.589490681866	0
1	46114	18681.0103006776	1
1	46122	18681.875067946552	2
1	46126	18683.22602451408	1
1	46129	18683.578380438702	0
1	46135	18684.492988031001	1
1	46136	18684.72926676913	0
1	46515	18854.432025820758	1
1	46519	18854.770622766123	0
1	46522	18855.412614438984	1
1	46529	18856.534232350712	0
1	46532	18856.949869152125	1
1	46536	18858.755388418605	0
1	46540	18859.224302515966	1
1	46541	18859.258870985937	0
1	46905	18993.593120991716	1
1	46906	18993.600468514656	0
1	46915	18994.464972363582	1
1	46916	18994.986215611328	0
1	47015	19033.686234882787	1
1	47016	19034.236357147386	0
1	47155	19069.551065423479	1
1	47156	19069.80408389155	0
1	47160	19070.5918786544	1
1	47161	19070.888465276486	0
1	47260	19101.0031255048	1
1	47261	19101.041750349224	0
1	47270	19102.472806923211	1
1	47271	19102.663772242983	0
1	47679	19282.184135014723	1
1	47681	19282.259818317521	0
1	48075	19445.183834160706	1
1	48076	19445.740154322547	0
1	48164	19469.200121885798	1
1	48166	19469.811944236422	0
1	48169	19470.154351572161	1
1	48171	19470.659761791427	0
1	48335	19523.367617938818	1
1	48336	19524.040514190247	0
1	48435	19539.595314279877	1
1	48441	19541.258507937357	0
1	48465	19545.063082681941	1
1	48466	19545.776366813483	0
1	48490	19549.917121798953	1
1	48491	19550.971802962165	0
1	48495	19551.849408684963	1
1	48496	19552.423201467632	0
1	49020	19769.962867501928	1
1	49021	19770.406682716495	0
1	49277	19855.090229269877	1
1	49281	19856.189250753	0
1	49285	19856.675264570694	1
1	49286	19857.056673127724	0
1	49327	19863.729012446701	1
1	49330	19864.262249163528	2
1	49331	19864.959987516321	1
1	49336	19865.965546677077	0
1	50465	20233.220157614063	1
1	50466	20234.416872361911	0
1	50470	20234.999007943322	1
1	50471	20235.163137992602	0
1	50475	20235.695995108122	1
1	50476	20235.897008699445	0
1	50977	20394.723696881881	1
1	50979	20394.967157496687	0
1	50982	20395.207557720434	1
1	50985	20395.943487130873	2
1	50986	20396.731705193684	1
1	50989	20397.518054526389	0
1	51549	20572.945812491439	1
1	51551	20573.041357152783	0
1	52047	20806.540496733308	1
1	52049	20806.569437547449	0
1	52054	20807.18192796571	1
1	52056	20807.256843703177	0
1	52140	20823.247630066101	1
1	52141	20829.247321447735	0
1	53400	21355.517919498273	1
1	53405	21356.827932363853	2
1	53406	21357.542917589084	1
1	53410	21358.473851496107	2
1	53411	21358.670315604081	1
1	53414	21358.757679327702	0
1	53510	21427.36654433253	1
1	53511	21427.633601477241	0
1	54025	21643.034385960526	1
1	54026	21644.777552114055	0
1	54032	21645.40902406131	1
1	54037	21646.127435164899	2
1	54041	21646.248697733781	1
1	54043	21646.254293352	0
1	54046	21646.827333312622	1
1	54048	21647.550758921654	0
1	54342	21775.138355409908	1
1	54346	21775.734277885782	0
1	54352	21776.470654762585	1
1	54356	21776.967315018731	0
1	54845	21949.253659398807	1
1	54846	21949.871686904422	0
1	54850	21950.496016041479	1
1	54851	21950.792735681471	0
1	54990	22032.159744555671	1
1	54991	22032.909507060265	0
1	55042	22053.948129926283	1
1	55049	22054.725396181419	0
1	55054	22055.413731126847	1
1	55059	22056.211564205365	0
1	55170	22090.940540827637	1
1	55171	22092.268243152554	0
1	55175	22093.099111190204	1
1	55176	22093.75930318293	0
1	55365	22175.839992010588	1
1	55376	22177.765000424494	0
1	55400	22184.199507085333	1
1	55401	22184.881520778379	0
1	55760	22283.735241964863	1
1	55761	22284.03460770003	0
1	55765	22284.458042442384	1
1	55766	22284.96437600178	0
1	56300	22499.389520047073	1
1	56305	22502.086367442417	2
1	56306	22503.653992606052	1
1	56309	22504.193540669274	0
1	56312	22504.444240586697	1
1	56314	22504.875359888978	0
1	56555	22580.257632474571	1
1	56556	22580.277139602394	0
1	56577	22583.486143975637	1
1	56580	22584.025507004538	2
1	56585	22584.862507918025	3
1	56586	22585.072882818528	2
1	56589	22585.277814353549	1
1	56591	22585.341112158624	0
1	56594	22585.518144961963	1
1	56596	22585.520252981951	0
1	56615	22589.148511557146	1
1	56616	22589.548049236372	0
1	56850	22703.335095497958	1
1	56851	22704.63324005055	0
1	57385	22922.739967304509	1
1	57386	22923.075967433328	0
1	57402	22925.671041245457	1
1	57404	22925.840569960106	0
1	57425	22929.224219268864	1
1	57437	22930.615556756229	2
1	57439	22930.682033690371	1
1	57441	22931.015878706716	0
1	57785	23025.03387884308	1
1	57786	23025.09374501496	0
1	57825	23040.094547707478	1
1	57826	23040.586283296739	0
1	57830	23041.097839103845	1
1	57834	23041.970837521371	0
1	58497	23383.761924875976	1
1	58499	23383.982554048645	0
1	58504	23384.600332731131	1
1	58507	23385.182420459559	2
1	58509	23385.228411580148	1
1	58511	23385.681999972407	0
1	58514	23385.827653501678	1
1	58516	23386.562612568038	0
1	58519	23386.82052708774	1
1	58521	23387.169566774205	0
1	58529	23388.423426330724	1
1	58532	23388.91366002693	2
1	58534	23389.523574769977	1
1	58537	23389.685725967709	2
1	58544	23391.062177101577	1
1	58549	23391.282300678279	0
1	58554	23391.787240446156	1
1	58559	23392.235518519457	0
1	58605	23399.777372764175	1
1	58606	23399.781219492868	0
1	59139	23570.45123732361	1
1	59141	23570.754312588295	0
1	59177	23576.14868200305	1
1	59179	23576.602809103399	0
1	59575	23695.551544572087	1
1	59576	23696.660413939771	0
1	59785	23768.688883503069	1
1	59786	23771.451505223824	0
1	59790	23772.361247946671	1
1	59791	23772.915161773597	0
1	60045	23865.517950353568	1
1	60046	23866.655467509707	0
1	60450	24063.052582330001	1
1	60451	24063.619973474373	0
1	60467	24065.601195361003	1
1	60470	24066.342413674392	2
1	60474	24067.468117356229	1
1	60481	24068.118851204711	0
1	61275	24407.055618065768	1
1	61276	24407.33077760339	0
1	61850	24702.379875169983	1
1	61851	24702.515444979174	0
1	61892	24722.942864020659	1
1	61894	24723.365243797986	0
1	61902	24724.318602835644	1
1	61906	24724.58160613022	0
1	61975	24752.828893958549	1
1	61976	24753.141281869865	0
1	62055	24782.913537867084	1
1	62056	24783.857451694829	0
1	62062	24784.650271180363	1
1	62066	24785.713839238156	0
1	62900	25162.411489952641	1
1	62904	25162.788756161996	0
1	63220	25304.730451799768	1
1	63221	25305.219629037857	0
1	63225	25306.085610016912	1
1	63229	25307.051587178727	0
1	63726	25524.516162129472	1
1	63728	25524.727151218283	0
1	63748	25527.668560081841	1
1	63750	25527.782654522346	0
1	63758	25529.464925771374	1
1	63760	25529.736035094411	0
1	63763	25530.093522159504	1
1	63766	25531.070362541946	2
1	63768	25531.583302758882	1
1	63770	25531.878800095948	0
1	63773	25531.973245729534	1
1	63775	25532.27204086935	0
1	63816	25537.351175907887	1
1	63820	25537.437922381607	0
1	63831	25539.340671620593	1
1	63836	25540.62915147657	0
1	63839	25541.009007606591	1
1	63841	25541.379959302973	0
1	63844	25541.548265032592	1
1	63846	25541.707572599398	0
1	63856	25542.675878366438	1
1	63858	25542.829667729946	0
1	63861	25543.481607445079	1
1	63863	25543.675192347267	0
1	63866	25544.152245805209	1
1	63868	25544.276266316733	0
1	64710	25883.868531879325	1
1	64711	25885.359545681282	0
1	64717	25885.912647892377	1
1	64719	25886.329294739567	0
1	65377	26134.013527364397	1
1	65379	26134.627208422992	0
1	65785	26328.314634900125	1
1	65786	26328.626198373256	0
1	65790	26329.458769583875	1
1	65791	26329.628848244672	0
1	66059	26455.042127559185	1
1	66061	26455.266882214369	0
1	66135	26486.000036510577	1
1	66136	26486.178147761523	0
1	66155	26490.340362274989	1
1	66156	26490.463607918014	0
1	66160	26490.994064205707	1
1	66161	26491.114553914713	0
1	67105	26905.839954310203	1
1	67110	26906.827523806276	2
1	67114	26907.888759170794	1
1	67116	26908.190185125744	0
1	67119	26908.286653009235	1
1	67126	26909.377243539779	0
1	67129	26909.618595530225	1
1	67131	26909.688096455065	0
1	67152	26913.104160491649	1
1	67156	26913.747683918609	0
1	67240	26941.605825008946	1
1	67241	26942.002476029546	0
1	68531	27486.933363410317	1
1	68533	27487.606556216296	0
1	68539	27488.428634457103	1
1	68541	27488.942865352771	0
1	68557	27491.262544129228	1
1	68561	27492.794155224635	0
1	68625	27506.531806561326	1
1	68626	27506.727259238809	0
1	68905	27618.821859337031	1
1	68909	27619.113257015205	0
1	70079	28197.710578922846	1
1	70081	28198.157719724789	0
1	70087	28198.887406094058	1
1	70089	28199.301724270077	0
1	70092	28199.871748637047	1
1	70094	28200.035039116315	0
1	70117	28203.446591198781	1
1	70119	28203.476384371709	0
1	70127	28205.100278762087	1
1	70129	28205.629043017024	0
1	70319	28272.583830570354	1
1	70321	28272.982795386836	0
1	70329	28273.901363559178	1
1	70337	28274.784861635388	2
1	70344	28275.614681601853	1
1	70350	28277.011993377813	2
1	70355	28278.87441893321	3
1	70356	28279.820013678873	2
1	70359	28279.957160695706	1
1	70361	28280.12051624062	0
1	70390	28286.110963535548	1
1	70394	28286.793706145925	0
1	70410	28289.589406454467	1
1	70411	28290.220843601052	0
1	70612	28405.379402301231	1
1	70616	28405.80199905693	0
1	70650	28411.09862261091	1
1	70651	28411.799517562121	0
1	70975	28509.239514204925	1
1	70976	28509.877202707404	0
1	71325	28671.962619707824	1
1	71326	28673.126342572995	0
1	71690	28823.505424651944	1
1	71691	28824.650267942403	0
1	71725	28832.126891064739	1
1	71726	28832.366356049164	0
1	71730	28833.135222320084	1
1	71731	28833.244229972296	0
1	72432	29170.75643904147	1
1	72436	29171.751877871566	0
1	72525	29190.163161508723	1
1	72526	29191.143252234567	0
1	72530	29191.620555856345	1
1	72531	29192.741632467811	0
1	73629	29611.929478803318	1
1	73631	29612.357008517162	0
1	74085	29765.844232784805	1
1	74086	29768.108676375963	0
1	74286	29831.137787707231	1
1	74298	29833.331891579234	0
1	74301	29833.427652663585	1
1	74305	29833.900017118551	0
1	74319	29835.661680048784	1
1	74326	29837.341778924933	0
2	0	0	0
2	75	57.013284206278	1
2	76	57.081198962448	0
2	92	59.200533601174	1
2	93	59.414352128269	0
2	100	60.049446396282	1
2	101	60.800030469323	0
2	130	69.079474569263	1
2	132	69.483940524024	2
2	133	69.71727197751	1
2	137	69.772989939896	2
2	138	70.432151607318	1
2	142	70.467082580407	2
2	143	71.239452925638	1
2	146	71.766429792286	0
2	190	83.578909076898	1
2	193	84.297640702688	0
2	215	102.462602947269	1
2	216	102.696116780776	0
2	250	115.578401627939	1
2	251	115.892254836714	0
2	285	125.887945997087	1
2	286	125.971239422204	0
2	335	149.824301343193	1
2	336	150.333373710296	0
2	340	150.355095557631	1
2	343	150.749100302641	0
2	354	151.61874634205	1
2	355	152.277427699944	0
2	359	152.603094536232	1
2	360	152.844419005528	0
2	364	152.88282801266	1
2	367	153.595874566274	0
2	371	153.925204448687	1
2	372	154.216580510574	0
2	376	154.887228419716	1
2	377	155.096960114424	0
2	381	155.203054088947	1
2	382	155.927395075622	0
2	397	158.473124447371	1
2	398	158.860004738221	0
2	404	159.059962576617	1
2	405	159.332810808873	0
2	440	171.414924463364	1
2	441	171.487238735814	0
2	450	172.986533703749	1
2	451	173.080627427917	0
2	462	174.163876250116	1
2	463	174.76594323685	0
2	525	198.331023527081	1
2	528	199.15988888723	0
2	630	253.947114004125	1
2	631	254.271174330547	0
2	640	257.004632837533	1
2	641	257.461105494075	0
2	695	291.544625935002	1
2	696	291.756813934191	0
2	715	303.678988039326	1
2	716	303.830299217979	0
2	760	322.17018968273	1
2	761	322.647198719083	0
2	815	340.734313371626	1
2	816	341.219469216374	0
2	830	346.911007725087	1
2	831	347.255173799617	0
2	890	366.531224013527	1
2	892	366.567034555481	2
2	893	366.787804859595	1
2	896	367.698807986544	0
2	900	367.913846103821	1
2	901	368.193355763515	0
2	1080	459.984916847499	1
2	1081	460.440062208263	0
2	1145	491.06257723394	1
2	1146	491.47550642275	0
2	1152	491.703691504103	1
2	1153	492.365110925992	0
2	1225	539.568485359231	1
2	1228	540.281748934108	0
2	1280	568.89447066586	1
2	1281	568.918561024453	0
2	1320	581.319872229202	1
2	1321	582.07397980821	0
2	1450	631.820326131391	1
2	1451	631.834608100156	0
2	1505	663.805572718865	1
2	1506	664.069423791705	0
2	1535	674.438247836221	1
2	1536	675.052525421884	0
2	1545	675.800633279378	1
2	1546	676.272269557239	0
2	1557	677.640977325704	1
2	1560	677.799671982281	0
2	1569	678.659840622867	1
2	1570	679.242060849262	0
2	1600	686.012614385289	1
2	1602	686.03362884275	2
2	1603	686.845763239734	1
2	1606	687.584381897891	0
2	1655	703.106004885316	1
2	1656	703.216390989218	0
2	1670	705.497108428374	1
2	1671	705.709077978158	0
2	1675	705.770580171549	1
2	1676	706.405038938509	0
2	1685	706.981684197662	1
2	1686	707.887075215169	0
2	1695	708.75672364017	1
2	1696	709.222134383126	0
2	1725	728.612418043615	1
2	1727	728.672889915283	2
2	1728	728.793140158118	1
2	1733	729.656840817505	0
2	1742	730.749908898356	1
2	1743	730.803600758421	0
2	1747	730.909395626142	1
2	1748	731.410039872317	0
2	1752	731.429490803854	1
2	1753	732.196377258016	0
2	1757	732.757844537161	1
2	1760	733.13831592427	0
2	1785	739.426780850251	1
2	1786	739.600089655093	0
2	1795	741.076881024524	1
2	1796	741.322903078632	0
2	1805	741.874572626316	1
2	1806	742.785660681665	0
2	1825	747.49506649041	1
2	1826	747.882829236896	0
2	1835	751.314969732303	1
2	1836	751.730051294329	0
2	1850	755.947440436988	1
2	1853	756.636182247918	0
2	1860	757.545204107258	1
2	1861	758.03698499452	0
2	1970	794.530930649963	1
2	1971	794.921919556102	0
2	1975	795.052067384712	1
2	1976	795.69024220584	0
2	1980	795.934766003189	1
2	1981	796.368782013702	0
2	1985	796.397682509685	1
2	1986	797.265663230699	0
2	2005	809.465696390876	1
2	2006	809.504264428224	0
2	2015	811.044519431026	1
2	2016	811.108478574026	0
2	2110	882.438107726974	1
2	2111	882.678317726731	0
2	2285	960.900751150904	1
2	2286	961.291702435591	0
2	2300	962.73887081668	1
2	2301	963.547977861482	0
2	2305	964.014516791966	1
2	2306	964.397496363893	0
2	2310	964.410902861278	1
2	2311	965.212912438623	0
2	2315	965.316056927417	1
2	2316	965.925947914784	0
2	2320	966.234402668912	1
2	2321	966.549101188033	0
2	2325	966.72469416965	1
2	2326	967.331947754555	0
2	2330	967.439727155022	1
2	2333	968.110935730951	0
2	2337	968.456641514233	1
2	2339	968.491276896177	2
2	2340	968.812529749468	1
2	2344	969.138147656164	2
2	2345	969.302197826326	1
2	2348	970.01070285281	0
2	2352	970.84354560456	1
2	2353	970.875914030893	0
2	2377	974.008342976571	1
2	2378	974.741618292936	0
2	2385	975.771195797391	1
2	2386	975.802388523071	0
2	2474	1002.078374714315	1
2	2475	1002.463582015196	0
2	2479	1002.550627211219	1
2	2480	1002.912450522343	0
2	2484	1002.913991011601	1
2	2487	1003.760653419113	0
2	2496	1004.99936718554	1
2	2497	1005.223840825185	0
2	2504	1005.960375338434	1
2	2505	1006.710266582686	0
2	2511	1007.130572178222	1
2	2512	1007.149189773825	0
2	2524	1008.58089441417	1
2	2528	1009.176509080531	2
2	2529	1009.303252482525	1
2	2532	1010.034913036757	0
2	2575	1021.511330138079	1
2	2576	1021.795016904942	0
2	2580	1022.307419972784	1
2	2581	1022.393178069706	0
2	2642	1049.067554968804	1
2	2643	1049.509870226443	0
2	2650	1050.244083433424	1
2	2651	1050.945908907283	0
2	2657	1051.08783736931	1
2	2658	1051.64586833021	0
2	2695	1056.901313882546	1
2	2696	1057.512311447357	0
2	2740	1065.708663503409	1
2	2741	1066.016362033085	0
2	2750	1067.247710030643	1
2	2751	1067.819196127859	0
2	2785	1077.008765343916	1
2	2787	1077.237714570947	2
2	2789	1077.430378149973	3
2	2790	1077.535573736276	2
2	2794	1077.874598850819	3
2	2795	1078.020749394247	2
2	2799	1078.453695317211	3
2	2801	1078.769971519175	4
2	2802	1078.891635737965	3
2	2805	1079.726054826869	2
2	2808	1080.335892448506	1
2	2812	1080.604290564829	2
2	2813	1081.052600527207	1
2	2816	1081.656250562544	0
2	2840	1088.637771011981	1
2	2841	1088.927094073552	0
2	2947	1127.833919353609	1
2	2948	1128.402864885763	0
2	3015	1149.832557114487	1
2	3016	1150.119606455753	0
2	3037	1157.923574809256	1
2	3038	1158.470509755685	0
2	3060	1167.253300119722	1
2	3061	1167.722058685728	0
2	3070	1168.987757238912	1
2	3071	1169.402048371472	0
2	3215	1261.242073344022	1
2	3216	1261.612861647505	0
2	3245	1268.063617431599	1
2	3246	1268.434409006772	0
2	3260	1275.372966341476	1
2	3261	1275.447218545303	0
2	3330	1304.966509193152	1
2	3331	1305.794459638939	0
2	3340	1306.924312177202	1
2	3341	1307.521064752768	0
2	3447	1350.359587273582	1
2	3448	1351.229394956566	0
2	3517	1363.255659303748	1
2	3520	1363.500406748432	0
2	3612	1377.744303261848	1
2	3613	1377.986986022435	0
2	3730	1453.63550189793	1
2	3731	1453.807190991913	0
2	3785	1472.293627605405	1
2	3786	1472.929718495936	0
2	3845	1511.210290267812	1
2	3846	1511.422263954916	0
2	4130	1692.491450570732	1
2	4131	1692.946826921932	0
2	4195	1717.101179385446	1
2	4196	1717.319961806576	0
2	4205	1719.016769750655	1
2	4207	1719.037195860949	2
2	4208	1719.104817560728	1
2	4212	1719.161999647325	2
2	4213	1719.601483837462	1
2	4216	1720.12213347209	0
2	4225	1721.638779264298	1
2	4226	1721.881145618198	0
2	4310	1766.391900673666	1
2	4311	1766.438836833277	0
2	4345	1802.139174210803	1
2	4346	1802.638911686909	0
2	4350	1803.087867393213	1
2	4351	1803.280162247109	0
2	4375	1807.555876223537	1
2	4377	1807.924068457533	2
2	4378	1808.333735566353	1
2	4382	1808.746871401936	2
2	4383	1809.143961765989	1
2	4386	1809.616202291892	0
2	4390	1809.620504950971	1
2	4391	1810.552527841785	0
2	4415	1820.233576043902	1
2	4416	1820.979994139011	0
2	4440	1837.779629414488	1
2	4441	1838.295671174653	0
2	4465	1854.922277061093	1
2	4466	1855.196167517604	0
2	4470	1855.259082707696	1
2	4473	1855.967648417327	0
2	4480	1857.16263193775	1
2	4483	1857.509989583223	0
2	4520	1868.056099882664	1
2	4521	1868.201271476668	0
2	4530	1869.162378359808	1
2	4531	1869.400496069138	0
2	4560	1892.511023274188	1
2	4561	1892.612632305832	0
2	4620	1912.979969657546	1
2	4621	1913.247703717897	0
2	4625	1913.565766015572	1
2	4626	1913.916367374562	0
2	4705	1943.710911450176	1
2	4706	1944.263707608307	0
2	4720	1945.955596644962	1
2	4723	1946.681364107945	0
2	4787	1964.021896103366	1
2	4788	1964.130116524959	0
2	4792	1964.519727301035	1
2	4793	1964.675051571095	0
2	4970	2094.58096148575	1
2	4971	2094.763834448287	0
2	4995	2097.886418969372	1
2	4998	2098.698637088515	0
2	5002	2099.115330409964	1
2	5003	2099.16400347984	0
2	5007	2099.235797611582	1
2	5008	2099.682923019385	0
2	5012	2099.782612335558	1
2	5013	2100.36840028836	0
2	5017	2100.624703835109	1
2	5018	2101.196298674295	0
2	5025	2101.620640583253	1
2	5027	2102.128314697061	2
2	5028	2102.203737838228	1
2	5033	2102.669723422534	0
2	5085	2125.155022434799	1
2	5086	2125.59755031608	0
2	5165	2175.587163760014	1
2	5166	2175.905484224496	0
2	5225	2202.618096091516	1
2	5226	2202.784527567036	0
2	5275	2212.07780295102	1
2	5276	2212.802734500638	0
2	5282	2213.211910536091	1
2	5283	2213.392991453598	0
2	5287	2213.599567122381	1
2	5288	2214.116798972574	0
2	5292	2214.501744697483	1
2	5293	2215.0160456121	0
2	5297	2215.058761018131	1
2	5298	2215.695831008911	0
2	5302	2215.965960620133	1
2	5303	2216.221137155643	0
2	5370	2254.721431241983	1
2	5372	2255.070617504948	2
2	5373	2255.431643470213	1
2	5376	2256.430691606062	0
2	5382	2256.628155799796	1
2	5383	2257.174383770138	0
2	5390	2258.220093190982	1
2	5391	2258.61261617916	0
2	5415	2277.781947891038	1
2	5416	2277.788685903085	0
2	5435	2293.085909601814	1
2	5436	2293.644007708256	0
2	5550	2364.36331774932	1
2	5551	2364.856941993608	0
2	5630	2412.585619916161	1
2	5631	2412.695979219444	0
2	5640	2413.494443419115	1
2	5642	2414.02824454129	2
2	5643	2414.131304145215	1
2	5646	2415.009197468014	0
2	5650	2415.246524097147	1
2	5651	2415.815270357376	0
2	5655	2415.931469052265	1
2	5656	2416.712510066276	0
2	5660	2416.725105489332	1
2	5661	2417.556980334065	0
2	5682	2426.460094099066	1
2	5683	2426.572297305635	0
2	5717	2441.302695635912	1
2	5718	2441.436544774558	0
2	5740	2446.449188953056	1
2	5741	2446.691098843825	0
2	5750	2447.288480782781	1
2	5751	2447.694124365768	0
2	5770	2464.419023202416	1
2	5771	2464.455022178362	0
2	5780	2465.044501349641	1
2	5781	2465.810129615809	0
2	5785	2466.720375472438	1
2	5786	2466.779204658098	0
2	5790	2466.855040341831	1
2	5793	2467.58254968152	0
2	5800	2468.605807274111	1
2	5803	2469.174522435904	0
2	5815	2470.4813973367	1
2	5816	2470.990946700569	0
2	5840	2479.861059659431	1
2	5841	2480.140281454301	0
2	5900	2490.345860152181	1
2	5901	2490.539824239851	0
2	5980	2558.358486807234	1
2	5981	2558.599504495352	0
2	6030	2596.880581117825	1
2	6031	2597.653423976067	0
2	6090	2615.375105173339	1
2	6091	2616.084102273955	0
2	6095	2616.409417889406	1
2	6096	2616.742366794766	0
2	6102	2617.113068514778	1
2	6103	2617.534321626079	0
2	6125	2624.493979403877	1
2	6126	2624.79065250481	0
2	6135	2625.838689285876	1
2	6136	2626.260725922929	0
2	6145	2627.688819501354	1
2	6146	2628.315175950742	0
2	6150	2628.424420765709	1
2	6151	2629.08995011461	0
2	6155	2629.285941572881	1
2	6156	2629.609425660717	0
2	6250	2670.169464557375	1
2	6251	2670.421850918253	0
2	6285	2687.327343910259	1
2	6286	2687.335296904408	0
2	6295	2688.46078490631	1
2	6296	2688.739373731353	0
2	6375	2726.904007154893	1
2	6376	2727.355169131689	0
2	6385	2728.038250901085	1
2	6386	2728.514673979645	0
2	6410	2735.336928842381	1
2	6412	2735.689816534581	2
2	6413	2735.764798800325	1
2	6416	2736.656060049873	0
2	6420	2737.312126663221	1
2	6421	2737.508833385822	0
2	6550	2808.911396929944	1
2	6551	2809.241238753993	0
2	6582	2817.844597643715	1
2	6583	2818.183980764314	0
2	6600	2823.669117165004	1
2	6601	2824.037893451524	0
2	6645	2857.160395333704	1
2	6646	2857.972365110468	0
2	6795	2898.923356260119	1
2	6796	2899.221962286145	0
2	6802	2900.125787175476	1
2	6803	2900.153046576245	0
2	6810	2900.599874897922	1
2	6812	2900.656634035628	2
2	6813	2901.514877648125	1
2	6816	2901.961514635183	0
2	6820	2902.448206143809	1
2	6821	2902.9393340404	0
2	6865	2915.942314618524	1
2	6868	2916.304742162259	0
2	6907	2921.809894265736	1
2	6910	2922.712309684747	0
2	6995	2957.58327826663	1
2	6996	2957.982863528737	0
2	7000	2958.787060907119	1
2	7001	2958.888436199295	0
2	7010	2959.89264293459	1
2	7011	2960.651878013312	0
2	7040	2972.014277296154	1
2	7041	2972.01470039305	0
2	7045	2972.374498315102	1
2	7046	2972.664577929161	0
2	7050	2972.904362461311	1
2	7051	2973.621022964406	0
2	7055	2974.104569703962	1
2	7056	2974.250991150734	0
2	7060	2974.330520850862	1
2	7061	2975.149960765286	0
2	7065	2975.436889406425	1
2	7066	2975.880714753267	0
2	7070	2976.32915970646	1
2	7071	2976.638234921868	0
2	7075	2976.743270326218	1
2	7076	2977.273095443889	0
2	7185	3008.147508319199	1
2	7186	3008.720668622057	0
2	7200	3010.504602547104	1
2	7201	3011.080643264493	0
2	7205	3011.097638319866	1
2	7208	3011.860443866123	0
2	7212	3012.117550785875	1
2	7217	3012.585968008088	0
2	7221	3012.889504975057	1
2	7222	3013.343436507843	0
2	7229	3014.120280375675	1
2	7231	3014.603744882667	2
2	7232	3014.990532046566	1
2	7235	3015.423390520606	0
2	7257	3018.364547453678	1
2	7258	3018.377481701513	0
2	7305	3044.922450965324	1
2	7306	3045.162884619939	0
2	7320	3046.787912018465	1
2	7321	3047.26071105666	0
2	7460	3127.608743642928	1
2	7461	3127.919662468847	0
2	7475	3132.105070974074	1
2	7476	3132.300848094706	0
2	7500	3141.641839449909	1
2	7501	3142.328039999699	0
2	7510	3143.954255330072	1
2	7513	3144.356041706948	0
2	7522	3145.364728058501	1
2	7523	3145.744352287043	0
2	7530	3146.652048922002	1
2	7531	3146.760913091608	0
2	7575	3164.765085474529	1
2	7576	3164.863068078208	0
2	7595	3175.34246804837	1
2	7596	3175.707259595494	0
2	7600	3175.896596507165	1
2	7601	3176.236245483213	0
2	7635	3194.324680253877	1
2	7636	3194.662633584292	0
2	7715	3214.464034129165	1
2	7716	3215.004061083389	0
2	7732	3217.039715719665	1
2	7733	3217.158492937947	0
2	7765	3225.144067664485	1
2	7768	3225.644667071565	0
2	7775	3226.381047380668	1
2	7777	3226.622126609648	2
2	7778	3226.934083325505	1
2	7781	3227.921396542662	0
2	7785	3227.971256970972	1
2	7786	3228.336110034906	0
2	7790	3228.825521541646	1
2	7791	3229.283290669224	0
2	7885	3280.632504104702	1
2	7886	3280.849009886358	0
2	7895	3281.928137941238	1
2	7896	3282.289366500286	0
2	8100	3362.186176156355	1
2	8101	3362.663481360876	0
2	8165	3385.226413239542	1
2	8166	3385.612553948646	0
2	8212	3405.243683129604	1
2	8213	3405.616004562101	0
2	8234	3408.411305355368	1
2	8235	3408.544774945082	0
2	8270	3416.503037483066	1
2	8271	3416.532158127498	0
2	8285	3418.318790843277	1
2	8286	3419.123274050185	0
2	8315	3437.729592734726	1
2	8316	3438.208154475497	0
2	8320	3438.228638791796	1
2	8321	3438.611880635045	0
2	8370	3492.851701631577	1
2	8372	3492.879427822155	2
2	8375	3493.626697095764	1
2	8378	3494.480142809685	0
2	8422	3510.750831952395	1
2	8423	3510.847267595151	0
2	8430	3511.503833549322	1
2	8433	3512.230973866054	0
2	8480	3527.54845907869	1
2	8481	3528.111635996544	0
2	8530	3551.315378704285	1
2	8533	3551.619034637477	0
2	8630	3589.32636478463	1
2	8631	3589.997077675263	0
2	8680	3600.572967575198	1
2	8681	3600.814425642984	0
2	8801	3639.569529771822	1
2	8804	3639.954336636518	0
2	8818	3641.603145751707	1
2	8820	3642.02960353179	2
2	8821	3642.414878771785	1
2	8826	3643.170124462485	0
2	8830	3643.976288337727	1
2	8831	3644.003181534173	0
2	8835	3644.063293290918	1
2	8836	3644.879464236699	0
2	8840	3645.170984501134	1
2	8841	3645.729791739449	0
2	8845	3646.000486098566	1
2	8846	3646.200256898493	0
2	8853	3647.259564417329	1
2	8854	3647.58482529787	0
2	8955	3689.845019564582	1
2	8956	3689.88979862102	0
2	8995	3700.770237330392	1
2	8996	3700.891829838113	0
2	9075	3725.207088404785	1
2	9076	3725.488828886093	0
2	9125	3742.647177547543	1
2	9126	3743.010570473031	0
2	9210	3784.691076802457	1
2	9211	3785.276734934567	0
2	9215	3785.916613816368	1
2	9216	3786.129445139138	0
2	9220	3786.542794896355	1
2	9221	3786.673364722036	0
2	9460	3905.545570417837	1
2	9461	3906.382355292717	0
2	9495	3922.371570869266	1
2	9496	3922.798434546691	0
2	9585	3998.703269823564	1
2	9586	3998.807982133973	0
2	9592	3999.199791473223	1
2	9593	3999.303598256727	0
2	9600	4000.861239868234	1
2	9601	4000.894140703874	0
2	9625	4005.839687700624	1
2	9626	4006.153401682906	0
2	9695	4048.463336771393	1
2	9696	4048.472031294925	0
2	9755	4086.426489500245	1
2	9756	4086.454902607794	0
2	9790	4106.018835988935	1
2	9793	4106.577190991594	0
2	9797	4106.915869730118	1
2	9798	4107.467845305996	0
2	9805	4108.500510376539	1
2	9806	4108.92961894596	0
2	9830	4113.117715535742	1
2	9831	4113.62709433248	0
2	9885	4133.262739637383	1
2	9886	4133.484960577253	0
2	9942	4158.100727410983	1
2	9943	4158.2400177347	0
2	10015	4186.673599567136	1
2	10018	4186.779502906425	0
2	10105	4243.863894385043	1
2	10106	4244.301120151218	0
2	10125	4246.393193342561	1
2	10126	4247.096439789955	0
2	10155	4255.460739224783	1
2	10156	4255.764839662875	0
2	10160	4255.788132091581	1
2	10161	4256.429367085158	0
2	10180	4274.247264224794	1
2	10181	4274.448669456893	0
2	10220	4294.71909873331	1
2	10221	4295.57572821386	0
2	10240	4299.811934725149	1
2	10241	4300.217287036044	0
2	10275	4310.318334163238	1
2	10276	4310.757156869088	0
2	10300	4319.084635036331	1
2	10303	4319.387200354223	0
2	10315	4320.500132532092	1
2	10320	4321.176723018705	0
2	10327	4322.10841751493	1
2	10328	4323.006018810111	0
2	10365	4332.859775139927	1
2	10366	4332.932314024328	0
2	10425	4348.67311483838	1
2	10427	4349.121603940069	2
2	10428	4349.506841860473	1
2	10431	4349.971824472112	0
2	10435	4349.994851949409	1
2	10436	4350.789963531302	0
2	10440	4350.795350073774	1
2	10441	4351.212539700087	0
2	10445	4351.562439867516	1
2	10446	4351.765228477999	0
2	10480	4366.308754285609	1
2	10481	4366.731640985928	0
2	10485	4366.856277865557	1
2	10486	4367.217138492776	0
2	10500	4369.55379265548	1
2	10501	4370.023664879988	0
2	10535	4387.88880034909	1
2	10538	4388.299776701598	0
2	10627	4401.884998977486	1
2	10628	4402.318665184296	0
2	10635	4403.980341935866	1
2	10636	4404.160390789231	0
2	10640	4404.201181723735	1
2	10641	4404.632568710699	0
2	10685	4431.81691046669	1
2	10686	4431.823679501219	0
2	10730	4442.061070305737	1
2	10732	4442.696833563927	2
2	10733	4442.876864974669	1
2	10736	4443.39680969571	0
2	10740	4443.506082733528	1
2	10741	4443.836172048843	0
2	10750	4454.836665213222	1
2	10751	4455.1101810109	0
2	10760	4457.511951639915	1
2	10761	4457.711309395081	0
2	10840	4498.134493313788	1
2	10841	4498.499036565716	0
2	10855	4503.81312911493	1
2	10856	4504.239441598232	0
2	10960	4554.295152875321	1
2	10961	4554.490755573743	0
2	10965	4554.627288522182	1
2	10966	4554.981217455388	0
2	10975	4556.082052577876	1
2	10976	4556.602827846575	0
2	11022	4563.018687502002	1
2	11023	4563.402141084679	0
2	11035	4565.215082468184	1
2	11036	4565.785120011444	0
2	11050	4570.778277852841	1
2	11051	4571.101506432593	0
2	11130	4603.508917584748	1
2	11131	4603.573860438511	0
2	11175	4618.845722995445	1
2	11176	4619.170305376474	0
2	11312	4678.493740576063	1
2	11313	4679.003894467304	0
2	11320	4680.210968663814	1
2	11321	4680.552388171271	0
2	11435	4724.644394943248	1
2	11438	4725.00299163744	0
2	11515	4764.564594164604	1
2	11516	4765.007818525956	0
2	11535	4769.452264275856	1
2	11536	4770.01556450687	0
2	11542	4770.547026633903	1
2	11543	4770.663674435668	0
2	11547	4770.668466918291	1
2	11548	4771.236404759806	0
2	11555	4771.982773554775	1
2	11556	4772.696765441118	0
2	11560	4772.971573011793	1
2	11561	4773.657105687862	0
2	11685	4828.654285408926	1
2	11686	4829.260884859409	0
2	11745	4859.780797076908	1
2	11746	4860.243898397195	0
2	11765	4879.49757410031	1
2	11767	4879.524848661654	2
2	11768	4879.854206733357	1
2	11773	4880.778832457911	0
2	11785	4882.156767113387	1
2	11786	4882.814725051352	0
2	11900	4923.237596626485	1
2	11901	4923.748783819683	0
2	11905	4923.888637131227	1
2	11906	4924.455256267477	0
2	11965	4954.970492586195	1
2	11966	4955.26607262673	0
2	11980	4957.5713038867	1
2	11981	4958.106454600013	0
2	12005	4962.404782569073	1
2	12006	4962.837334979825	0
2	12010	4963.355687437434	1
2	12011	4963.622686664189	0
2	12015	4964.375354597674	1
2	12016	4964.505597099463	0
2	12030	4965.862598851785	1
2	12031	4966.371384285873	0
2	12145	5013.444364467356	1
2	12146	5013.679221517565	0
2	12260	5063.183265833195	1
2	12261	5063.587491400214	0
2	12270	5065.349227467485	1
2	12271	5065.560705451759	0
2	12280	5066.558674297018	1
2	12281	5067.315167673816	0
2	12305	5078.213669689308	1
2	12307	5078.791651094141	2
2	12308	5078.834414679692	1
2	12311	5079.422082126508	0
2	12337	5087.79951984054	1
2	12338	5088.103994238046	0
2	12345	5088.612177952411	1
2	12346	5089.246446702159	0
2	12350	5089.540347742005	1
2	12351	5089.675872789784	0
2	12355	5089.933638109684	1
2	12358	5090.440528324055	0
2	12362	5091.004621542831	1
2	12363	5091.356739812665	0
2	12385	5097.542581720198	1
2	12386	5098.254392117944	0
2	12455	5137.63625648669	1
2	12456	5137.648856637552	0
2	12485	5159.674426052117	1
2	12486	5160.199391261858	0
2	12520	5169.054098660941	1
2	12521	5169.426783385818	0
2	12532	5170.863666736428	1
2	12533	5170.96849689937	0
2	12550	5173.668471754705	1
2	12553	5174.147226225323	0
2	12595	5185.913402877072	1
2	12596	5186.308916510819	0
2	12675	5233.387094431922	1
2	12676	5233.78845315022	0
2	12685	5234.889702126268	1
2	12686	5235.075131891041	0
2	12730	5252.720637529144	1
2	12731	5253.502025884958	0
2	12770	5265.365549402694	1
2	12771	5265.834928428334	0
2	12850	5295.67351876766	1
2	12851	5295.958956181663	0
2	12865	5312.311772930599	1
2	12866	5312.906055062334	0
2	12890	5338.879282056653	1
2	12891	5339.015589555317	0
2	12895	5339.276549593896	1
2	12897	5339.828884879913	2
2	12898	5339.928650442149	1
2	12902	5340.040849248586	2
2	12905	5340.786395420704	1
2	12908	5341.521706698753	0
2	12940	5351.280144308245	1
2	12941	5351.889431329584	0
2	13050	5406.424819690981	1
2	13051	5406.486691610019	0
2	13135	5449.976203368927	1
2	13136	5450.56965845868	0
2	13260	5500.279413545582	1
2	13262	5500.405491802287	2
2	13263	5500.704907017197	1
2	13266	5501.347708589067	0
2	13270	5501.621699477562	1
2	13271	5502.264741848824	0
2	13370	5562.166015837473	1
2	13371	5562.470906380274	0
2	13392	5571.541996295427	1
2	13393	5572.024404891623	0
2	13400	5572.749456329545	1
2	13401	5573.626690164531	0
2	13510	5620.604232714869	1
2	13511	5620.8958690691	0
2	13535	5631.268295083073	1
2	13536	5631.968368319848	0
2	13540	5632.393142144238	1
2	13541	5632.880982708565	0
2	13600	5680.816946690291	1
2	13601	5681.158642509327	0
2	13675	5712.170199849557	1
2	13676	5712.525556504729	0
2	13685	5713.302165270856	1
2	13687	5713.3060784141	2
2	13688	5714.190244095809	1
2	13691	5714.713837971295	0
2	13745	5739.420489871675	1
2	13746	5739.447345564449	0
2	13760	5741.890137749463	1
2	13761	5742.361619725871	0
2	13865	5772.781395726949	1
2	13866	5773.586450767114	0
2	13995	5805.293885165439	1
2	13997	5805.451961876191	2
2	13998	5805.797993506686	1
2	14001	5806.415812277756	0
2	14050	5854.277442479252	1
2	14051	5854.84857853034	0
2	14155	5900.838402131275	1
2	14156	5901.259471453149	0
2	14242	5920.541037585696	1
2	14243	5920.566454836447	0
2	14254	5921.247405584043	1
2	14259	5921.974887771998	0
2	14266	5922.786790183105	1
2	14267	5923.117385052052	0
2	14271	5923.354926195792	1
2	14272	5923.695616851608	0
2	14276	5923.699210791899	1
2	14278	5924.256183677104	2
2	14279	5924.427128942358	1
2	14282	5925.152032713546	0
2	14380	5967.984165337412	1
2	14381	5968.524454141408	0
2	14410	5992.429762649579	1
2	14411	5993.091982621773	0
2	14425	5995.128580432958	1
2	14426	5995.788530494391	0
2	14460	6007.193893024148	1
2	14461	6007.369209354022	0
2	14485	6013.229991422391	1
2	14486	6013.474729829956	0
2	14490	6013.606496933274	1
2	14491	6013.971590897231	0
2	14495	6014.201304779313	1
2	14496	6014.371956082922	0
2	14585	6062.09264492852	1
2	14586	6062.144646447121	0
2	14595	6063.672950293001	1
2	14596	6064.120124168187	0
2	14615	6070.198875458211	1
2	14616	6070.577540424317	0
2	14790	6171.500120863988	1
2	14791	6172.262297539182	0
2	14910	6241.342003357924	1
2	14911	6241.627527969166	0
2	14950	6249.759033955481	1
2	14951	6250.381704478763	0
2	15005	6272.975508192677	1
2	15006	6273.149518706446	0
2	15010	6273.511725490106	1
2	15011	6273.779951628373	0
2	15080	6297.071311007302	1
2	15081	6297.65551268392	0
2	15235	6339.801710207049	1
2	15237	6339.918330013151	2
2	15238	6340.232427072258	1
2	15241	6341.105936938118	0
2	15255	6352.227600039788	1
2	15256	6352.495568689673	0
2	15260	6352.817791363747	1
2	15261	6353.204677149622	0
2	15275	6354.251122709807	1
2	15277	6354.793407124076	2
2	15278	6354.958146324955	1
2	15283	6355.801244365951	0
2	15330	6368.244222038931	1
2	15331	6368.985380580726	0
2	15340	6369.774310667161	1
2	15342	6370.26720242086	2
2	15343	6370.365997461214	1
2	15346	6371.199695423975	0
2	15350	6371.427004997606	1
2	15351	6371.934481762288	0
2	15365	6374.405308599627	1
2	15366	6374.6775672826	0
2	15380	6376.108251080761	1
2	15383	6376.78783340757	0
2	15390	6378.202128013265	1
2	15391	6378.426703552951	0
2	15440	6401.626970596044	1
2	15443	6402.007750378764	0
2	15456	6403.612475240934	1
2	15457	6403.889142326807	0
2	15464	6404.866770004182	1
2	15465	6405.592199225333	0
2	15472	6406.477614831071	1
2	15473	6406.672906128019	0
2	15480	6407.529827390121	1
2	15481	6408.17286469101	0
2	15490	6409.068904388529	1
2	15493	6409.449743910137	0
2	15497	6409.661111987539	1
2	15498	6410.065162722025	0
2	15505	6411.004241741003	1
2	15506	6411.299592645656	0
2	15560	6440.718997227088	1
2	15561	6441.344865779059	0
2	15610	6470.764463771488	1
2	15611	6471.38385928823	0
2	15645	6486.050679221935	1
2	15646	6486.239753180904	0
2	15695	6495.92500850564	1
2	15696	6496.826445628336	0
2	15750	6511.829908970508	1
2	15751	6512.474963459666	0
2	15765	6514.754742169044	1
2	15768	6515.451368193767	0
2	15777	6516.65644161103	1
2	15778	6517.34466755015	0
2	15787	6518.057533922246	1
2	15788	6518.421548048381	0
2	15825	6523.458334815752	1
2	15826	6524.091743605201	0
2	15855	6532.20499591263	1
2	15856	6532.757259007102	0
2	15910	6559.26421984707	1
2	15913	6559.579203378663	0
2	16010	6599.257185418403	1
2	16011	6599.601580269261	0
2	16050	6616.572725129738	1
2	16053	6617.467500352106	0
2	16062	6618.629628268047	1
2	16063	6619.226176834703	0
2	16067	6619.921470761221	1
2	16068	6620.02441890141	0
2	16072	6620.118065958547	1
2	16073	6620.821993507249	0
2	16080	6621.614564389859	1
2	16081	6622.023068562513	0
2	16145	6655.121753102355	1
2	16146	6655.219677430054	0
2	16210	6701.736582035525	1
2	16211	6702.027797113162	0
2	16215	6702.098301886573	1
2	16216	6702.541352213163	0
2	16220	6702.66123835449	1
2	16223	6703.469930113608	0
2	16350	6746.213071140067	1
2	16353	6746.717443749825	0
2	16362	6747.810182546577	1
2	16363	6748.337087207292	0
2	16370	6749.806693725785	1
2	16371	6750.167543904022	0
2	16450	6791.219611564055	1
2	16451	6791.227476612008	0
2	16485	6808.478760721365	1
2	16486	6809.016162819118	0
2	16525	6845.462553735607	1
2	16526	6845.494213565449	0
2	16540	6848.21719910238	1
2	16541	6848.533318252147	0
2	16545	6848.881431101534	1
2	16546	6849.355590114028	0
2	16550	6849.632660057517	1
2	16551	6849.916336359999	0
2	16555	6850.602524724644	1
2	16556	6850.64620006637	0
2	16560	6850.656401126846	1
2	16561	6851.305540467597	0
2	16565	6851.443989611411	1
2	16567	6852.014691332547	2
2	16568	6852.300923018654	1
2	16572	6853.10423561322	2
2	16573	6853.234300007376	1
2	16576	6853.861355369755	0
2	16610	6861.598746955601	1
2	16611	6861.863118027976	0
2	16675	6889.166854862704	1
2	16676	6889.235505120764	0
2	16750	6914.541542365953	1
2	16751	6915.192851768946	0
2	16810	6956.973031289447	1
2	16811	6957.745076555902	0
2	16907	6982.506435408986	1
2	16908	6983.25319537023	0
2	16924	6984.907365140889	1
2	16925	6985.393685639473	0
2	17055	7042.123457852488	1
2	17058	7042.56081865011	0
2	17075	7054.801496515958	1
2	17076	7054.85268304519	0
2	17140	7084.582923701184	1
2	17143	7084.894181685384	0
2	17192	7105.078667077744	1
2	17193	7105.633190077582	0
2	17207	7107.010510776979	1
2	17208	7107.673047427173	0
2	17240	7121.043876691969	1
2	17241	7121.705348188408	0
2	17260	7133.585725749311	1
2	17263	7133.994670906969	0
2	17267	7134.22901762907	1
2	17271	7134.457698696824	2
2	17272	7134.692780434786	1
2	17275	7135.425845946445	0
2	17427	7210.099464841978	1
2	17428	7210.11792268475	0
2	17432	7210.579527222186	1
2	17433	7210.644827923425	0
2	17440	7211.19730154314	1
2	17443	7211.868781453524	0
2	17450	7212.731401661443	1
2	17455	7213.217014909223	0
2	17464	7214.241393937767	1
2	17465	7214.708900174931	0
2	17545	7264.330739583248	1
2	17546	7264.940432856472	0
2	17570	7277.92764295463	1
2	17571	7277.988134320494	0
2	17580	7278.443619308056	1
2	17581	7278.959107148688	0
2	17610	7291.323074666742	1
2	17611	7292.015953264755	0
2	17620	7293.285142340721	1
2	17621	7293.505863402176	0
2	17730	7363.076599622503	1
2	17731	7363.570636003639	0
2	17740	7364.452252777162	1
2	17741	7364.950718233955	0
2	17770	7372.237124006554	1
2	17771	7372.30072830255	0
2	17820	7385.852817872028	1
2	17821	7386.110348560883	0
2	17850	7392.234725010737	1
2	17851	7392.561489905453	0
2	17860	7393.236316055661	1
2	17863	7393.882736543834	0
2	17925	7445.84913883237	1
2	17926	7446.2077570333	0
2	17990	7458.503063967028	1
2	17991	7459.144817475862	0
2	18030	7474.612493811875	1
2	18031	7474.804504155586	0
2	18040	7476.108687220151	1
2	18043	7476.693579386412	0
2	18052	7477.650158298781	1
2	18054	7477.744489938546	2
2	18055	7477.956550001171	1
2	18060	7478.380101369465	0
2	18064	7478.400785603597	1
2	18065	7478.934395055104	0
2	18069	7479.383694512376	1
2	18070	7479.852990933651	0
2	18077	7480.76413197607	1
2	18078	7481.015099265384	0
2	18122	7490.76955411711	1
2	18123	7490.780650370931	0
2	18127	7491.170742392677	1
2	18128	7491.194833465144	0
2	18225	7541.805483467119	1
2	18228	7542.250861590944	0
2	18240	7543.306301915677	1
2	18242	7543.411600750585	2
2	18243	7544.171223335836	1
2	18248	7545.13050795885	0
2	18255	7545.901366667343	1
2	18256	7546.305214748422	0
2	18307	7570.528378507255	1
2	18308	7570.629925251427	0
2	18425	7643.450102906389	1
2	18426	7643.518331270361	0
2	18435	7644.312380159804	1
2	18436	7645.236236242614	0
2	18440	7645.665199160852	1
2	18441	7645.735467975018	0
2	18445	7646.243160264675	1
2	18446	7646.606104334481	0
2	18595	7710.824776266901	1
2	18596	7711.641556513603	0
2	18665	7742.200890080998	1
2	18668	7743.04248243286	0
2	18675	7744.100658026439	1
2	18676	7744.482209872917	0
2	18695	7747.900368771188	1
2	18696	7748.2289631575	0
2	18700	7748.266867075526	1
2	18701	7748.966352595028	0
2	18712	7750.490532968712	1
2	18713	7750.656331723109	0
2	18717	7750.7575811245	1
2	18718	7751.497290661065	0
2	18722	7751.763074594876	1
2	18723	7752.358351770714	0
2	18727	7752.366648504773	1
2	18728	7752.967003171304	0
2	18732	7753.154769700838	1
2	18733	7753.380428441167	0
2	18737	7753.410730251951	1
2	18738	7754.264807201196	0
2	18745	7754.874154437737	1
2	18746	7755.410765538803	0
2	18765	7766.186044918054	1
2	18770	7766.988735359747	0
2	18885	7823.613120748123	1
2	18886	7824.330611603291	0
2	18890	7824.76614786148	1
2	18891	7825.283619515508	0
2	18895	7825.807216489703	1
2	18898	7825.929350710198	0
2	18960	7845.545527727202	1
2	18961	7846.362518990036	0
2	18965	7846.93881716671	1
2	18966	7847.024785171818	0
2	18970	7847.076844320182	1
2	18972	7847.489634220621	2
2	18973	7847.51642893911	1
2	18977	7847.752204818955	2
2	18978	7847.977239980499	1
2	18982	7848.020701035859	2
2	18983	7848.499013160213	1
2	18986	7849.195959847604	0
2	18990	7849.432265068809	1
2	18991	7849.969174835269	0
2	19000	7854.852669148917	1
2	19003	7855.586088413963	0
2	19030	7863.460135930947	1
2	19031	7863.684046482739	0
2	19035	7863.825743116792	1
2	19036	7864.617945842563	0
2	19040	7865.33750486572	1
2	19041	7865.456011440444	0
2	19045	7865.476810922384	1
2	19049	7866.055664329021	2
2	19050	7866.129550346012	1
2	19054	7866.41057064627	2
2	19055	7866.820638890543	1
2	19058	7867.392159846031	0
2	19062	7867.594577116149	1
2	19063	7868.315651703185	0
2	19067	7868.334975108971	1
2	19068	7869.126973903996	0
2	19072	7869.61608423696	1
2	19073	7869.991395151547	0
2	19080	7871.299937327009	1
2	19081	7871.633310130124	0
2	19115	7876.780131893642	1
2	19116	7877.284037756776	0
2	19165	7895.947611703694	1
2	19166	7896.758328278884	0
2	19210	7911.813660092095	1
2	19211	7912.180794318552	0
2	19277	7935.295086888815	1
2	19278	7936.060794175594	0
2	19285	7937.239255793981	1
2	19286	7937.678596499414	0
2	19355	7978.049893337495	1
2	19356	7978.441733370632	0
2	19360	7978.652161675902	1
2	19361	7978.921393966679	0
2	19405	7994.928802472225	1
2	19406	7995.701224966326	0
2	19450	8014.147108288813	1
2	19451	8014.439706385359	0
2	19495	8029.47393573584	1
2	19496	8030.383929416866	0
2	19512	8032.560296888206	1
2	19513	8032.803910953825	0
2	19520	8033.642674422845	1
2	19521	8034.214515561139	0
2	19565	8047.764289216961	1
2	19566	8047.853277178582	0
2	19585	8050.543888919038	1
2	19588	8051.485827002465	0
2	19595	8053.03909517224	1
2	19596	8053.373700213549	0
2	19605	8054.46144139499	1
2	19608	8055.026581065846	0
2	19732	8102.369447983958	1
2	19733	8102.880850134199	0
2	19785	8135.034055033036	1
2	19786	8135.902220023908	0
2	19800	8137.509382479241	1
2	19801	8138.217116726628	0
2	19872	8164.394743747163	1
2	19873	8164.753428686023	0
2	19880	8165.904014643464	1
2	19881	8166.166175042823	0
2	19920	8172.821281661138	1
2	19921	8173.298116081244	0
2	20015	8205.492203131988	1
2	20016	8205.6935270274	0
2	20020	8206.152701228546	1
2	20021	8206.58578320634	0
2	20075	8226.259701309574	1
2	20076	8226.376587975935	0
2	20085	8227.349928403071	1
2	20088	8227.702419710929	0
2	20095	8228.863554924362	1
2	20098	8229.002945410578	0
2	20270	8311.37472716313	1
2	20271	8311.752973999892	0
2	20295	8352.881382839094	1
2	20296	8352.928128754548	0
2	20300	8352.95071817782	1
2	20301	8353.575035884432	0
2	20305	8353.865494601036	1
2	20307	8353.938820095214	2
2	20308	8354.447023959472	1
2	20311	8354.850549675585	0
2	20315	8355.47049175874	1
2	20316	8355.672027317914	0
2	20340	8359.313509093438	1
2	20341	8359.525052444294	0
2	20435	8401.355637789784	1
2	20436	8401.650989198282	0
2	20455	8404.083140014119	1
2	20456	8404.741400477339	0
2	20500	8436.037952423383	1
2	20501	8436.087040361195	0
2	20505	8436.354401470488	1
2	20506	8436.82932881144	0
2	20510	8437.269987486828	1
2	20511	8437.481143030842	0
2	20520	8438.447564244079	1
2	20521	8438.938558037012	0
2	20530	8439.58108081501	1
2	20531	8440.49581146065	0
2	20545	8442.422093483627	1
2	20548	8443.186760559508	0
2	20730	8543.126678492099	1
2	20731	8543.725733824711	0
2	20740	8544.900746905394	1
2	20741	8545.421732047875	0
2	20745	8545.641880174593	1
2	20746	8545.843083856278	0
2	20927	8613.871463146962	1
2	20928	8613.98470088102	0
2	20937	8614.809196834381	1
2	20938	8615.705970595666	0
2	21175	8722.934301590374	1
2	21176	8723.017603554277	0
2	21180	8723.112661329041	1
2	21183	8723.437500281332	0
2	21187	8724.177553420504	1
2	21188	8724.402829832889	0
2	21192	8724.658335392332	1
2	21193	8724.920154472839	0
2	21197	8724.973233429313	1
2	21198	8725.880217765717	0
2	21202	8726.37562910897	1
2	21203	8726.41190872032	0
2	21210	8727.163032772641	1
2	21212	8727.509424893082	2
2	21213	8727.541474445004	1
2	21217	8727.812911972295	2
2	21220	8728.275215450048	1
2	21223	8728.916339909683	0
2	21227	8729.073186112566	1
2	21228	8729.363281454031	0
2	21232	8729.383671160973	1
2	21233	8730.222099532305	0
2	21237	8730.319298957179	1
2	21238	8730.802800808592	0
2	21242	8731.184700940098	1
2	21243	8731.239677899076	0
2	21247	8731.881604768543	1
2	21248	8731.969844072849	0
2	21345	8766.875634508542	1
2	21346	8767.378238240129	0
2	21395	8786.609429635077	1
2	21396	8786.663936411295	0
2	21405	8787.996242881083	1
2	21406	8788.011291591342	0
2	21415	8789.0415102344	1
2	21416	8789.411206952141	0
2	21457	8808.386682799001	1
2	21458	8808.394343425534	0
2	21462	8808.559216083176	1
2	21463	8809.181668743971	0
2	21470	8809.822925665062	1
2	21471	8810.395654316866	0
2	21475	8810.420589778315	1
2	21478	8811.316993308733	0
2	21485	8812.157810563405	1
2	21487	8812.348278617701	2
2	21489	8812.650776768425	3
2	21490	8812.666770680682	2
2	21493	8813.354419994555	1
2	21497	8813.543556455262	2
2	21499	8814.199911554143	3
2	21500	8814.24924217762	2
2	21503	8815.246569683929	1
2	21507	8815.501587832038	2
2	21508	8815.846408260162	1
2	21511	8816.385717647397	0
2	21545	8832.334621595313	1
2	21546	8832.735924238122	0
2	21595	8857.590363990879	1
2	21596	8857.762283112246	0
2	21805	8946.687791306401	1
2	21806	8947.523686714254	0
2	21980	9022.814401828827	1
2	21981	9023.310555293724	0
2	22010	9037.163760794636	1
2	22011	9037.35060987972	0
2	22210	9116.545862668019	1
2	22211	9117.167423826092	0
2	22340	9178.73838089751	1
2	22341	9179.428056989319	0
2	22347	9179.761953573936	1
2	22348	9180.399544471584	0
2	22355	9181.353915999809	1
2	22358	9182.114205947973	0
2	22405	9192.628244046788	1
2	22408	9193.140714803328	0
2	22415	9194.150571017024	1
2	22416	9194.394729774482	0
2	22435	9198.028271027497	1
2	22436	9198.322343427083	0
2	22440	9198.631333711292	1
2	22441	9199.244169874536	0
2	22475	9219.245068153168	1
2	22476	9219.976932016304	0
2	22487	9220.965567029255	1
2	22488	9221.286919204481	0
2	22497	9222.239898711606	1
2	22498	9222.869203414777	0
2	22505	9223.556894656845	1
2	22506	9223.893969306265	0
2	22512	9224.39023499338	1
2	22513	9224.586270004054	0
2	22525	9225.923909894106	1
2	22529	9226.631386645277	2
2	22530	9226.667162110758	1
2	22534	9227.29788258894	2
2	22537	9227.661439227088	1
2	22540	9228.422261352566	0
2	22544	9228.495489387569	1
2	22545	9229.39157850515	0
2	22560	9231.231005037309	1
2	22562	9231.469885437648	2
2	22563	9231.713889680811	1
2	22568	9232.307996934893	0
2	22590	9255.292999053196	1
2	22591	9255.562964802012	0
2	22630	9281.189720311236	1
2	22631	9281.772315083203	0
2	22635	9282.314841739499	1
2	22636	9282.632602878885	0
2	22640	9282.736167012765	1
2	22641	9283.521394911121	0
2	22645	9283.805630341419	1
2	22648	9284.502687684671	0
2	22655	9285.21133580516	1
2	22657	9285.249284699109	2
2	22658	9285.855894315607	1
2	22661	9286.699357248369	0
2	22670	9287.603535227518	1
2	22671	9288.062179644165	0
2	22685	9289.433304373634	1
2	22686	9289.946447009224	0
2	22725	9326.127719850913	1
2	22726	9326.928545708733	0
2	22815	9366.688756283591	1
2	22816	9367.263128903812	0
2	22852	9377.405858157352	1
2	22853	9377.527486850351	0
2	22860	9378.444458791234	1
2	22861	9379.150052187855	0
2	22905	9388.144737639215	1
2	22906	9389.083639712844	0
2	22920	9396.009896188817	1
2	22921	9396.592667309689	0
2	22930	9397.27689163656	1
2	22931	9397.92563045228	0
2	22975	9424.583662306329	1
2	22976	9424.71319781579	0
2	23035	9446.644290402678	1
2	23036	9446.860225315151	0
2	23042	9447.456208611245	1
2	23044	9447.651600404277	2
2	23045	9447.849539663076	1
2	23049	9447.926118664364	2
2	23051	9448.097017002891	3
2	23052	9448.282179965397	2
2	23058	9448.735429216155	3
2	23059	9448.751082076078	2
2	23063	9449.116409538034	3
2	23064	9449.42586535508	2
2	23068	9449.766027281869	3
2	23069	9449.973924143745	2
2	23072	9450.48562526609	1
2	23076	9450.56263161976	2
2	23077	9450.947237856027	1
2	23081	9450.975750448547	2
2	23082	9451.572349717135	1
2	23086	9451.581667581242	2
2	23087	9452.008839641784	1
2	23091	9452.329737616689	2
2	23092	9452.861612495494	1
2	23097	9453.741537331923	0
2	23150	9469.822184975258	1
2	23151	9470.132525587448	0
2	23162	9471.213291017374	1
2	23165	9471.96690427935	0
2	23186	9474.615781666529	1
2	23187	9474.73219341351	0
2	23191	9475.353080162538	1
2	23192	9475.376668477052	0
2	23196	9475.54460970862	1
2	23197	9476.086090988753	0
2	23207	9478.065299965057	1
2	23209	9478.259825520666	2
2	23210	9478.264476919308	1
2	23217	9478.820296745415	0
2	23221	9478.86416650949	1
2	23222	9479.23683421844	0
2	23226	9479.313525675052	1
2	23227	9479.687278192298	0
2	23231	9480.244477660583	1
2	23232	9480.369061785092	0
2	23239	9481.282161445833	1
2	23240	9481.58112806966	0
2	23247	9482.676958063692	1
2	23248	9483.324540952075	0
2	23275	9494.315647414152	1
2	23276	9494.95300052056	0
2	23290	9501.771764763395	1
2	23291	9502.315203884249	0
2	23300	9503.774918316719	1
2	23301	9504.431666942216	0
2	23305	9504.488446448985	1
2	23306	9504.908436986427	0
2	23310	9505.167203852865	1
2	23312	9505.469017847154	2
2	23313	9505.817720616372	1
2	23316	9506.390669673258	0
2	23325	9507.454038545203	1
2	23326	9508.265812790955	0
2	23385	9578.259387270608	1
2	23386	9578.759026301391	0
2	23430	9597.209474014383	1
2	23431	9597.598455831863	0
2	23495	9619.922432409655	1
2	23496	9620.052710162609	0
2	23507	9620.936950625585	1
2	23508	9621.483595889241	0
2	23555	9637.608865047822	1
2	23556	9638.115899493111	0
2	23580	9658.140667200183	1
2	23581	9658.474531561332	0
2	23585	9658.881198668202	1
2	23586	9659.33322934798	0
2	23650	9700.495501468066	1
2	23651	9700.835811086425	0
2	23690	9723.120950140711	1
2	23691	9723.368870946338	0
2	23695	9723.670853662773	1
2	23696	9724.116768198359	0
2	23705	9725.437445424747	1
2	23706	9725.564809685751	0
2	23910	9816.445261388686	1
2	23911	9816.459924548596	0
2	23915	9817.213813510531	1
2	23916	9817.411274247115	0
2	23920	9817.520112249835	1
2	23921	9818.066240466257	0
2	23942	9822.679269276388	1
2	23943	9823.174179185507	0
2	24055	9860.413719468271	1
2	24056	9861.143202194428	0
2	24099	9866.797794238406	1
2	24100	9867.531806330151	0
2	24109	9869.207278881309	1
2	24110	9869.26899908241	0
2	24300	9969.335234369479	1
2	24301	9969.406131531952	0
2	24310	9970.151592773824	1
2	24311	9970.489726507935	0
2	24330	9974.280199981576	1
2	24331	9974.696490466815	0
2	24335	9975.081993838042	1
2	24336	9975.614798508432	0
2	24360	9980.944911548204	1
2	24363	9981.562324912766	0
2	24369	9981.931910547911	1
2	24370	9982.447186861852	0
2	24374	9982.526443085384	1
2	24375	9983.158318375995	0
2	24379	9983.260183407207	1
2	24380	9983.69669062748	0
2	24384	9983.855716129792	1
2	24385	9984.49637353077	0
2	24392	9985.172698578742	1
2	24393	9985.696578341643	0
2	24455	10004.586240724645	1
2	24456	10004.846273348494	0
2	24465	10005.454135842684	1
2	24470	10006.03157831632	0
2	24477	10007.270768227603	1
2	24478	10007.892153458729	0
2	24495	10010.363473405293	1
2	24498	10011.246385762481	0
2	24505	10012.147980536968	1
2	24506	10012.849701683702	0
2	24530	10029.656021563764	1
2	24531	10030.048203185341	0
2	24540	10030.698481663611	1
2	24542	10030.981476292734	2
2	24543	10031.365948154032	1
2	24546	10032.354277630849	0
2	24560	10034.257130321906	1
2	24561	10034.696688850621	0
2	24565	10034.932264894536	1
2	24566	10035.307235428157	0
2	24575	10036.568903739412	1
2	24576	10037.096404683568	0
2	24625	10057.86895714634	1
2	24626	10058.250330303226	0
2	24637	10059.792188970507	1
2	24638	10059.987370968227	0
2	24647	10061.13430707526	1
2	24648	10061.388098605991	0
2	24667	10064.964336791218	1
2	24668	10065.105780048564	0
2	24677	10065.977678801468	1
2	24678	10066.073211028136	0
2	24687	10066.668293609245	1
2	24688	10067.325147927401	0
2	24692	10067.517259278813	1
2	24693	10068.02150983162	0
2	24697	10068.517117325525	1
2	24698	10068.738806036476	0
2	24702	10068.8001609805	1
2	24705	10069.324561048288	0
2	24712	10070.075736138224	1
2	24713	10070.71337418788	0
2	24720	10071.824326582149	1
2	24721	10071.9215367237	0
2	24735	10073.820342818413	1
2	24736	10073.899340055113	0
2	24745	10080.54425245859	1
2	24748	10080.842456145296	0
2	24752	10080.931250293862	1
2	24753	10081.28785865264	0
2	24800	10092.819221116603	1
2	24803	10093.30159568954	0
2	24810	10094.548126409441	1
2	24811	10094.75159152746	0
2	24865	10109.466141399889	1
2	24866	10110.024728552368	0
2	24935	10151.586718728781	1
2	24936	10152.053048044798	0
2	25010	10170.993485588629	1
2	25013	10171.285024194821	0
2	25130	10206.356691298046	1
2	25131	10206.914076860872	0
2	25152	10209.98859844589	1
2	25153	10210.067484319874	0
2	25182	10215.809413064204	1
2	25183	10215.964047368549	0
2	25197	10217.094296718546	1
2	25200	10217.538861755074	0
2	25209	10218.442911775008	1
2	25210	10218.843702735079	0
2	25214	10219.123403762384	1
2	25217	10219.65578642844	0
2	25239	10221.495678847927	1
2	25240	10221.715559339223	0
2	25244	10221.933177330138	1
2	25245	10222.567277716126	0
2	25268	10226.229939080608	1
2	25269	10226.884056892412	0
2	25278	10227.670981769668	1
2	25279	10228.088517058062	0
2	25289	10229.420346003121	1
2	25290	10229.707674436484	0
2	25297	10230.692209707678	1
2	25298	10231.181595734301	0
2	25360	10250.4196149063	1
2	25361	10250.508623191296	0
2	25370	10251.269515435612	1
2	25372	10251.678510634577	2
2	25375	10252.080145126245	1
2	25378	10252.971587269417	0
2	25405	10265.525223791564	1
2	25406	10265.877273545825	0
2	25415	10266.880798997058	1
2	25416	10267.106978758177	0
2	25445	10272.609874792858	1
2	25446	10272.946662745445	0
2	25450	10273.080016114575	1
2	25451	10273.77035741192	0
2	25550	10361.338363324652	1
2	25553	10361.915640473558	0
2	25562	10362.654555982103	1
2	25564	10362.708329093181	2
2	25565	10363.119816554017	1
2	25568	10364.025268149241	0
2	25575	10364.597928797286	1
2	25577	10365.256350540152	2
2	25580	10365.55193470079	1
2	25583	10366.072941469452	0
2	25590	10366.813582837927	1
2	25591	10367.250778403929	0
2	25605	10371.051392637452	1
2	25606	10371.512333087022	0
2	25615	10372.533244063125	1
2	25616	10372.971634831377	0
2	25730	10448.020851795874	1
2	25733	10448.331729547045	0
2	25742	10449.387940676181	1
2	25744	10449.502547708789	2
2	25745	10450.094002495304	1
2	25750	10450.6584749764	0
2	25754	10450.867953951532	1
2	25757	10451.3684502816	0
2	25761	10451.47654246716	1
2	25762	10451.817663117329	0
2	25860	10471.816173804026	1
2	25861	10472.144367302752	0
2	25865	10472.389719781115	1
2	25866	10473.046084841697	0
2	25955	10522.408035387176	1
2	25956	10522.479594289994	0
2	25965	10523.579899694251	1
2	25966	10523.726311727378	0
2	25995	10538.514570255478	1
2	25996	10538.738700389445	0
2	26045	10561.731529449211	1
2	26046	10561.831778004658	0
2	26065	10565.811526312359	1
2	26068	10566.326390246128	0
2	26092	10569.406778636139	1
2	26093	10569.861768807529	0
2	26110	10571.654727353312	1
2	26111	10572.14846202723	0
2	26130	10574.39247217726	1
2	26131	10575.000654192835	0
2	26135	10575.190888290551	1
2	26136	10575.545728955379	0
2	26142	10575.914034891514	1
2	26143	10576.349337739831	0
2	26147	10576.430401064975	1
2	26148	10577.000745148033	0
2	26155	10578.371460401559	1
2	26156	10578.735670041859	0
2	26165	10579.605386658274	1
2	26166	10580.165369013809	0
2	26270	10675.572254188759	1
2	26271	10675.925662124893	0
2	26287	10678.043375815873	1
2	26290	10678.747379234694	0
2	26302	10680.315647762234	1
2	26303	10680.6955180215	0
2	26314	10681.347464377575	1
2	26315	10682.224142442299	0
2	26322	10683.045596665841	1
2	26323	10683.654969227668	0
2	26365	10692.666102867823	1
2	26366	10693.475551726487	0
2	26540	10769.06380778186	1
2	26541	10769.271795212271	0
2	26590	10794.618330901844	1
2	26593	10794.867113032001	0
2	26597	10795.051111809428	1
2	26598	10795.533108341223	0
2	26605	10796.488839901824	1
2	26606	10796.515621087043	0
2	26615	10797.203727756939	1
2	26616	10797.813572368533	0
2	26625	10799.266617096834	1
2	26626	10799.402017999482	0
2	26635	10800.894010324593	1
2	26636	10800.938273311355	0
2	26640	10800.968071843049	1
2	26641	10801.344227697323	0
2	26645	10801.443317566897	1
2	26648	10802.023699917733	0
2	26655	10802.925033800183	1
2	26656	10803.15515438667	0
2	26675	10806.374828124774	1
2	26676	10806.499586339963	0
2	26715	10831.174042837986	1
2	26716	10831.409769815352	0
2	26732	10833.55615213569	1
2	26733	10833.826568206403	0
2	26737	10833.967744915954	1
2	26738	10834.363874991009	0
2	26745	10835.262059683811	1
2	26746	10835.907169686821	0
2	26775	10861.467766850434	1
2	26776	10862.120207478866	0
2	26830	10875.952730952148	1
2	26831	10876.381892966907	0
2	26840	10877.210731876799	1
2	26841	10877.98846615605	0
2	26887	10898.943668287015	1
2	26888	10899.339293100614	0
2	26892	10899.518550082593	1
2	26893	10899.955097645869	0
2	26925	10907.312241414038	1
2	26926	10907.451227619	0
2	26945	10912.602440674373	1
2	26946	10912.65538787143	0
2	27057	10969.330172710719	1
2	27058	10969.501301721195	0
2	27065	10969.997522429165	1
2	27066	10970.569760454018	0
2	27104	10975.984089266617	1
2	27107	10976.270143261496	0
2	27114	10977.093694658999	1
2	27116	10977.508658705353	2
2	27117	10977.950082347906	1
2	27120	10978.695918650591	0
2	27124	10978.702115934581	1
2	27125	10979.304769934985	0
2	27132	10980.097023695762	1
2	27133	10980.603926100248	0
2	27195	11002.104090937786	1
2	27198	11002.645746562533	0
2	27275	11020.847716405471	1
2	27278	11021.033657769677	0
2	27420	11100.279754219915	1
2	27421	11100.586596882401	0
2	27435	11114.815375634831	1
2	27436	11115.512046458449	0
2	27447	11116.294402880864	1
2	27448	11116.960532441938	0
2	27457	11118.088361275603	1
2	27458	11118.281453647201	0
2	27505	11139.085638602938	1
2	27509	11139.193483793917	2
2	27510	11139.208212476242	1
2	27513	11139.835337351421	0
2	27530	11152.529829262556	1
2	27531	11153.166742793847	0
2	27635	11200.764246359725	1
2	27636	11201.300067824458	0
2	27640	11202.105387564404	1
2	27641	11202.277126926936	0
2	27652	11203.345430151156	1
2	27653	11203.971519054014	0
2	27660	11205.788882956794	1
2	27661	11205.790056563036	0
2	27714	11226.824021684466	1
2	27715	11227.153769141101	0
2	27722	11228.501891287049	1
2	27723	11229.090917074299	0
2	27730	11229.8595141533	1
2	27731	11230.172842930761	0
2	27745	11232.635521130298	1
2	27746	11232.694272562239	0
2	27790	11244.416197011792	1
2	27791	11244.92165281214	0
2	27865	11264.412734130172	1
2	27866	11264.5762203344	0
2	27880	11270.199786788149	1
2	27881	11270.454175558522	0
2	27935	11285.306795978693	1
2	27936	11286.050711301044	0
2	28040	11362.020523433303	1
2	28041	11362.821347204297	0
2	28045	11362.978786509304	1
2	28046	11363.246406457274	0
2	28050	11363.2742065399	1
2	28051	11363.812678816569	0
2	28060	11364.405502033195	1
2	28061	11364.863962235276	0
2	28075	11366.724898886451	1
2	28077	11366.792837748695	2
2	28080	11367.479354913247	1
2	28083	11368.14335870337	0
2	28092	11369.391558720572	1
2	28093	11369.461045814299	0
2	28100	11370.206056534757	1
2	28103	11370.735030548361	0
2	28335	11479.694893753914	1
2	28336	11480.541962079159	0
2	28370	11500.346009285109	1
2	28371	11500.933788419127	0
2	28455	11552.672163290082	1
2	28456	11553.324827281112	0
2	28460	11553.577006542679	1
2	28463	11554.303703673516	0
2	28467	11554.399479163426	1
2	28468	11554.938259447698	0
2	28535	11583.295812013323	1
2	28536	11584.089933789745	0
2	28585	11618.870495273508	1
2	28586	11618.993080889056	0
[...]
6	63212	25301.614141619678	0.818674080679
6	63265	25316.854513688117	0.789002156164
6	63275	25320.105909896872	2.874136808062
6	63280	25322.626140534578	0.860831787623
6	63304	25337.146000339323	2.040588149111
6	63320	25341.064767243535	6.052171708564
6	63332	25356.068502151465	1.4263909458
6	63375	25373.89161992593	5.425429652946
6	63385	25379.323961109095	3.078740234017
6	63400	25384.107450703425	3.327533480497
6	63442	25393.659835371492	0.874539513653
6	63485	25408.884228580234	7.309565500723
6	63527	25416.124550784073	7.166357003748
6	63530	25416.912310065349	4.445251010865
6	63550	25429.064542807964	0.734639956057
6	63580	25450.289813505254	1.611498794809
6	63622	25474.886452964816	0.927155417716
6	63625	25475.437422646519	1.222545574697
6	63630	25480.125177014811	0.513476913888
6	63660	25496.224299235654	1.83882099437
6	63680	25501.256690032689	2.071546200733
6	63705	25509.635150950973	4.86415241105
6	63733	25525.43155005712	1.738613447582
6	63740	25526.11174527605	1.68048400886
6	63806	25535.958787089753	1.004848732199
6	63826	25538.724538516747	1.341880842419
6	63889	25547.766353274725	0.891541589195
6	63902	25550.027708618372	2.499528791289
6	63935	25558.521652699518	1.897765174213
6	63957	25565.063537111402	3.411077988848
6	63965	25567.174962147628	0.838990049437
6	63970	25572.843503306166	0.826291825576
6	63975	25574.61888068362	0.746637958242
6	64000	25594.084271863629	1.085226039319
6	64020	25604.974069347929	1.494504366237
6	64040	25626.640067322715	0.920803024162
6	64045	25628.772640881576	0.939099104749
6	64055	25634.148778781148	0.911078088103
6	64077	25643.735928359716	2.225000851975
6	64110	25650.821271393045	2.328418559365
6	64132	25670.286898449542	0.708006507484
6	64135	25671.229703471962	1.165349049055
6	64145	25677.119100077256	1.281494696832
6	64155	25693.256742735	1.792036561226
6	64207	25706.412428937779	1.01105668616
6	64210	25707.071539724312	4.61844063708
6	64225	25710.426268272231	1.831806310931
6	64230	25716.51499761762	0.62710423572
6	64269	25724.035459051942	5.432336625979
6	64309	25729.967236368042	2.868406846353
6	64328	25731.970216785289	1.50588875161
6	64338	25733.395133737718	2.384666273959
6	64341	25734.063923804379	2.624460249097
6	64354	25735.65921481085	5.942975961744
6	64415	25749.753113605347	5.897430867388
6	64425	25777.279780929392	0.590585654322
6	64430	25778.061295267709	0.510448001558
6	64460	25786.609566143122	2.78664727101
6	64472	25791.562951995331	1.862791690272
6	64495	25805.140090176811	1.881353798493
6	64502	25814.825312324223	0.803672498651
6	64505	25815.709066675492	1.117155573896
6	64570	25832.341402807675	4.606347478525
6	64590	25841.463465431678	0.863040774362
6	64682	25878.845111463251	1.142549938676
6	64697	25881.15296108189	0.485663738428
6	64700	25881.82939860464	2.936694891585
6	64722	25886.783006166695	1.319669319748
6	64754	25892.404984780233	1.919845660327
6	64789	25900.785538845574	1.016896574756
6	64792	25901.602898335941	5.708084649706
6	64797	25902.147801063554	1.875300812822
6	64867	25922.898241391022	2.064730177626
6	64870	25923.405661019486	3.131347859186
6	64892	25938.109054261179	1.451913789596
6	64910	25948.590838371356	0.871249348105
6	64929	25952.216867883421	0.976776784088
6	64932	25952.766962841024	1.665277339284
6	64955	25964.520421590045	0.55220190906
6	64960	25973.149536461574	0.792487248406
6	64989	25987.132354595128	2.761577398129
6	65017	25991.101339039579	6.812069852336
6	65020	25991.701005832897	2.198090363003
6	65025	25995.149409405514	0.490845748084
6	65062	26004.090594908157	3.157117934351
6	65100	26011.514973380106	6.738683689065
6	65115	26018.8007282657	1.386531090827
6	65155	26036.257282091698	1.7363919708
6	65160	26044.445538866796	0.633170988644
6	65170	26047.501538779099	1.928241282915
6	65175	26049.347105500987	0.961482227268
6	65187	26054.688263129258	2.712883244712
6	65210	26057.524096535846	3.509165264215
6	65237	26075.199310936419	3.45602506678
6	65245	26076.594585923491	3.58941205879
6	65255	26078.737759525231	1.090236628472
6	65315	26106.261195254894	7.040800087543
6	65361	26131.213480702761	2.511494470714
6	65364	26132.11377334932	2.140050290764
6	65404	26138.129561294867	4.80623761287
6	65407	26138.820098567633	2.376909962273
6	65425	26147.105315419787	1.144455621888
6	65435	26154.923327329248	0.74744272572
6	65450	26160.265798142099	1.351711756975
6	65465	26181.357447386349	1.873046302316
6	65475	26191.234139919828	0.754982898897
6	65525	26215.09211499265	1.163957202453
6	65550	26226.547501246279	1.039294937738
6	65557	26227.154918804799	4.638958316722
6	65582	26231.51944195872	4.491347245362
6	65585	26232.157772800855	3.059319507658
6	65590	26238.679168729317	0.640070072375
6	65610	26242.22359509299	2.818969497902
6	65645	26254.513627483103	1.633989034058
6	65662	26258.61403825727	0.595385355037
6	65680	26265.117485642268	0.712973747496
6	65755	26297.828860457377	1.066214966224
6	65777	26326.218640223392	2.327902132225
6	65880	26364.664109903467	0.544800693309
6	65897	26377.629511802909	0.960437724646
6	65925	26389.717197162483	2.884822838545
6	65932	26391.826479723812	0.919355460443
6	65977	26406.406920496739	0.646627558595
6	65990	26410.001352326744	9.844546374545
6	66087	26459.159644820624	1.246050250425
6	66190	26500.116745097333	1.143638544649
6	66270	26560.863417204466	0.422522649495
6	66315	26579.617660147778	0.643015849422
6	66327	26588.488238197507	1.101890238793
6	66342	26591.755054927618	1.376276780334
6	66367	26595.295950529366	0.656315134086
6	66399	26609.480733432815	0.844963171752
6	66402	26609.927012940923	1.135445463523
6	66409	26610.41005367521	1.409475301159
6	66412	26611.034898093397	0.931836574998
6	66440	26619.774550219472	2.353786407957
6	66455	26623.079609745264	2.739721282079
6	66512	26638.215257258999	4.439228863678
6	66559	26651.444757075301	3.555532743111
6	66582	26657.790301395161	1.092770526461
6	66592	26659.266994498112	1.313824654655
6	66600	26660.422289634217	1.115951208402
6	66620	26665.753333327085	0.624507951707
6	66650	26680.122214157549	0.789018700644
6	66655	26681.045862830634	0.762991466513
6	66665	26684.178458507217	2.062957976888
6	66685	26688.238365259435	3.691394268639
6	66695	26690.209557959102	0.510383746726
6	66710	26699.929435355422	0.960547358124
6	66715	26704.699487817299	0.680352404201
6	66744	26709.852012168688	3.40444290016
6	66747	26710.475332236641	1.621512384615
6	66780	26745.836969236619	4.292122796566
6	66826	26754.448261737228	3.643660992965
6	66865	26761.47513812581	9.917313913347
6	66890	26770.45518763053	0.732432133146
6	66895	26780.754383544189	0.437602445716
6	66900	26782.563051204194	0.467902668752
6	66905	26789.985361233107	0.917620419618
6	66952	26816.421695862709	4.116064948061
6	66965	26818.746174873364	1.079826287839
6	66977	26829.71726420929	2.18753984466
6	67000	26839.744081010358	0.749694584077
6	67042	26872.55231953825	0.43105545654
6	67065	26877.786360280982	2.81414199561
6	67143	26911.04912243806	1.1591821649
6	67202	26927.585779575929	1.780974528944
6	67255	26943.805380859299	1.141992085851
6	67275	26967.473771464653	0.741355331382
6	67290	26987.190054365253	2.352010388669
6	67300	26994.304797712309	2.028082487451
6	67305	26995.313136865771	0.649364829203
6	67315	27000.365376624597	1.548012730344
6	67335	27005.397992537835	0.905555458326
6	67345	27007.784315514592	0.529253419908
6	67360	27012.440902783323	1.774919963112
6	67397	27026.120450469016	0.943993251491
6	67415	27029.526976133918	3.620387643399
6	67420	27036.9570400163	0.777909120824
6	67425	27039.381898474223	0.80207964913
6	67462	27059.248678488018	0.819481464267
6	67474	27060.804259736523	0.960127433909
6	67477	27061.331060812868	1.273934928544
6	67495	27068.89145306844	0.406602608552
6	67505	27073.864610177767	1.527350621138
6	67525	27080.937122702242	2.974738061329
6	67554	27085.077920779449	0.906088318742
6	67557	27086.0302980145	3.867998169874
6	67560	27086.848843090704	4.41904348147
6	67600	27108.197633311674	1.911727511608
6	67630	27127.710660567576	0.656633553328
6	67647	27158.668357545871	0.642294293782
6	67665	27164.314005948189	5.848566714004
6	67670	27165.874390511903	0.616315365396
6	67737	27188.603194019161	2.430135922947
6	67765	27194.771393057678	9.652017445138
6	67785	27207.011441061559	1.327606288499
6	67800	27218.915510042754	1.694630564504
6	67847	27244.07123415854	1.286540256696
6	67907	27269.491566173769	1.641759077113
6	67932	27281.418258052844	0.806822213763
6	67937	27282.27081849865	4.93499987142
6	67940	27282.728973864357	1.056054865604
6	68017	27304.512911140401	2.377111702391
6	68057	27312.583185048737	2.365034160547
6	68070	27324.758587435994	1.536432728542
6	68107	27333.283087209304	2.170883959299
6	68152	27340.10666670694	7.360899279122
6	68160	27341.913845294826	1.926290617487
6	68170	27352.053766293705	2.901236411183
6	68190	27359.464677666633	4.551842657359
6	68205	27363.577125475149	1.433976884498
6	68210	27366.490517486118	0.976946374262
6	68245	27385.505478037397	0.678859685594
6	68250	27393.70118698315	0.868369138474
6	68255	27396.525464124115	0.954300211137
6	68260	27397.725246103236	0.406591094751
6	68267	27400.133285348142	0.966211224394
6	68312	27413.944725612135	0.835352955433
6	68377	27443.065612852747	1.085888919983
6	68380	27444.034407759259	2.084882080509
6	68410	27455.156351763073	1.759239224617
6	68430	27460.300182178268	0.730345678236
6	68501	27482.451549266602	4.208806335554
6	68513	27483.853494281087	0.923306988944
6	68525	27485.351421187956	1.381188007413
6	68612	27503.949977810121	4.305104376975
6	68640	27509.248780517314	0.860581653053
6	68662	27525.516813333185	0.472683595261
6	68672	27527.138375330056	0.880950728201
6	68685	27528.949728640319	3.824707846407
6	68714	27537.990150212416	2.300626888562
6	68721	27538.818666468666	2.015033867753
6	68750	27557.667634820629	1.651792962844
6	68755	27559.456568838786	0.643055873923
6	68760	27562.660112568781	0.501103140647
6	68805	27589.984095834637	0.673419841472
6	68810	27594.327438597113	0.854244800843
6	68825	27598.897785403362	2.729803455625
6	68842	27609.478268882507	0.839306556247
6	68878	27613.840266255769	4.859567711884
6	68892	27617.354921934023	6.308929201197
6	68922	27620.886447509055	9.089748524288
6	68987	27666.06699969598	0.989137779083
6	69010	27676.204530465668	1.507637003277
6	69025	27679.258530343325	2.451679781389
6	69050	27688.616183509486	1.737343047838
6	69066	27692.951342099372	0.990425942093
6	69077	27694.655841820667	2.256380951994
6	69100	27720.26160348995	2.428140455528
6	69195	27749.862965485272	0.659776133178
6	69232	27776.328978928115	0.595109870099
6	69240	27778.64668341163	4.67048863519
6	69270	27796.471046721357	1.58231465357
6	69280	27799.3958800961	1.089818350386
6	69312	27822.663330289598	1.122503798375
6	69349	27829.341736872219	0.463246789621
6	69379	27834.122674018682	4.859480637269
6	69410	27839.476424219206	0.825071795455
6	69450	27891.173742441398	0.638029557699
6	69465	27902.686241777097	4.118535980027
6	69489	27915.021152035259	0.588989802102
6	69520	27923.867670280518	0.932024711976
6	69567	27945.567814148635	4.905965048549
6	69590	27950.051780084996	0.755543254722
6	69620	27956.253621579513	9.0372699309
6	69625	27959.734184621787	0.728710604319
6	69647	27969.732599118747	2.632860886882
6	69687	27979.660855703332	0.818143776525
6	69700	27981.88753011089	6.72494146825
6	69715	27999.75300641958	0.965583771467
6	69740	28014.534981808694	0.733149004248
6	69765	28024.514287619261	2.685914387045
6	69777	28030.115035119726	1.842006735693
6	69790	28035.273186816612	2.727213536721
6	69815	28046.749641294623	2.490159178621
6	69842	28058.799409238142	3.343070047175
6	69845	28059.734114559866	3.303037610199
6	69852	28062.746278443757	0.486107431678
6	69855	28063.576057631393	1.126241080241
6	69870	28069.945858455353	1.895455501816
6	69914	28084.246213575415	1.954535908676
6	69917	28084.930878698323	3.887072656769
6	69940	28089.487682457096	0.748554467568
6	69960	28119.79922015626	1.307352390169
6	69995	28127.49350059451	2.497458143817
6	70005	28157.455792322676	0.489340110868
6	70010	28163.337843508123	0.65418324084
6	70020	28166.210478659145	1.78123145732
6	70040	28190.258831109924	1.828447602135
6	70045	28192.176608692188	0.710901773442
6	70150	28213.786596660855	0.688530910574
6	70155	28215.032088944847	0.849241760327
6	70214	28237.002595462619	0.710589488735
6	70217	28237.434816955604	1.048684515763
6	70235	28244.177294640742	1.367981833636
6	70250	28253.581014536359	0.801680907328
6	70312	28271.849870953261	0.814667089656
6	70332	28274.308411145647	1.905449435246
6	70347	28276.042452436517	1.148869079947
6	70435	28301.9469267289	0.485918218596
6	70440	28306.387143926322	0.98787848209
6	70452	28309.701857423791	1.017332054795
6	70465	28319.630167710172	2.035814022822
6	70490	28340.420143080973	1.599419529268
6	70530	28373.821077005492	1.663156713595
6	70535	28381.388609028896	0.892138289148
6	70602	28403.817967386181	3.852148470323
6	70624	28406.867844524052	1.156004576712
6	70697	28427.174893074254	3.278319058773
6	70717	28431.351109667184	0.916874349894
6	70761	28439.391208428472	0.920122818118
6	70766	28440.129020568451	1.154390797546
6	70779	28442.260824883918	4.664664176055
6	70832	28453.711015142489	1.245028813333
6	70867	28460.393031732777	0.855253419839
6	70880	28471.627660038991	0.96585567845
6	70897	28482.448693353577	1.630540435956
6	70902	28483.409443403721	1.181097254412
6	70905	28484.397152380679	1.06241164856
6	70939	28504.054989355572	1.321086827467
6	70962	28506.952273475753	5.418217687308
6	71042	28549.54109634481	2.34564408618
6	71070	28559.86040735107	1.488536176936
6	71095	28569.208882115888	4.680064070242
6	71100	28578.940799454942	0.430319528095
6	71117	28582.531998568339	0.90983881983
6	71135	28593.015019824708	2.890089425907
6	71147	28600.813380662496	1.413596178952
6	71170	28613.520313665639	0.716134552844
6	71185	28623.613890351688	0.727435146319
6	71255	28649.177227082733	0.798894298915
6	71275	28660.945060026311	0.649868896184
6	71300	28666.064340028681	3.246122312252
6	71425	28702.001554666936	0.839740813011
6	71435	28705.22851531273	1.148727267786
6	71509	28738.165326036393	1.643295451373
6	71512	28738.624381343854	2.722886836314
6	71530	28752.92059415873	2.476735456149
6	71552	28759.286112176045	1.247673888673
6	71575	28763.14778348307	5.911783783736
6	71590	28766.932878344288	2.089264256397
6	71605	28786.055129215935	0.581125736283
6	71610	28794.361692518339	0.803373780195
6	71634	28807.590053968706	0.823697598102
6	71654	28810.102716637731	0.921057151211
6	71657	28811.045088275245	6.286886127544
6	71670	28818.430985189082	2.44316310461
6	71680	28821.037226527732	2.151311998406
6	71715	28829.997126865476	2.365686199707
6	71755	28836.895660696957	2.037352729461
6	71770	28845.990799127218	0.757660112018
6	71777	28847.119406468547	3.075668553736
6	71810	28863.030560835667	6.259052826164
6	71820	28869.461673893719	1.20276017754
6	71825	28872.061339016283	0.709918087116
6	71835	28879.866606160943	0.846008102968
6	71850	28889.547347710845	1.583886717306
6	71855	28892.693524163098	0.444425043743
6	71900	28926.206924527234	0.494366248837
6	71930	28948.879467233237	0.786756332358
6	71960	28955.330292411019	3.01233993847
6	71965	28958.568678939009	0.430282484833
6	71980	28963.757352492418	1.749634828696
6	72010	28968.294337831704	4.52727406414
6	72017	28972.076364031375	0.732107168017
6	72055	28981.508931194046	1.120005364458
6	72065	28984.870232118791	1.720879072156
6	72080	29005.75640032583	0.406421063095
6	72090	29009.40828494189	2.023449171144
6	72100	29012.087171218814	1.202544415013
6	72107	29014.198430309683	0.984166521346
6	72142	29025.430433720973	1.208147921004
6	72162	29028.963790864866	1.580238696918
6	72170	29030.36525680441	0.934959570026
6	72175	29031.451671393201	0.681572807487
6	72235	29043.918130315362	6.431018679889
6	72242	29047.186856628955	0.756807851698
6	72272	29065.718679123788	0.895171751175
6	72275	29066.388657430417	1.477716021747
6	72310	29084.72046623795	4.018592326965
6	72322	29090.717633615522	0.801788940281
6	72335	29093.092080615814	2.808893102127
6	72360	29108.637497284813	5.545740508846
6	72382	29113.146955100893	2.981152029544
6	72385	29113.906585647332	2.30581499223
6	72420	29164.446979769069	3.207732823498
6	72472	29176.562312638005	3.457567900793
6	72502	29180.777542730407	5.507961584156
6	72555	29199.704150321068	0.90021957995
6	72597	29209.56486518084	1.320886674426
6	72655	29234.495570977865	2.642784288805
6	72684	29240.589933773589	1.554327963752
6	72692	29241.896070345485	3.464455290409
6	72695	29242.548088453564	4.591033354963
6	72705	29250.863633678533	1.532804321008
6	72725	29261.660349439525	0.799807685276
6	72750	29269.778136363784	0.497304320335
6	72755	29271.475925589775	0.969461512985
6	72780	29289.844123656525	2.114495922346
6	72805	29304.667968923324	0.941276029311
6	72867	29324.352826269111	5.943291000388
6	72875	29326.523335642518	2.507224147681
6	72955	29371.354121789993	1.654274311763
6	72991	29382.810075715321	1.007511416154
6	73002	29384.796966329727	2.733784465709
6	73010	29386.023718639182	0.631509848068
6	73050	29406.847903284517	0.533265994396
6	73105	29420.143414141384	0.94001998315
6	73110	29421.415752323623	0.748195458762
6	73126	29428.046348163442	0.789659003308
6	73149	29431.393484713094	1.127171247464
6	73180	29448.043667068151	0.951354619535
6	73215	29464.109406652353	2.63708704681
6	73220	29465.329635194165	0.580440231413
6	73235	29474.909496054003	0.552397112129
6	73250	29484.019980194503	2.419597929017
6	73317	29503.279390281379	5.129667144144
6	73331	29505.250767746415	1.220600135596
6	73334	29506.132780472316	3.097710765004
6	73375	29513.575644751009	9.135684915483
6	73390	29521.723318164042	3.25291404056
6	73395	29524.384512465812	0.775366404839
6	73405	29527.850165820783	1.528197901041
6	73445	29540.096272742393	4.883395438265
6	73490	29549.601110922845	5.128568413146
6	73500	29551.547581741412	1.835714894506
6	73644	29613.951390918292	3.558069513272
6	73715	29651.142892827314	0.706048670923
6	73742	29662.580641347807	0.929849807872
6	73754	29663.736483795926	0.832067811896
6	73770	29666.617070423594	7.908798367078
6	73777	29669.913208012408	0.683024937706
6	73804	29673.78929726495	2.496918802616
6	73807	29674.682583071008	4.265989897389
6	73815	29676.927244158382	0.791916112369
6	73825	29678.793524758301	0.848878824478
6	73845	29682.412140828932	3.006924213975
6	73857	29686.330362533622	0.581391735381
6	73907	29699.824040118918	1.99926457124
6	73910	29700.800204935331	2.100650291098
6	73915	29705.567293644514	0.920798052615
6	73920	29707.115340438049	0.553570132796
6	73967	29720.276516877607	3.66784433477
6	73970	29720.941216731564	0.798663659469
6	74000	29749.690101762179	0.629848376482
6	74010	29750.990488681941	2.601808106323
6	74074	29763.369154199154	2.319325582311
6	74079	29764.094859284337	2.568873450388
6	74110	29773.781942698183	0.999480716512
6	74115	29776.439354209473	0.564699822059
6	74155	29786.722317094917	1.62511576868
6	74160	29787.324135204651	0.526285614725
6	74187	29811.375756247597	0.947435203495
6	74220	29818.893877624094	8.050349336494
6	74230	29824.026326017511	1.951280489433
6	74244	29825.497220075538	1.14979349025
6	74275	29828.984383856074	4.07867377721
6	74280	29829.727950843551	1.189721320076
6	74296	29832.581940035137	1.362353714182
6	74311	29834.580976715112	1.00068636526
6	74407	29863.007507373501	4.359338978839
6	74410	29863.864997404876	1.601108451107
6	74430	29877.04357427337	1.441300859843
6	74450	29890.616083043679	0.498955847789
6	74475	29896.335415574375	2.380689274147
6	74480	29902.048430538536	0.519765463285
6	74497	29912.955858204423	2.854065866328
6	74520	29926.781355055572	1.922167830978
6	74545	29947.651522938253	0.722462021234
6	74562	29954.988103393835	1.749910016685
6	74565	29955.470837886629	2.032068697796
6	74590	29983.032544898059	1.774658491182
6	74597	29986.786204222091	0.424634033442
6	74605	29989.015434931078	0.899127228558
6	74615	29993.160834140324	0.742864190461
6	74622	29996.54305919272	0.557396670384
6	74625	29997.069858058618	1.013015569768

