version 2
run First_exit_2-3-20191023-00:19:37-5088
attr configname First_exit_2
attr datetime 20191023-00:19:37
attr experiment First_exit_2
attr inifile omnetpp.ini
attr iterationvars ""
attr iterationvarsf ""
attr measurement ""
attr network ResponseTimeNetwork
attr processid 5088
attr repetition 3
attr replication #3
attr resultdir results
attr runnumber 3
attr seedset 3
param **.Source.interArrivalTime exponential(4s)
param **.jobPriority bernoulli(0.4)
param **.PS.serviceTimeU1 "uniform(0.4s, 1.0s)"
param **.PS.serviceTimeU2 "uniform(1s, 1.2s)"
param **.SS1.serviceTime exponential(0.4s)
param **.SS2.serviceTime exponential(0.8s)
param **.PS.exitProbability bernoulli(0.2)

vector 0 ResponseTimeNetwork.SS1 queueLength:vector ETV
attr interpolationmode sample-hold
attr title "queue length, vector"
vector 1 ResponseTimeNetwork.SS2 queueLength:vector ETV
attr interpolationmode sample-hold
attr title "queue length, vector"
vector 2 ResponseTimeNetwork.QueueU1 queueLength:vector ETV
attr interpolationmode sample-hold
attr title "queue length, vector"
vector 3 ResponseTimeNetwork.QueueU2 queueLength:vector ETV
attr interpolationmode sample-hold
attr title "queue length, vector"
vector 4 ResponseTimeNetwork.sink lifeTimeU2:vector ETV
attr interpolationmode none
attr title "lifetime of arrived jobs U2, vector"
attr unit s
vector 5 ResponseTimeNetwork.sink lifeTime:vector ETV
attr interpolationmode none
attr title "lifetime of arrived jobs, vector"
attr unit s
vector 6 ResponseTimeNetwork.sink lifeTimeU1:vector ETV
attr interpolationmode none
attr title "lifetime of arrived jobs U1, vector"
attr unit s
0	0	0	0
0	24655	16072.854925218994	1
0	24656	16074.04314280954	0
1	0	0	0
1	630	435.616526340312	1
1	631	435.933567348888	0
1	4580	2950.969720906002	1
1	4581	2951.129065855073	0
1	4670	3007.89274564361	1
1	4671	3008.0272201362	0
1	7622	4967.809209232972	1
1	7629	4968.654960189047	0
1	8355	5521.569126690438	1
1	8356	5522.025872727414	0
1	11157	7404.273302929627	1
1	11159	7404.287573765951	0
1	13607	8967.91560988803	1
1	13609	8968.304656201188	0
1	15195	10009.434861673591	1
1	15196	10009.473098493396	0
1	15860	10380.028452579857	1
1	15866	10382.941370191997	0
1	18852	12335.683565583858	1
1	18854	12335.899537962585	0
1	19885	13000.98160547382	1
1	19886	13001.352190813693	0
1	21955	14279.052906400102	1
1	21956	14279.343158088092	0
1	22845	14915.173415896864	1
1	22846	14916.030918305319	0
1	22850	14916.565140127668	1
1	22851	14916.842686703782	0
1	23137	15131.84816966973	1
1	23139	15131.854016562036	0
1	25200	16393.691497313609	1
1	25201	16394.390399498823	0
1	25210	16395.725914555839	1
1	25211	16396.085922032632	0
1	27300	17699.982022267265	1
1	27301	17700.178814987808	0
1	28180	18273.715692813651	1
1	28181	18274.853768553757	0
1	28255	18311.971860193674	1
1	28256	18312.213667062275	0
1	28265	18314.269325235752	1
1	28266	18314.761729628849	0
1	29412	19086.040745419174	1
1	29414	19086.247860019706	0
1	29765	19273.841580425995	1
1	29766	19274.278176962479	0
1	30630	19840.490090340288	1
1	30631	19840.636855446854	0
1	31235	20228.208661567259	1
1	31236	20229.868346180977	0
1	31310	20266.14897187067	1
1	31323	20267.813627540296	0
1	31405	20302.361764782621	1
1	31406	20303.38575903799	0
1	31420	20305.577607736197	1
1	31421	20305.776833000093	0
1	36850	23794.576215349189	1
1	36856	23795.887900593164	0
1	39850	25660.409143819391	1
1	39851	25661.390566663772	0
1	41275	26519.613845115495	1
1	41276	26520.14807925793	0
1	45740	29436.453872710814	1
1	45741	29436.65577827988	0
2	0	0	0
2	5	3.494531315428	1
2	6	4.105098988952	0
2	25	7.379291318575	1
2	26	7.832421550945	0
2	30	8.076557097183	1
2	31	8.504324930672	0
2	200	153.972609429765	1
2	201	154.190677119973	0
2	302	213.518023656845	1
2	303	213.633420016125	0
2	307	213.676806247095	1
2	308	214.281896168852	0
2	320	216.084446971065	1
2	321	216.333332033336	0
2	365	257.090671511501	1
2	366	257.741706173921	0
2	435	280.676309110431	1
2	436	281.529970967745	0
2	936	654.880125888152	1
2	937	655.013450533628	0
2	1010	699.748253500489	1
2	1011	699.990059525629	0
2	1025	710.638366506765	1
2	1026	710.951992364563	0
2	1080	739.432040470735	1
2	1081	739.843244174776	0
2	1110	745.765215971821	1
2	1111	746.651109305621	0
2	1127	748.563214410243	1
2	1128	749.077964516999	0
2	1132	749.346130318784	1
2	1133	749.666365073705	0
2	1310	890.522516501113	1
2	1311	891.093776848677	0
2	1330	904.985704002267	1
2	1331	905.743693579721	0
2	1450	975.416688920886	1
2	1451	975.859669359566	0
2	1460	978.12925019378	1
2	1461	978.766975288293	0
2	1465	979.241330481158	1
2	1466	979.569350343351	0
2	1470	979.665036068118	1
2	1471	980.481643784386	0
2	1485	983.188796398444	1
2	1486	983.777420130433	0
2	1555	1038.333872427206	1
2	1556	1038.54541102836	0
2	1575	1051.93447757251	1
2	1576	1052.303145209527	0
2	1605	1084.376860768904	1
2	1606	1084.394156392768	0
2	1630	1104.129769083625	1
2	1631	1104.512988620607	0
2	1695	1119.446520805241	1
2	1696	1119.475328636258	0
2	1740	1138.006066658821	1
2	1741	1138.117536071335	0
2	1765	1152.861525364395	1
2	1766	1153.415369576999	0
2	1855	1223.714974698358	1
2	1856	1224.533489449751	0
2	1860	1224.609453821862	1
2	1861	1225.227030785578	0
2	1865	1225.539560099171	1
2	1867	1225.915121895147	2
2	1868	1225.932661225936	1
2	1871	1226.523670380246	0
2	1880	1227.853450301409	1
2	1881	1228.404654011053	0
2	2225	1480.812364229707	1
2	2226	1481.144762652423	0
2	2410	1591.630329149903	1
2	2412	1592.288526510983	2
2	2413	1592.413608724002	1
2	2416	1593.320662041132	0
2	2452	1631.023226026689	1
2	2453	1631.103265173002	0
2	2460	1632.10927554158	1
2	2461	1632.65245807773	0
2	2465	1633.125921824271	1
2	2468	1633.637292887937	0
2	2472	1634.003503536465	1
2	2473	1634.2017255427	0
2	2525	1692.407964451489	1
2	2526	1692.75610998022	0
2	2565	1712.349813360561	1
2	2566	1712.842280395929	0
2	2590	1716.323767189557	1
2	2591	1716.697096593609	0
2	2620	1741.40939644829	1
2	2623	1742.00931877504	0
2	2670	1757.064508939658	1
2	2671	1757.349945915156	0
2	2730	1793.686844106991	1
2	2731	1794.098840406199	0
2	2750	1801.589154883507	1
2	2751	1802.077981078397	0
2	2775	1827.876284820738	1
2	2776	1828.328929124431	0
2	2780	1828.406095751575	1
2	2783	1829.072350838718	0
2	2840	1877.162548306613	1
2	2841	1877.748733139423	0
2	3020	1963.463878491686	1
2	3021	1963.537535280013	0
2	3065	1995.605749773108	1
2	3066	1996.30825560966	0
2	3105	2007.624922265187	1
2	3107	2008.058663577259	2
2	3108	2008.483283723333	1
2	3112	2008.887806104205	2
2	3114	2009.334919579689	3
2	3115	2009.350797254873	2
2	3118	2010.272847458768	1
2	3121	2011.149775215519	0
2	3125	2011.360914361965	1
2	3126	2012.106285790542	0
2	3130	2012.385926481666	1
2	3131	2012.997086523102	0
2	3165	2061.04434347495	1
2	3166	2061.722127615433	0
2	3220	2094.25319630849	1
2	3221	2094.522394037672	0
2	3330	2162.124894737145	1
2	3331	2162.715974335108	0
2	3385	2219.640005271277	1
2	3386	2220.039688073528	0
2	3500	2285.753148112121	1
2	3501	2286.386224500873	0
2	3535	2315.435024263947	1
2	3538	2316.110194241558	0
2	3555	2323.492385201093	1
2	3556	2323.755972036278	0
2	3710	2431.76504106049	1
2	3711	2431.782395943983	0
2	3720	2433.929175096024	1
2	3721	2434.25675834735	0
2	3732	2435.125066325907	1
2	3733	2435.410465690038	0
2	3740	2435.941337177234	1
2	3743	2436.725361509165	0
2	3805	2481.715459315793	1
2	3806	2482.24493726324	0
2	3885	2515.484608974931	1
2	3886	2515.616584887527	0
2	3895	2516.568497543143	1
2	3897	2516.982044374665	2
2	3898	2517.240468836314	1
2	3901	2517.750241367397	0
2	3940	2545.188001340355	1
2	3941	2545.328557551687	0
2	3992	2579.053438520255	1
2	3993	2579.36092779738	0
2	3999	2579.819162968241	1
2	4000	2579.947680229546	0
2	4060	2641.295309122941	1
2	4061	2641.819575265481	0
2	4070	2643.271634231727	1
2	4071	2643.845229358732	0
2	4095	2649.812798299739	1
2	4096	2650.405677677453	0
2	4150	2709.992504599104	1
2	4151	2710.02296770024	0
2	4175	2720.216224142659	1
2	4176	2720.786159336601	0
2	4312	2820.066403367306	1
2	4313	2820.302074288892	0
2	4330	2823.546690579647	1
2	4331	2823.731135619335	0
2	4410	2870.914380540991	1
2	4411	2871.446066330643	0
2	4480	2911.949541561658	1
2	4481	2912.085686308126	0
2	4510	2925.655680190632	1
2	4511	2926.566923009011	0
2	4535	2935.061031481817	1
2	4536	2935.494430005291	0
2	4865	3129.120154233348	1
2	4866	3129.165398528256	0
2	4950	3193.139114819809	1
2	4951	3193.590200871245	0
2	5060	3274.185604795662	1
2	5061	3274.70470214689	0
2	5070	3275.602797575533	1
2	5071	3275.655376055398	0
2	5120	3299.403088140618	1
2	5121	3300.211005977332	0
2	5160	3317.744241454086	1
2	5161	3318.079588577352	0
2	5325	3418.674993146338	1
2	5326	3418.908380801992	0
2	5330	3419.263353841264	1
2	5331	3419.374988123185	0
2	5380	3462.34245199459	1
2	5381	3462.914552083846	0
2	5385	3463.056349370091	1
2	5386	3463.584484246142	0
2	5405	3481.074196098659	1
2	5406	3481.729106598526	0
2	5510	3532.911636934916	1
2	5511	3533.392675108304	0
2	5520	3535.430197554527	1
2	5521	3535.674383975104	0
2	5540	3542.954939918704	1
2	5541	3543.303123760564	0
2	5580	3567.307564527453	1
2	5581	3567.395808315578	0
2	5585	3567.456042819315	1
2	5586	3567.860428797289	0
2	5600	3582.205683855553	1
2	5601	3582.497231829491	0
2	5655	3610.240010262465	1
2	5656	3611.073856549586	0
2	5735	3684.944764125686	1
2	5736	3685.266382840959	0
2	5765	3703.643406039476	1
2	5766	3704.330563380552	0
2	5830	3741.076272660969	1
2	5831	3741.487374171378	0
2	5860	3766.15724773701	1
2	5861	3766.321805134578	0
2	5975	3858.391895360243	1
2	5976	3858.936582144564	0
2	6005	3875.721267020278	1
2	6006	3876.286506004369	0
2	6010	3876.459128028612	1
2	6011	3876.793450945679	0
2	6015	3876.875134641583	1
2	6018	3877.381210251728	0
2	6150	3963.353031104336	1
2	6151	3963.625298820287	0
2	6160	3964.806929787623	1
2	6163	3965.118028273424	0
2	6170	3965.845546203706	1
2	6171	3966.343035851037	0
2	6220	3985.315798288364	1
2	6221	3986.064667746268	0
2	6310	4080.184549962078	1
2	6311	4080.336446069143	0
2	6320	4081.676737838021	1
2	6321	4081.755754206804	0
2	6445	4178.449413726872	1
2	6446	4178.85355800761	0
2	6545	4213.953025336865	1
2	6546	4214.297204378148	0
2	6760	4359.615559586663	1
2	6761	4359.972967354335	0
2	6780	4368.427497119623	1
2	6781	4368.59991253851	0
2	6850	4421.148402317213	1
2	6851	4421.553076165526	0
2	6890	4449.531832820578	1
2	6891	4449.62171084521	0
2	6955	4479.457299493515	1
2	6956	4479.704502136734	0
2	6960	4479.862760846457	1
2	6962	4480.126084214605	2
2	6963	4480.486718553033	1
2	6967	4480.522667223192	2
2	6970	4481.278060472206	1
2	6973	4481.98567037681	0
2	7125	4628.574745213867	1
2	7126	4628.712645379262	0
2	7150	4646.319350888707	1
2	7151	4646.42897264464	0
2	7355	4808.706714730076	1
2	7358	4809.423159733516	0
2	7385	4815.562737792097	1
2	7386	4815.954313222162	0
2	7415	4865.73964069838	1
2	7416	4865.777157198953	0
2	7520	4915.823975873911	1
2	7521	4915.849688940112	0
2	7535	4917.056247777611	1
2	7536	4917.642941400217	0
2	7570	4932.690039770507	1
2	7571	4932.9958949541	0
2	7595	4945.780994551509	1
2	7596	4945.915845405734	0
2	7780	5073.060205745757	1
2	7782	5073.234777032405	2
2	7783	5073.839074857437	1
2	7786	5074.55790636949	0
2	7790	5074.755342994933	1
2	7792	5075.018261308791	2
2	7793	5075.257987809179	1
2	7796	5075.952605356786	0
2	7800	5076.09982296633	1
2	7801	5076.848907069254	0
2	7917	5189.838303039132	1
2	7918	5189.868422199573	0
2	7927	5191.476576818442	1
2	7928	5191.756831365053	0
2	8025	5253.088606911726	1
2	8026	5253.268488594999	0
2	8155	5379.68189821891	1
2	8156	5379.78896749426	0
2	8230	5428.725527917256	1
2	8233	5429.611584049819	0
2	8237	5429.779746966655	1
2	8238	5430.369184830675	0
2	8295	5477.200145086148	1
2	8296	5477.861814221098	0
2	8340	5519.340846214328	1
2	8341	5519.61526399304	0
2	8390	5545.838400312949	1
2	8391	5546.464017566414	0
2	8405	5559.501651824124	1
2	8406	5559.613842589188	0
2	8420	5564.912470936363	1
2	8421	5565.37463316339	0
2	8545	5680.640249369821	1
2	8546	5680.917756968739	0
2	8615	5788.654884189855	1
2	8618	5789.299451163099	0
2	8640	5795.346394409477	1
2	8641	5796.003339314348	0
2	8650	5797.077611019283	1
2	8651	5797.6891364496	0
2	8730	5837.764103698865	1
2	8731	5838.271758536721	0
2	8815	5891.112479301075	1
2	8816	5891.506761035964	0
2	8980	6007.027029157634	1
2	8981	6007.533624443719	0
2	9095	6068.537563041565	1
2	9096	6069.055507607393	0
2	9102	6069.317208173736	1
2	9103	6069.642835179072	0
2	9195	6125.21414062551	1
2	9196	6125.576840184884	0
2	9210	6127.504456701535	1
2	9213	6127.987194737318	0
2	9222	6129.334345868934	1
2	9223	6129.493962568735	0
2	9495	6318.914121187236	1
2	9496	6318.966246837378	0
2	9535	6340.886119225301	1
2	9536	6341.082936051787	0
2	9545	6341.969082272685	1
2	9546	6342.294017152462	0
2	9550	6342.551490129135	1
2	9551	6342.993348909981	0
2	9765	6486.266000908731	1
2	9766	6486.844901036582	0
2	9885	6582.542107959593	1
2	9886	6583.340850431941	0
2	9892	6584.208013800308	1
2	9893	6584.319945245565	0
2	10065	6707.617711406401	1
2	10066	6708.347805684133	0
2	10185	6812.843820481746	1
2	10188	6813.270479711725	0
2	10192	6813.654523642257	1
2	10193	6813.89736131781	0
2	10215	6816.5983645566	1
2	10218	6817.015343194228	0
2	10272	6851.926927643641	1
2	10273	6852.342327418903	0
2	10325	6876.802093978599	1
2	10326	6877.333976414762	0
2	10440	6934.968580443931	1
2	10441	6935.288987963146	0
2	10480	6957.082857522931	1
2	10481	6957.690673736901	0
2	10490	6958.865979646807	1
2	10491	6959.324962440878	0
2	10515	6978.545256877451	1
2	10516	6978.565898523733	0
2	10525	6980.313763123712	1
2	10526	6980.836454300418	0
2	10565	7020.05592385289	1
2	10566	7020.516094743203	0
2	10700	7114.136378524218	1
2	10701	7114.34009230891	0
2	10750	7148.467443540941	1
2	10751	7148.593982383171	0
2	10760	7150.4313196625	1
2	10761	7150.663307774522	0
2	10965	7277.073722652632	1
2	10966	7277.550019264311	0
2	11015	7322.686784180578	1
2	11016	7322.811379763	0
2	11105	7389.726157764693	1
2	11106	7389.898500920271	0
2	11110	7390.561915443912	1
2	11111	7390.880706879261	0
2	11185	7414.17885291048	1
2	11186	7414.276959341142	0
2	11240	7443.709571006153	1
2	11241	7443.999806144379	0
2	11255	7446.870985979896	1
2	11256	7447.611408657347	0
2	11280	7461.282841749278	1
2	11283	7461.744837952845	0
2	11290	7463.156324868431	1
2	11291	7463.633160870497	0
2	11340	7480.711527322018	1
2	11341	7480.955107183191	0
2	11355	7483.863492963293	1
2	11356	7484.466368473488	0
2	11395	7496.0397322766	1
2	11396	7496.245263507062	0
2	11410	7509.842509787449	1
2	11411	7509.883603210157	0
2	11450	7557.447926658281	1
2	11451	7557.671438856991	0
2	11475	7581.50832770592	1
2	11476	7582.331048105824	0
2	11480	7582.388764707334	1
2	11481	7582.801091609038	0
2	11485	7582.835299810636	1
2	11486	7583.217566007124	0
2	11490	7583.604375236853	1
2	11491	7583.770465408014	0
2	11500	7588.908095414584	1
2	11501	7589.177046340342	0
2	11560	7650.346679776975	1
2	11561	7650.880090834101	0
2	11570	7656.766807969235	1
2	11571	7657.317829162011	0
2	11580	7663.168327212325	1
2	11581	7663.409173541277	0
2	11610	7676.507451574104	1
2	11611	7676.907536029242	0
2	11625	7684.223191415092	1
2	11626	7684.843794978783	0
2	11640	7691.16282349135	1
2	11641	7691.492181715492	0
2	11645	7691.661833102686	1
2	11646	7692.248204987246	0
2	11775	7772.251967748049	1
2	11776	7772.605698185215	0
2	11955	7908.916057612186	1
2	11956	7909.003597229033	0
2	12065	7984.705455670542	1
2	12066	7985.394662757474	0
2	12145	8015.490751313582	1
2	12146	8016.250074540566	0
2	12290	8098.16960111777	1
2	12291	8098.684431481594	0
2	12395	8160.55359500379	1
2	12396	8160.957515548251	0
2	12410	8162.371237407709	1
2	12411	8163.071493819804	0
2	12415	8163.555492535332	1
2	12416	8163.625840073108	0
2	12420	8163.801466809675	1
2	12423	8164.544149061601	0
2	12485	8224.470635799799	1
2	12486	8225.148203218941	0
2	12550	8264.503580461676	1
2	12551	8264.641325774252	0
2	12570	8266.568283592009	1
2	12571	8267.279132814643	0
2	12575	8267.582560918706	1
2	12576	8268.219839533216	0
2	12710	8359.508855671708	1
2	12711	8359.937704166397	0
2	12715	8360.300572851147	1
2	12716	8360.425168267777	0
2	12770	8396.718258340131	1
2	12771	8396.894913033059	0
2	12795	8417.549965419866	1
2	12796	8417.56357460263	0
2	12810	8430.601924280239	1
2	12811	8431.201206124836	0
2	12855	8458.852538084752	1
2	12858	8459.695976805171	0
2	12870	8462.593098848186	1
2	12871	8462.6164543197	0
2	12937	8502.041051023466	1
2	12938	8502.192035823088	0
2	13080	8634.073864016965	1
2	13081	8634.700280319052	0
2	13100	8646.400715314982	1
2	13101	8646.472081038946	0
2	13175	8693.534899607995	1
2	13176	8694.276063900848	0
2	13260	8774.268773493176	1
2	13263	8774.668161324209	0
2	13270	8776.042345276765	1
2	13271	8776.254834098259	0
2	13280	8778.02303987803	1
2	13281	8778.668310388766	0
2	13310	8785.831936606279	1
2	13311	8786.573985875269	0
2	13345	8801.238214966633	1
2	13346	8801.686325522675	0
2	13435	8877.904435568457	1
2	13438	8878.170441677055	0
2	13447	8879.144112632485	1
2	13448	8879.567788737786	0
2	13470	8884.565019124601	1
2	13471	8884.805247063558	0
2	13477	8885.63976034223	1
2	13478	8885.739166654642	0
2	13487	8886.767734447945	1
2	13488	8887.336347662979	0
2	13575	8964.249871805008	1
2	13576	8964.358073218722	0
2	13580	8964.415398987269	1
2	13583	8964.797386880821	0
2	13594	8965.692654131062	1
2	13595	8966.309395199219	0
2	13670	8985.411728110103	1
2	13673	8985.972463847832	0
2	13760	9029.663710128857	1
2	13761	9029.843897655209	0
2	13910	9141.766108525049	1
2	13913	9142.312752597404	0
2	13930	9146.538703213614	1
2	13931	9147.241513449443	0
2	13980	9177.09061163081	1
2	13981	9177.37962762645	0
2	14010	9219.213029389898	1
2	14012	9219.992493864668	2
2	14013	9220.001282658883	1
2	14016	9220.586996068376	0
2	14069	9251.88868536582	1
2	14070	9252.162917405394	0
2	14240	9366.024789080397	1
2	14241	9366.655097643321	0
2	14280	9378.6826549959	1
2	14281	9379.424549713335	0
2	14315	9395.652812144447	1
2	14316	9395.822347525945	0
2	14325	9397.642100580052	1
2	14326	9398.234548899356	0
2	14402	9458.094598219508	1
2	14403	9458.095891536375	0
2	14407	9458.326018928858	1
2	14408	9458.694400313332	0
2	14450	9495.345161058894	1
2	14451	9495.99258764608	0
2	14465	9513.305837533195	1
2	14466	9513.960243253066	0
2	14485	9536.30349980355	1
2	14486	9536.720681591226	0
2	14525	9558.685058441131	1
2	14526	9558.745555584469	0
2	14630	9637.499131470144	1
2	14631	9637.709194724456	0
2	14645	9640.163204800106	1
2	14646	9640.309833141076	0
2	14760	9716.889373553997	1
2	14761	9716.903541269528	0
2	14920	9842.458264406944	1
2	14921	9843.098808608974	0
2	14955	9866.081791258983	1
2	14956	9866.6622847695	0
2	14997	9883.350548939784	1
2	14998	9883.747437513784	0
2	15022	9898.140020870184	1
2	15023	9898.571836961127	0
2	15050	9910.897309640914	1
2	15051	9911.252734913862	0
2	15465	10168.743134349899	1
2	15466	10168.842104925299	0
2	15560	10220.462965036652	1
2	15561	10221.114724764773	0
2	15575	10229.395618222864	1
2	15576	10229.456661560862	0
2	15605	10242.552838439166	1
2	15606	10242.881230890243	0
2	15690	10291.796021353789	1
2	15691	10292.048368145507	0
2	15710	10302.184084370524	1
2	15711	10302.2490163293	0
2	15735	10312.232929407599	1
2	15736	10312.243569965509	0
2	15745	10313.054119865626	1
2	15747	10313.154272610648	2
2	15748	10313.616318670369	1
2	15751	10314.510662650212	0
2	15755	10314.642051323176	1
2	15756	10315.089084572985	0
2	15780	10321.262410448476	1
2	15781	10321.305374666879	0
2	15850	10378.434149169918	1
2	15853	10378.9397004052	0
2	15875	10384.071861195253	1
2	15878	10384.768406321989	0
2	16030	10499.002802461102	1
2	16031	10499.551778846641	0
2	16050	10516.453968220119	1
2	16051	10516.985584397467	0
2	16060	10518.254698964562	1
2	16061	10518.346366512582	0
2	16160	10569.875552074466	1
2	16162	10570.298845915322	2
2	16163	10570.412481280942	1
2	16166	10571.015027771531	0
2	16170	10571.060656435278	1
2	16171	10571.563622494474	0
2	16202	10587.616103272425	1
2	16203	10587.681413720746	0
2	16212	10588.695037123942	1
2	16213	10589.053046684072	0
2	16400	10793.629233632461	1
2	16401	10793.915855440803	0
2	16425	10813.95779317119	1
2	16426	10814.589060653842	0
2	16432	10815.057490349885	1
2	16433	10815.557686081485	0
2	16470	10837.38498915219	1
2	16471	10837.950506923128	0
2	16560	10884.63107853513	1
2	16561	10884.675601759556	0
2	16625	10914.057903251003	1
2	16626	10914.313537862503	0
2	16755	10981.844128507119	1
2	16756	10982.365071183328	0
2	16895	11081.374557156925	1
2	16896	11081.44631592136	0
2	16925	11093.721834598226	1
2	16927	11094.14634639361	2
2	16928	11094.179795373249	1
2	16931	11095.03523110479	0
2	16965	11117.595133664839	1
2	16966	11117.643884202931	0
2	16975	11120.230682528263	1
2	16977	11120.81943643304	2
2	16978	11120.908284236449	1
2	16981	11121.743865097226	0
2	16985	11122.028628042112	1
2	16986	11122.373297582292	0
2	17085	11212.57744595842	1
2	17086	11213.295610548615	0
2	17140	11262.14179073851	1
2	17143	11262.626651025663	0
2	17250	11330.091080885184	1
2	17251	11330.229662052182	0
2	17360	11412.264291547669	1
2	17361	11412.557577934476	0
2	17375	11414.301685752388	1
2	17376	11415.005039540757	0
2	17380	11415.01694656796	1
2	17381	11415.732805210524	0
2	17385	11415.81648889271	1
2	17386	11416.159264256838	0
2	17430	11451.012044980466	1
2	17431	11451.231711838882	0
2	17440	11453.160370001704	1
2	17441	11453.210339093485	0
2	17455	11461.274901038899	1
2	17456	11461.643153420106	0
2	17495	11489.092413223424	1
2	17496	11489.206364926707	0
2	17560	11518.840346339898	1
2	17561	11519.191838028666	0
2	17565	11519.49772935757	1
2	17566	11519.681737968104	0
2	17687	11597.415917588943	1
2	17688	11597.680462849969	0
2	17735	11632.446733752388	1
2	17736	11632.650936010777	0
2	17800	11667.05753895951	1
2	17801	11667.074647818468	0
2	17805	11667.21821054732	1
2	17806	11667.954416053984	0
2	17830	11673.847197189503	1
2	17831	11674.463207207911	0
2	17870	11702.495882940131	1
2	17871	11702.568458037862	0
2	17885	11707.835382919289	1
2	17886	11708.254389633093	0
2	17980	11803.891051681783	1
2	17981	11803.897130886462	0
2	18050	11829.760123769825	1
2	18051	11830.080946195203	0
2	18085	11867.919715360086	1
2	18086	11868.550264384289	0
2	18130	11913.285156829607	1
2	18131	11913.646944779073	0
2	18180	11942.04859037682	1
2	18181	11942.810296321271	0
2	18262	11979.441039126105	1
2	18263	11979.706753350016	0
2	18315	12000.723425521348	1
2	18316	12001.221135341464	0
2	18397	12054.226878681733	1
2	18398	12054.455957796181	0
2	18480	12112.293723518785	1
2	18481	12112.351067707756	0
2	18485	12112.624243911916	1
2	18486	12113.018456945637	0
2	18590	12170.348416098941	1
2	18591	12170.986911341899	0
2	18605	12179.072036680244	1
2	18606	12179.560937495152	0
2	18650	12220.62788689375	1
2	18651	12221.118976755809	0
2	18675	12236.408883242968	1
2	18676	12236.858574197539	0
2	18760	12269.866854018133	1
2	18761	12270.019217614104	0
2	18850	12335.285219164958	1
2	18851	12335.683565583858	0
2	18910	12362.258802783529	1
2	18911	12362.978983735554	0
2	18965	12385.354588695643	1
2	18966	12385.821387559974	0
2	19185	12508.639179856211	1
2	19186	12509.132154231177	0
2	19250	12573.65428867146	1
2	19251	12574.103867486574	0
2	19355	12617.370006344077	1
2	19356	12617.699457390308	0
2	19360	12617.820699327515	1
2	19361	12618.531213084356	0
2	19365	12618.846342977619	1
2	19366	12619.022097930106	0
2	19375	12620.354354890892	1
2	19376	12620.93905674707	0
2	19430	12683.436196400405	1
2	19431	12683.789852859116	0
2	19435	12683.926777629046	1
2	19436	12684.419293796913	0
2	19505	12726.932331832399	1
2	19506	12727.161507788815	0
2	19730	12881.44672811318	1
2	19731	12881.782635187588	0
2	19800	12963.586279811111	1
2	19801	12963.792207219679	0
2	19812	12965.097208705354	1
2	19813	12965.11269846572	0
2	19820	12966.223525948858	1
2	19821	12967.013686046511	0
2	19925	13023.421257459318	1
2	19926	13023.522744151016	0
2	19940	13043.645532122413	1
2	19941	13043.816430935394	0
2	19945	13044.763244522106	1
2	19946	13044.803508610595	0
2	19985	13053.846913682676	1
2	19986	13054.04277920492	0
2	20010	13079.620363406425	1
2	20011	13079.858157129163	0
2	20050	13106.721766491431	1
2	20051	13107.085692085747	0
2	20080	13115.942713402268	1
2	20081	13116.334045789384	0
2	20177	13182.085606117569	1
2	20178	13182.25492913487	0
2	20185	13183.284753389424	1
2	20186	13183.618178886609	0
2	20205	13190.080696531515	1
2	20206	13190.577918827434	0
2	20225	13206.03431325562	1
2	20228	13206.603365825306	0
2	20295	13258.480023167724	1
2	20296	13258.997193732715	0
2	20375	13312.962262730471	1
2	20376	13313.638293900174	0
2	20395	13320.015282356649	1
2	20396	13320.866603030951	0
2	20415	13324.031373579463	1
2	20416	13324.984097044847	0
2	20465	13364.997083616805	1
2	20466	13365.281252608793	0
2	20470	13365.33341635377	1
2	20471	13365.884635056341	0
2	20530	13407.138533637533	1
2	20531	13407.36942213768	0
2	20555	13422.029021915814	1
2	20556	13422.819963851518	0
2	20600	13449.000360319337	1
2	20601	13449.032735234468	0
2	20710	13498.054119992719	1
2	20711	13498.139378044091	0
2	20955	13628.803463309753	1
2	20956	13629.00141545185	0
2	20970	13631.761439066511	1
2	20971	13631.770451082092	0
2	21175	13795.227607153079	1
2	21176	13795.752575812502	0
2	21200	13803.064347845323	1
2	21201	13803.709862118183	0
2	21230	13823.242273519369	1
2	21233	13823.604764194639	0
2	21240	13824.310715190986	1
2	21241	13824.942127860702	0
2	21320	13886.419203996801	1
2	21321	13886.575395069424	0
2	21330	13887.347697763807	1
2	21331	13887.920931135644	0
2	21335	13888.230977680555	1
2	21336	13888.332290011146	0
2	21350	13892.304135823312	1
2	21351	13892.951612711524	0
2	21490	13995.574012266057	1
2	21491	13995.758807332066	0
2	21495	13996.157599136036	1
2	21496	13996.281097287263	0
2	21590	14084.721997978029	1
2	21591	14084.90763789175	0
2	21595	14085.043539590295	1
2	21596	14085.451998742175	0
2	21610	14087.359216708383	1
2	21611	14087.79833059058	0
2	21680	14122.060492405857	1
2	21681	14122.366489456486	0
2	21715	14142.149021965224	1
2	21716	14142.630841666441	0
2	21800	14186.056936811496	1
2	21801	14186.783129091994	0
2	22020	14322.998513613534	1
2	22021	14323.112344706781	0
2	22070	14369.106908673791	1
2	22072	14369.125890095615	2
2	22073	14369.828071678712	1
2	22077	14369.932405331669	2
2	22078	14370.559810625532	1
2	22081	14371.136596155775	0
2	22085	14371.22364766043	1
2	22086	14372.000636116977	0
2	22090	14372.134533171567	1
2	22093	14372.865464973685	0
2	22100	14374.362165866017	1
2	22101	14374.609359941541	0
2	22135	14411.700474712668	1
2	22138	14412.380381719353	0
2	22150	14414.648167451624	1
2	22151	14415.276262571647	0
2	22162	14422.922701585193	1
2	22163	14423.062494814056	0
2	22185	14430.934544236583	1
2	22186	14431.208717545989	0
2	22257	14496.109353197535	1
2	22258	14496.459914003181	0
2	22370	14585.532792595665	1
2	22371	14586.188705958563	0
2	22420	14609.75873957288	1
2	22421	14609.839507450943	0
2	22430	14610.907790941904	1
2	22431	14611.504376001887	0
2	22885	14932.825414816389	1
2	22886	14933.09454378688	0
2	22995	15051.52849675383	1
2	22998	15052.007590795845	0
2	23025	15059.341620723165	1
2	23026	15059.42953897788	0
2	23205	15165.775013729516	1
2	23206	15165.823479958933	0
2	23225	15186.329406106101	1
2	23226	15186.570204515739	0
2	23305	15222.504124581273	1
2	23306	15223.194725627393	0
2	23315	15224.045512837463	1
2	23316	15224.323358814778	0
2	23322	15224.785909284607	1
2	23323	15225.049514573101	0
2	23327	15225.255890848135	1
2	23328	15225.929331891784	0
2	23335	15227.761887972938	1
2	23336	15227.89888696455	0
2	23345	15228.758219003388	1
2	23346	15229.219129876314	0
2	23492	15318.349758646231	1
2	23493	15318.771613293663	0
2	23505	15321.121696915768	1
2	23508	15321.729377534904	0
2	23535	15329.720010399053	1
2	23536	15330.12096536961	0
2	23625	15388.585733425366	1
2	23626	15389.113637355287	0
2	23640	15398.435600962363	1
2	23642	15398.515356665429	2
2	23643	15399.197092101104	1
2	23647	15399.444134442385	2
2	23648	15399.751082655215	1
2	23651	15400.380120480885	0
2	23655	15400.387385249314	1
2	23656	15400.97739575001	0
2	23745	15455.874642846899	1
2	23746	15456.202426059813	0
2	23755	15457.1492414471	1
2	23756	15457.423187414034	0
2	23775	15479.154121032101	1
2	23776	15479.49295101807	0
2	23830	15526.995640974825	1
2	23831	15527.384040236429	0
2	23880	15556.921771775117	1
2	23881	15557.288222688635	0
2	23960	15598.478961779968	1
2	23961	15598.922523732282	0
2	23980	15633.919504943455	1
2	23981	15634.347452705563	0
2	24165	15770.957763964234	1
2	24166	15771.534221688379	0
2	24225	15824.73018591861	1
2	24226	15825.00695759536	0
2	24255	15836.770133664061	1
2	24256	15837.393936225684	0
2	24280	15848.741618710632	1
2	24281	15849.119371851389	0
2	24355	15889.825807984579	1
2	24356	15889.860302616416	0
2	24395	15912.620076385965	1
2	24396	15913.371162543876	0
2	24480	15953.495464642168	1
2	24483	15954.242944466417	0
2	24510	15973.787961753483	1
2	24511	15974.429835294123	0
2	24650	16071.446696975621	1
2	24651	16071.927527447349	0
2	24675	16076.742612333197	1
2	24676	16076.925561881289	0
2	24720	16112.603600073055	1
2	24721	16113.080826706261	0
2	24730	16114.070574289119	1
2	24731	16114.876870282364	0
2	24785	16157.584497876771	1
2	24786	16157.770387041313	0
2	24800	16160.177103482232	1
2	24802	16160.19535654353	2
2	24803	16161.021638616323	1
2	24808	16161.445598296178	0
2	24945	16244.467363765931	1
2	24946	16245.233828048686	0
2	25000	16286.54941493242	1
2	25003	16287.111931508054	0
2	25055	16311.67397711793	1
2	25060	16312.388237596344	0
2	25069	16313.225121113267	1
2	25071	16313.344107846237	2
2	25072	16313.815559244848	1
2	25077	16314.54323037918	0
2	25084	16315.394635899741	1
2	25085	16315.603533066337	0
2	25245	16415.221127620684	1
2	25246	16416.060020777321	0
2	25305	16443.548652953965	1
2	25306	16443.793838491668	0
2	25330	16462.603872176577	1
2	25331	16462.68511990908	0
2	25370	16505.853782226114	1
2	25373	16506.373245603245	0
2	25380	16507.106416300575	1
2	25381	16507.577291620037	0
2	25385	16507.791267549648	1
2	25386	16508.324895415761	0
2	25405	16522.818418155702	1
2	25406	16523.112864063715	0
2	25417	16524.67310316112	1
2	25418	16525.000823559787	0
2	25445	16532.709127340186	1
2	25446	16533.012265639785	0
2	25450	16533.313572087693	1
2	25451	16533.741482520276	0
2	25565	16613.453149210973	1
2	25567	16613.601723117863	2
2	25568	16613.978591909326	1
2	25571	16614.528640502292	0
2	25575	16614.588224103665	1
2	25576	16615.218055244183	0
2	25660	16654.691658632282	1
2	25661	16655.167161522	0
2	25670	16656.249077204455	1
2	25671	16656.864154867306	0
2	25780	16732.147893147524	1
2	25781	16733.014170208501	0
2	25840	16763.717693487415	1
2	25841	16764.652352783406	0
2	25925	16835.251759547829	1
2	25926	16835.71187864445	0
2	25965	16854.588817049192	1
2	25966	16855.126949341926	0
2	25970	16855.83368417255	1
2	25971	16855.916040487918	0
2	26090	16945.391638221434	1
2	26091	16945.56670115609	0
2	26095	16946.454705877601	1
2	26096	16946.514671036418	0
2	26100	16947.109532850387	1
2	26101	16947.271983154168	0
2	26105	16947.76421150452	1
2	26106	16948.183881771102	0
2	26110	16948.391150277772	1
2	26111	16948.837666305344	0
2	26125	16953.507654104462	1
2	26129	16953.88203137885	2
2	26130	16954.184724393083	1
2	26133	16955.137745030146	0
2	26237	17012.136076193497	1
2	26240	17012.83572077267	0
2	26244	17013.30534380067	1
2	26245	17013.56559521109	0
2	26251	17013.850712984559	1
2	26252	17014.181689348306	0
2	26270	17017.685582938856	1
2	26271	17017.783837755305	0
2	26275	17018.217687971012	1
2	26276	17018.778941053479	0
2	26280	17019.406920422649	1
2	26281	17019.55670747324	0
2	26400	17104.550403057645	1
2	26401	17104.850200951944	0
2	26550	17207.303972326846	1
2	26551	17208.049692915397	0
2	26565	17215.599426919643	1
2	26566	17216.058713636139	0
2	26650	17258.728628880233	1
2	26652	17258.795602565711	2
2	26653	17258.795647689486	1
2	26658	17259.541854545632	0
2	26665	17260.191360663569	1
2	26666	17260.538828058	0
2	26690	17272.108704846796	1
2	26691	17272.497984491916	0
2	26760	17330.359169557263	1
2	26761	17330.415636666496	0
2	26825	17387.945891142011	1
2	26826	17388.278749287245	0
2	26895	17444.188845445757	1
2	26896	17444.453169200068	0
2	27185	17646.959511063121	1
2	27186	17647.31272956446	0
2	27192	17647.67450849182	1
2	27193	17648.269555646332	0
2	27485	17802.633886403867	1
2	27486	17802.677782855173	0
2	27535	17836.07672099749	1
2	27536	17836.193306440255	0
2	27575	17857.157116722958	1
2	27576	17857.937192698806	0
2	27580	17858.022537922156	1
2	27581	17858.627463408611	0
2	27590	17859.928436900039	1
2	27591	17860.014509911067	0
2	27615	17864.27152644383	1
2	27616	17864.577711787818	0
2	27732	17980.331724532268	1
2	27733	17980.59041106241	0
2	27745	17982.11362761656	1
2	27746	17982.390929813229	0
2	27780	18009.689093299351	1
2	27781	18009.828715226227	0
2	27825	18037.92339575987	1
2	27828	18038.496826995557	0
2	27870	18069.590293697996	1
2	27871	18070.225905392298	0
2	27875	18070.847665351268	1
2	27876	18071.055139544026	0
2	27905	18090.306215726601	1
2	27908	18090.774019369327	0
2	27915	18091.671592310756	1
2	27916	18092.549703058118	0
2	27985	18147.75581877278	1
2	27986	18148.337476223076	0
2	28080	18204.700355877955	1
2	28081	18205.557760598216	0
2	28125	18229.638118253533	1
2	28126	18229.995131043954	0
2	28145	18256.716691626224	1
2	28146	18256.841727755999	0
2	28150	18257.093290464523	1
2	28153	18257.780696887605	0
2	28225	18288.995117025457	1
2	28226	18289.206583693554	0
2	28380	18371.545249716248	1
2	28381	18371.66960467692	0
2	28460	18432.048032780987	1
2	28461	18432.555166931588	0
2	28530	18466.021226265647	1
2	28531	18466.117523263171	0
2	28805	18665.303976633907	1
2	28806	18665.740661592172	0
2	28870	18699.777669349878	1
2	28871	18700.125010350067	0
2	28885	18712.136140790844	1
2	28886	18712.547521007277	0
2	28915	18733.005582809723	1
2	28916	18733.543775295997	0
2	28920	18733.639597386018	1
2	28921	18734.404327307846	0
2	28955	18758.112356584053	1
2	28956	18758.749407042969	0
2	28960	18758.900786027308	1
2	28961	18759.3737612401	0
2	28975	18763.989351118982	1
2	28977	18764.428540823001	2
2	28980	18764.641329679974	1
2	28983	18765.222316849707	0
2	28987	18765.226422294654	1
2	28988	18766.087102606949	0
2	28995	18767.075833339751	1
2	28996	18767.757565070606	0
2	29135	18870.167805980836	1
2	29136	18870.334186349357	0
2	29250	18968.385854807051	1
2	29251	18968.662055299131	0
2	29285	18994.46494753085	1
2	29286	18994.505047914051	0
2	29305	19003.790513314706	1
2	29306	19004.210520145486	0
2	29345	19036.136244634427	1
2	29346	19036.568497737606	0
2	29430	19088.709207496458	1
2	29431	19089.142267093579	0
2	29470	19117.471797510615	1
2	29471	19117.538066502322	0
2	29550	19173.184734026336	1
2	29551	19173.237578167951	0
2	29670	19219.311752297916	1
2	29671	19220.007060638601	0
2	29680	19220.946361233816	1
2	29681	19221.095452811295	0
2	29845	19323.15958284967	1
2	29848	19323.57431178109	0
2	29854	19323.944390098374	1
2	29855	19324.124185088903	0
2	29950	19370.838978220008	1
2	29951	19370.892482429351	0
2	30075	19452.096123177363	1
2	30076	19452.359738660464	0
2	30250	19590.674014805223	1
2	30251	19590.711151302009	0
2	30330	19644.659464680703	1
2	30331	19644.903737512137	0
2	30377	19688.585242499219	1
2	30378	19688.595722614716	0
2	30382	19688.601988515587	1
2	30385	19689.144683879961	0
2	30455	19734.013930112433	1
2	30456	19734.474285441423	0
2	30460	19734.795670031031	1
2	30461	19735.021906324262	0
2	30510	19779.594415170307	1
2	30511	19779.853716037354	0
2	30530	19799.053558972422	1
2	30531	19799.658975513314	0
2	30612	19837.248773413414	1
2	30613	19837.574136253439	0
2	30710	19897.637737057408	1
2	30711	19898.014087004165	0
2	30765	19925.702255989231	1
2	30766	19926.098741118633	0
2	30800	19958.115921317099	1
2	30801	19958.907172070559	0
2	31115	20166.072774597617	1
2	31116	20166.302192849198	0
2	31290	20262.718475311888	1
2	31293	20263.083181229782	0
2	31317	20267.523261112589	1
2	31320	20267.778382813842	0
2	31425	20305.811152296774	1
2	31428	20306.69051524998	0
2	31490	20360.749752702686	1
2	31491	20361.049556865618	0
2	31630	20470.774105689068	1
2	31633	20471.239842073534	0
2	31680	20487.748212580465	1
2	31682	20488.323619729459	2
2	31683	20488.497310313207	1
2	31686	20489.07644369723	0
2	31735	20520.429540479838	1
2	31736	20520.784016128558	0
2	31780	20564.085793408856	1
2	31781	20564.115920348136	0
2	31845	20592.601960607285	1
2	31846	20592.857655296259	0
2	31860	20610.900196520019	1
2	31861	20610.926013102978	0
2	31865	20611.640171587888	1
2	31866	20611.681902178088	0
2	31870	20612.105683033788	1
2	31871	20612.474122851798	0
2	31880	20613.406993265529	1
2	31881	20613.723031499033	0
2	31915	20640.8359844226	1
2	31917	20640.847610154887	2
2	31918	20641.05848268948	1
2	31921	20641.571564068901	0
2	32030	20713.0299325219	1
2	32032	20713.290326762913	2
2	32033	20713.838075672977	1
2	32036	20714.456286799956	0
2	32060	20721.189217349179	1
2	32061	20721.620890598647	0
2	32070	20728.247042728649	1
2	32071	20728.416088530779	0
2	32145	20757.912781038852	1
2	32146	20758.300837298937	0
2	32215	20801.680362324689	1
2	32216	20802.369651662879	0
2	32320	20887.287640444385	1
2	32321	20887.721699728173	0
2	32365	20920.277101021893	1
2	32366	20920.477155001717	0
2	32380	20922.613858620117	1
2	32381	20923.006293383879	0
2	32420	20939.038855230115	1
2	32421	20939.121751062956	0
2	32435	20962.417701745842	1
2	32436	20962.836870326137	0
2	32580	21096.529703553125	1
2	32581	21096.926843772947	0
2	32597	21099.961195842561	1
2	32598	21100.345107976504	0
2	32620	21117.774026183117	1
2	32621	21118.227065811367	0
2	32630	21120.395729209309	1
2	32631	21120.580506757368	0
2	32640	21123.152745623586	1
2	32641	21123.569720361242	0
2	32735	21173.699258197578	1
2	32736	21174.336461184348	0
2	32795	21203.851124984797	1
2	32796	21203.924648411827	0
2	32915	21279.988413877671	1
2	32916	21279.992544727196	0
2	32975	21319.445242660592	1
2	32976	21319.931640008674	0
2	32990	21335.817321911326	1
2	32991	21336.238308020372	0
2	33005	21338.811071999491	1
2	33006	21339.129587171527	0
2	33125	21421.285091916919	1
2	33126	21421.748466176286	0
2	33170	21460.498851098216	1
2	33171	21461.071364978323	0
2	33270	21542.705054559828	1
2	33272	21543.387735211784	2
2	33273	21543.47719612061	1
2	33276	21544.261617960641	0
2	33295	21563.088998675405	1
2	33296	21563.305662830328	0
2	33442	21631.185715519817	1
2	33443	21631.239238774263	0
2	33450	21631.931617502987	1
2	33451	21632.256143630248	0
2	33540	21681.538687912282	1
2	33541	21681.854552332754	0
2	33635	21748.924919363297	1
2	33636	21749.039662177834	0
2	33682	21769.226440554337	1
2	33683	21769.621641839832	0
2	33890	21911.00222795303	1
2	33891	21911.719447624577	0
2	34025	22004.768153428717	1
2	34026	22005.342011548644	0
2	34065	22017.642158198279	1
2	34066	22017.885952690313	0
2	34080	22024.676218947368	1
2	34081	22025.330800809854	0
2	34090	22026.864053872707	1
2	34091	22027.146459023052	0
2	34100	22029.526548509902	1
2	34101	22030.11660660316	0
2	34105	22030.541914660678	1
2	34106	22031.074631434369	0
2	34110	22031.3035306937	1
2	34111	22031.90978040613	0
2	34207	22092.83832084936	1
2	34208	22093.3674627114	0
2	34215	22094.4191701478	1
2	34216	22094.730510755853	0
2	34225	22096.099127011609	1
2	34226	22096.619766756265	0
2	34330	22151.057005350766	1
2	34331	22151.661682219243	0
2	34350	22154.638607791037	1
2	34351	22155.251022756406	0
2	34415	22183.866324312118	1
2	34416	22184.618727426458	0
2	34465	22218.95799423017	1
2	34466	22219.773394941472	0
2	34530	22264.479177254261	1
2	34532	22264.629034268966	2
2	34533	22264.645821554897	1
2	34536	22265.601223958641	0
2	34540	22265.742058087744	1
2	34541	22266.508229730822	0
2	34560	22277.288222303782	1
2	34561	22278.16910700816	0
2	34620	22307.106695300609	1
2	34621	22307.252724998574	0
2	34640	22320.570236722156	1
2	34641	22320.94081594877	0
2	34655	22324.106768986925	1
2	34656	22324.504789401087	0
2	34725	22370.897393269798	1
2	34728	22371.676013766311	0
2	34755	22382.190892441825	1
2	34756	22382.881291308774	0
2	34795	22405.048442933683	1
2	34796	22405.545486838399	0
2	34805	22408.270349547125	1
2	34806	22408.666871945275	0
2	34810	22408.835394216928	1
2	34811	22409.091628266633	0
2	34820	22411.415532060889	1
2	34821	22412.103261635419	0
2	34835	22427.925430927586	1
2	34836	22428.081803598652	0
2	34870	22461.975538667979	1
2	34871	22462.525739779709	0
2	34875	22462.796127527438	1
2	34876	22463.042558788056	0
2	34960	22517.441602352508	1
2	34961	22518.285818790795	0
2	35060	22599.765953048845	1
2	35061	22600.150888006771	0
2	35095	22624.687064462592	1
2	35096	22625.06454041512	0
2	35180	22677.955851575738	1
2	35181	22678.029291438107	0
2	35265	22724.975434781384	1
2	35270	22725.538972090454	0
2	35279	22726.280046242232	1
2	35280	22727.162440134901	0
2	35320	22751.462144606528	1
2	35321	22751.466208325706	0
2	35342	22758.629637024533	1
2	35343	22758.647366518644	0
2	35370	22773.289840454663	1
2	35371	22773.314772020792	0
2	35380	22776.425734783654	1
2	35381	22776.529815333378	0
2	35445	22837.781755786495	1
2	35446	22838.266684900174	0
2	35525	22942.40228066237	1
2	35528	22942.638846241566	0
2	35595	22994.523417276489	1
2	35596	22995.303850548967	0
2	35810	23153.977061507764	1
2	35811	23154.22364839397	0
2	35922	23204.872713177856	1
2	35925	23205.276426989077	0
2	36115	23331.352284336792	1
2	36116	23331.681397654826	0
2	36135	23348.089533951232	1
2	36136	23348.653161987757	0
2	36145	23349.98261806577	1
2	36146	23350.44608486225	0
2	36210	23386.127580264419	1
2	36211	23386.966447057588	0
2	36220	23387.987376156198	1
2	36221	23388.211565105923	0
2	36265	23416.730260694285	1
2	36266	23416.770031646564	0
2	36360	23470.398971709772	1
2	36361	23470.801594819894	0
2	36365	23470.938165358092	1
2	36366	23471.605883901261	0
2	36477	23550.37487975684	1
2	36478	23550.678340576357	0
2	36500	23556.04800171003	1
2	36501	23556.691179509326	0
2	36670	23678.692311233522	1
2	36671	23678.706453690297	0
2	36710	23706.287278293066	1
2	36711	23706.462312137357	0
2	36765	23744.028659684212	1
2	36766	23744.461353954986	0
2	36805	23768.193815181052	1
2	36806	23768.500225049631	0
2	37014	23900.843961565302	1
2	37017	23901.318349841589	0
2	37055	23918.410162654399	1
2	37056	23918.541906339813	0
2	37145	23992.808873019856	1
2	37146	23993.52473471177	0
2	37155	23998.215253732444	1
2	37158	23998.978664874299	0
2	37180	24004.670828855896	1
2	37181	24004.970337158047	0
2	37250	24044.937043591912	1
2	37251	24045.18358509008	0
2	37300	24080.553180792745	1
2	37301	24080.74847589492	0
2	37305	24081.383726914503	1
2	37306	24081.427442473947	0
2	37445	24167.32830127884	1
2	37446	24167.333236379896	0
2	37450	24167.82813898599	1
2	37451	24167.963780605674	0
2	37465	24179.811957337357	1
2	37466	24180.340607173406	0
2	37605	24245.912112164687	1
2	37606	24246.378175683889	0
2	37640	24256.119560860414	1
2	37641	24256.120155390496	0
2	37670	24272.163851763311	1
2	37671	24272.428415850178	0
2	37680	24273.097266074934	1
2	37681	24273.33537701089	0
2	37755	24332.907230784532	1
2	37756	24333.238463600083	0
2	38005	24502.255936151836	1
2	38006	24502.831416672848	0
2	38020	24510.681301508705	1
2	38021	24511.106167043572	0
2	38050	24547.831751365195	1
2	38051	24547.997485869883	0
2	38155	24620.770497427925	1
2	38158	24621.080161282007	0
2	38180	24632.439758758766	1
2	38181	24632.751906151445	0
2	38205	24635.583986830374	1
2	38206	24635.946636903238	0
2	38265	24696.02475946533	1
2	38266	24696.770356717524	0
2	38355	24748.787851858366	1
2	38356	24749.427287197083	0
2	38425	24799.353001775232	1
2	38428	24799.651556530755	0
2	38442	24801.5939694004	1
2	38443	24802.047492874574	0
2	38450	24802.745571054286	1
2	38451	24803.217892194047	0
2	38475	24812.595824235976	1
2	38476	24813.359097168496	0
2	38480	24813.648159625494	1
2	38481	24814.013023328822	0
2	38485	24814.05774806055	1
2	38486	24814.461289187189	0
2	38535	24838.617067956846	1
2	38537	24838.689496648038	2
2	38538	24838.854753476448	1
2	38543	24839.534816858798	0
2	38565	24853.433748432579	1
2	38566	24853.932796107672	0
2	38580	24872.93230061338	1
2	38581	24872.979294590203	0
2	38600	24882.49544293135	1
2	38601	24882.77025179329	0
2	38605	24883.040954090164	1
2	38606	24883.489048847478	0
2	38660	24925.626603397342	1
2	38661	24925.744460016362	0
2	38700	24943.666335424001	1
2	38703	24944.417447585024	0
2	38712	24945.285681885567	1
2	38713	24946.134919940743	0
2	38785	24995.708717055978	1
2	38786	24996.52285689606	0
2	38800	25005.340631250301	1
2	38801	25005.950522677852	0
2	38945	25154.774057288371	1
2	38946	25155.297836625376	0
2	38957	25156.446084332107	1
2	38959	25156.943680971768	2
2	38960	25157.046787332869	1
2	38963	25157.531144141485	0
2	38970	25158.360196298211	1
2	38971	25158.672200446515	0
2	39042	25224.345781085457	1
2	39043	25224.613612839213	0
2	39105	25271.165711861275	1
2	39106	25271.247803239952	0
2	39135	25284.02011361741	1
2	39136	25284.677092698841	0
2	39190	25317.324663079092	1
2	39191	25317.447964530747	0
2	39245	25335.850356679204	1
2	39247	25336.003377447253	2
2	39248	25336.705042595806	1
2	39252	25336.764541119712	2
2	39253	25337.349033488909	1
2	39256	25338.251037092291	0
2	39315	25372.513196836753	1
2	39316	25372.839215897681	0
2	39345	25389.451383837328	1
2	39346	25389.892330061603	0
2	39365	25398.584466859901	1
2	39366	25398.622271869518	0
2	39382	25400.309614683437	1
2	39383	25400.644922823874	0
2	39445	25434.929447665011	1
2	39446	25435.453711779404	0
2	39540	25479.150950679785	1
2	39541	25479.277668720485	0
2	39705	25585.453133774874	1
2	39706	25586.125073188771	0
2	39725	25596.513287669704	1
2	39726	25597.031879276952	0
2	39745	25604.374443219106	1
2	39746	25604.836595757266	0
2	39935	25721.642273548352	1
2	39936	25721.884304024278	0
2	39950	25732.751097560188	1
2	39951	25732.764366702339	0
2	39955	25733.135446999544	1
2	39956	25733.403262522467	0
2	39960	25733.792423804729	1
2	39961	25733.853972088522	0
2	40125	25824.88061373916	1
2	40126	25825.603589458902	0
2	40287	25919.733002514966	1
2	40288	25920.130914874249	0
2	40380	25999.51335914947	1
2	40381	25999.606407961728	0
2	40430	26012.424557353702	1
2	40431	26013.278478360651	0
2	40495	26067.835944180605	1
2	40496	26067.987980883817	0
2	40565	26094.118438214405	1
2	40566	26094.463419296032	0
2	40580	26103.180563232515	1
2	40581	26103.958950727266	0
2	40740	26186.512485314872	1
2	40741	26187.062043435023	0
2	40790	26220.299032948196	1
2	40791	26220.921217910076	0
2	40795	26221.24507463618	1
2	40798	26221.606890911438	0
2	40805	26222.484791683248	1
2	40807	26222.725178471329	2
2	40808	26222.935058157581	1
2	40813	26223.719091958801	0
2	41160	26477.793455053233	1
2	41161	26478.082566252438	0
2	41215	26496.466771913702	1
2	41217	26496.531417799668	2
2	41218	26497.19554634732	1
2	41223	26497.927813219091	0
2	41305	26529.635529136357	1
2	41307	26529.706214712164	2
2	41308	26530.217844476178	1
2	41311	26530.830925067048	0
2	41355	26554.244514521589	1
2	41356	26554.490754852214	0
2	41375	26567.684225833525	1
2	41376	26568.43299950191	0
2	41380	26568.734605374466	1
2	41381	26569.040683922704	0
2	41570	26672.455767282603	1
2	41571	26672.719116773808	0
2	41575	26672.741311710235	1
2	41576	26673.67661766133	0
2	41625	26705.673804426269	1
2	41626	26705.91735680837	0
2	41635	26707.384591372567	1
2	41636	26707.43101238743	0
2	41707	26749.712656404243	1
2	41708	26749.917230021558	0
2	41800	26817.13402721533	1
2	41801	26817.201904259705	0
2	41895	26872.650947808955	1
2	41896	26873.537605983765	0
2	41940	26917.907052841519	1
2	41941	26918.23813867333	0
2	42105	27021.731948426045	1
2	42106	27022.234653105079	0
2	42320	27207.192181344166	1
2	42321	27207.350380958844	0
2	42415	27290.343373703291	1
2	42416	27290.907929340875	0
2	42460	27335.6585270083	1
2	42461	27336.078082281939	0
2	42650	27438.20180604321	1
2	42651	27438.246846044187	0
2	42692	27447.973478355629	1
2	42693	27448.430986276512	0
2	42845	27554.843717461603	1
2	42846	27555.369106586843	0
2	42860	27565.075404056943	1
2	42861	27565.562846664426	0
2	42875	27577.77238120799	1
2	42876	27578.292414654021	0
2	42920	27634.342119793289	1
2	42921	27634.79411296461	0
2	42955	27663.460736121001	1
2	42956	27663.827805359593	0
2	42980	27668.625519474143	1
2	42981	27669.054384660226	0
2	42985	27669.550004910533	1
2	42986	27669.659172196657	0
2	43025	27687.690114504269	1
2	43026	27688.168057869244	0
2	43040	27699.018566010948	1
2	43041	27699.212431006804	0
2	43060	27706.894030182718	1
2	43061	27706.963177157868	0
2	43120	27734.388658471565	1
2	43121	27734.640704582487	0
2	43270	27866.931088542381	1
2	43271	27867.050285648096	0
2	43310	27880.884470663114	1
2	43311	27881.291850155538	0
2	43315	27881.415599452693	1
2	43316	27881.977292701082	0
2	43325	27883.739571868865	1
2	43326	27884.383721432641	0
2	43380	27927.645023810088	1
2	43381	27927.823154364014	0
2	43390	27936.026447567268	1
2	43391	27936.274541496517	0
2	43495	28000.096217026268	1
2	43496	28000.152667312828	0
2	43500	28000.820834614006	1
2	43501	28000.854323372656	0
2	43575	28062.307219299773	1
2	43576	28062.453607677761	0
2	43587	28063.543588841548	1
2	43588	28064.134940128726	0
2	43595	28065.044774304602	1
2	43596	28065.957499658921	0
2	43660	28101.007410298419	1
2	43661	28101.886567812458	0
2	43677	28114.75403272126	1
2	43678	28114.978954173491	0
2	43685	28115.970694643842	1
2	43688	28116.359432869085	0
2	43695	28116.871737872505	1
2	43696	28117.375051912066	0
2	43705	28121.287123998901	1
2	43706	28121.443002272028	0
2	43735	28142.583468128719	1
2	43736	28142.681976415822	0
2	43815	28189.192603844998	1
2	43816	28189.430761569603	0
2	43885	28226.96105488729	1
2	43886	28227.068808404015	0
2	43997	28301.970754308603	1
2	43998	28302.07227533853	0
2	44125	28350.368679311217	1
2	44126	28350.470505070177	0
2	44185	28379.888868438478	1
2	44186	28380.372369076733	0
2	44205	28384.211480204531	1
2	44208	28384.694438116019	0
2	44355	28490.737711054	1
2	44356	28491.120965462958	0
2	44410	28511.644973297359	1
2	44411	28511.725056326672	0
2	44445	28558.63361579793	1
2	44446	28558.825870397337	0
2	44465	28577.42502284059	1
2	44466	28578.242291032157	0
2	44500	28596.122485987234	1
2	44501	28596.244764797464	0
2	44595	28659.59960485857	1
2	44596	28659.680078093321	0
2	44700	28729.959625012714	1
2	44703	28730.742907744607	0
2	44715	28734.998494371824	1
2	44716	28735.757056233946	0
2	44755	28753.638416448648	1
2	44756	28753.944014255547	0
2	44765	28754.4831189102	1
2	44766	28755.102144163598	0
2	44775	28756.212389776316	1
2	44779	28756.237789708294	2
2	44780	28756.782445421851	1
2	44783	28757.611404930324	0
2	44787	28758.019740551697	1
2	44790	28758.228435889947	0
2	44850	28814.006343152315	1
2	44851	28814.070059657207	0
2	44935	28878.963553458798	1
2	44936	28879.138402725642	0
2	44940	28879.361455996745	1
2	44941	28880.109236712826	0
2	45045	28950.846404401697	1
2	45046	28950.860276110827	0
2	45080	28968.814969434937	1
2	45081	28968.889500435835	0
2	45090	28970.104074357091	1
2	45091	28970.382574426404	0
2	45180	29057.3240911911	1
2	45181	29057.714557762888	0
2	45275	29116.969423400506	1
2	45276	29117.257792753965	0
2	45345	29169.13214598666	1
2	45348	29169.710591427079	0
2	45625	29360.335243961841	1
2	45626	29360.759141490227	0
2	45632	29361.064536701575	1
2	45633	29361.689231129215	0
2	45727	29434.633644523158	1
2	45728	29434.748394171962	0
2	45775	29458.983837297837	1
2	45776	29459.480181845234	0
2	45850	29477.893272624762	1
2	45851	29478.634319491371	0
2	45905	29511.397530162059	1
2	45906	29511.885859896701	0
2	45915	29532.860488239318	1
2	45916	29533.054287493951	0
2	45975	29579.024829035982	1
2	45976	29579.680135970851	0
2	46010	29613.38043418763	1
2	46011	29613.774828585144	0
2	46100	29647.189088865874	1
2	46101	29647.678178273776	0
2	46105	29648.278789597192	1
2	46106	29648.377705049544	0
2	46135	29654.820552569836	1
2	46136	29655.642544188449	0
2	46150	29659.631340740322	1
2	46152	29659.860221137705	2
2	46153	29660.326715075935	1
2	46156	29660.765059422201	0
2	46195	29681.370327351062	1
2	46196	29681.528363825289	0
2	46232	29700.86641382555	1
2	46233	29701.301563427312	0
2	46237	29701.693446439417	1
2	46239	29701.869673616908	2
2	46240	29702.30021213055	1
2	46243	29702.928339832969	0
2	46247	29703.343643769215	1
2	46248	29703.82823746893	0
2	46275	29721.636402573465	1
2	46276	29722.047095613768	0
2	46310	29749.674394909437	1
2	46311	29750.229031336268	0
2	46447	29854.942944187411	1
2	46448	29855.291702049052	0
2	46530	29914.028056666758	1
2	46531	29914.386852986018	0
2	46575	29956.550484296103	1
2	46576	29957.227600521675	0
3	0	0	0
3	105	78.152041668431	1
3	106	78.647946135498	0
3	190	151.093188284486	1
3	191	151.691048945201	0
3	205	154.295297161604	1
3	206	154.650739726419	0
3	210	154.74724996769	1
3	211	155.128316044337	0
3	215	155.294737577751	1
3	216	155.579916473566	0
3	280	209.705419590576	1
3	281	210.022419979822	0
3	285	210.462141610498	1
3	286	210.894990899999	0
3	300	213.003882969807	1
3	311	214.807520178586	0
3	315	214.924419824594	1
3	316	215.645945054313	0
3	325	217.178287367938	1
3	326	217.330597938245	0
3	375	263.298514230213	1
3	376	263.427431322113	0
3	400	269.993499736528	1
3	401	270.253859081899	0
3	440	281.649436340921	1
3	441	282.41000536403	0
3	520	363.331210635539	1
3	521	363.493057668087	0
3	530	364.288781744912	1
3	531	365.096601195177	0
3	550	384.472622876832	1
3	551	384.497141587482	0
3	570	389.372624928245	1
3	571	389.398957342292	0
3	625	434.372820365564	1
3	626	435.177004409992	0
3	635	436.249500904241	1
3	636	436.583927486904	0
3	660	454.527493372245	1
3	661	454.717373955553	0
3	680	480.848615632307	1
3	681	481.596867560223	0
3	685	482.069216015323	1
3	686	482.426095001959	0
3	760	552.501438253587	1
3	762	552.989802506537	2
3	763	552.991877303082	1
3	766	553.712178926212	0
3	795	566.49880136349	1
3	796	567.200856258072	0
3	840	598.808842491844	1
3	841	599.193548417122	0
3	875	630.117357803648	1
3	877	630.318559602031	2
3	878	630.47356256381	1
3	881	631.218507396051	0
3	885	631.280638747382	1
3	887	631.761405259163	2
3	888	632.066510052647	1
3	891	632.905533458566	0
3	915	652.330530998536	1
3	916	652.584961369792	0
3	925	654.285818738562	1
3	926	654.287063760414	0
3	930	654.361202878877	1
3	932	654.646583870879	2
3	934	654.670885713632	3
3	940	655.648933682136	2
3	943	656.648296745784	1
3	946	657.540471466176	0
3	980	684.299254421657	1
3	981	685.146886295616	0
3	1105	745.523033101419	1
3	1106	745.6967892724	0
3	1115	746.683595380516	1
3	1116	747.495923605692	0
3	1120	747.890013438515	1
3	1121	748.108422302073	0
3	1125	748.158815095732	1
3	1136	750.260025495374	0
3	1150	756.937864512247	1
3	1151	757.08541541553	0
3	1165	772.002521036062	1
3	1166	772.05099763214	0
3	1235	825.810198603946	1
3	1236	826.335545265827	0
3	1335	905.830881074842	1
3	1336	906.670978737284	0
3	1350	917.425329151741	1
3	1351	917.456960233364	0
3	1355	917.611354030626	1
3	1356	917.966308640007	0
3	1370	923.174409094955	1
3	1371	923.2458065923	0
3	1565	1040.703237953966	1
3	1566	1041.402074396278	0
3	1640	1106.086710566071	1
3	1641	1106.420740137157	0
3	1665	1113.382578085905	1
3	1666	1113.649194623709	0
3	1670	1114.112267198046	1
3	1671	1114.513862934143	0
3	1675	1114.938764353965	1
3	1676	1115.424681381781	0
3	1805	1179.170781273455	1
3	1806	1179.423134062945	0
3	1905	1239.525021802318	1
3	1906	1239.616791473826	0
3	2015	1332.275778962251	1
3	2016	1332.858891822772	0
3	2045	1350.043113702523	1
3	2046	1350.089984123934	0
3	2115	1386.485968442292	1
3	2116	1387.026126762171	0
3	2120	1387.407188571037	1
3	2121	1387.856967870862	0
3	2135	1390.246216798577	1
3	2136	1390.27694603819	0
3	2230	1481.270302529257	1
3	2231	1482.048688684832	0
3	2245	1486.113350452847	1
3	2246	1486.134344062985	0
3	2265	1490.940905567194	1
3	2266	1491.166937791554	0
3	2340	1534.887343080196	1
3	2341	1535.592633135013	0
3	2345	1535.895227537492	1
3	2346	1536.460322044046	0
3	2390	1580.162609090155	1
3	2391	1580.262160067905	0
3	2450	1630.430242745732	1
3	2456	1631.878803849141	0
3	2467	1633.22313457098	1
3	2476	1634.709977807911	0
3	2485	1649.046048897783	1
3	2486	1649.573764737753	0
3	2560	1711.318974520882	1
3	2561	1711.847574233305	0
3	2570	1712.891466581131	1
3	2571	1713.439214667021	0
3	2585	1715.829504145477	1
3	2586	1716.077795310715	0
3	2622	1741.942122332608	1
3	2626	1742.470742502677	0
3	2630	1743.262730829459	1
3	2631	1743.264457155213	0
3	2725	1792.630162916809	1
3	2726	1793.380319426895	0
3	2745	1800.942595707437	1
3	2746	1801.461349024582	0
3	2782	1829.027597871292	1
3	2786	1829.85522992018	0
3	2795	1838.532320747768	1
3	2796	1838.642931456351	0
3	2870	1899.304734070658	1
3	2871	1899.557296389572	0
3	2890	1906.892203586659	1
3	2891	1907.200371204672	0
3	2915	1926.831435630553	1
3	2917	1927.044198675075	2
3	2918	1927.20929050043	1
3	2922	1927.646156484696	2
3	2923	1927.734214354984	1
3	2927	1927.95039519435	2
3	2928	1928.537277821477	1
3	2931	1929.096722914583	0
3	2935	1929.558608945512	1
3	2936	1929.867523625378	0
3	2980	1950.379072737491	1
3	2981	1950.851265540956	0
3	3010	1961.180917311145	1
3	3011	1961.335934843209	0
3	3080	1998.867475646818	1
3	3081	1999.07417564817	0
3	3085	1999.672369974257	1
3	3086	1999.810088917438	0
3	3095	2003.522295128431	1
3	3096	2004.072915301771	0
3	3170	2062.119810868402	1
3	3171	2062.54129086943	0
3	3195	2069.535456576729	1
3	3196	2069.885125431566	0
3	3260	2118.356306384685	1
3	3261	2118.797199514324	0
3	3390	2220.506268428068	1
3	3391	2220.913796215747	0
3	3505	2286.840948339142	1
3	3506	2287.374442538191	0
3	3530	2315.01344737313	1
3	3531	2315.197474897583	0
3	3537	2315.500264939731	1
3	3541	2316.608166491869	0
3	3590	2339.895308061361	1
3	3591	2340.709204503269	0
3	3610	2345.010396705155	1
3	3611	2345.127023050904	0
3	3665	2401.542363227481	1
3	3666	2401.848539810623	0
3	3705	2430.548231914436	1
3	3706	2430.941929252988	0
3	3725	2434.36798463187	1
3	3727	2434.693156168532	2
3	3728	2434.938718610267	1
3	3736	2435.878936478878	0
3	3742	2436.686133533832	1
3	3746	2437.263314590473	0
3	3755	2438.660841408539	1
3	3756	2438.702764987544	0
3	3790	2475.58242659837	1
3	3791	2475.654112254911	0
3	3815	2484.233512712306	1
3	3816	2484.851788693803	0
3	3830	2487.38842980718	1
3	3831	2487.401658074971	0
3	3875	2512.852516150372	1
3	3876	2513.246897262156	0
3	3965	2575.127480958181	1
3	3967	2575.129972125024	2
3	3968	2575.67465757317	1
3	3971	2576.652616052042	0
3	3975	2577.027242985118	1
3	3977	2577.283819077788	2
3	3978	2577.570225794791	1
3	3981	2577.979599906449	0
3	3985	2578.102584139334	1
3	3986	2578.939700433976	0
3	3990	2578.97330316015	1
3	3997	2579.446414066205	2
3	4003	2580.627133909605	1
3	4006	2581.117889090387	0
3	4080	2644.949700545314	1
3	4081	2645.877221693183	0
3	4210	2737.185184285972	1
3	4211	2737.331073721252	0
3	4310	2819.905656055588	1
3	4316	2820.832632589097	0
3	4360	2843.01336658532	1
3	4361	2843.104639026071	0
3	4370	2844.231020222481	1
3	4371	2844.707441324985	0
3	4405	2870.228945896964	1
3	4406	2870.828306983914	0
3	4430	2885.503718758978	1
3	4431	2885.759382484623	0
3	4500	2924.081600301318	1
3	4501	2924.381244222905	0
3	4515	2927.095676784881	1
3	4516	2927.259854034998	0
3	4520	2927.630929041828	1
3	4521	2927.94366858626	0
3	4525	2928.161655819277	1
3	4526	2928.696482290665	0
3	4555	2946.446667057486	1
3	4556	2946.870373717608	0
3	4560	2947.20315294032	1
3	4561	2947.305786785908	0
3	4570	2948.616578661144	1
3	4571	2949.237723018445	0
3	4575	2949.471728511923	1
3	4576	2950.117769681925	0
3	4585	2951.753587878876	1
3	4586	2951.93435666607	0
3	4650	3004.191817252669	1
3	4651	3004.525409421546	0
3	4655	3004.90492233367	1
3	4656	3005.469407100638	0
3	4660	3006.213302647546	1
3	4661	3006.300569237198	0
3	4665	3007.037693759081	1
3	4666	3007.22713333735	0
3	4675	3008.323652509031	1
3	4676	3008.803272878232	0
3	4680	3009.252678730171	1
3	4681	3009.508035831007	0
3	4730	3042.982954223306	1
3	4731	3043.561757162378	0
3	4735	3043.711310765251	1
3	4736	3044.37036210762	0
3	4765	3060.959351952476	1
3	4766	3061.322685776127	0
3	4785	3084.215445440251	1
3	4786	3084.905163267595	0
3	4795	3086.961622072675	1
3	4796	3087.410287206034	0
3	4825	3108.472896554787	1
3	4826	3109.050957030141	0
3	4840	3116.479142713686	1
3	4841	3117.328465783434	0
3	4845	3117.444590195181	1
3	4846	3118.228929084564	0
3	5065	3275.215588704301	1
3	5066	3275.221999195012	0
3	5090	3284.521315213039	1
3	5091	3284.689811231408	0
3	5140	3308.108222857791	1
3	5141	3308.515610938732	0
3	5155	3316.466771672486	1
3	5156	3317.26548865127	0
3	5285	3402.138152333118	1
3	5286	3402.236358448766	0
3	5300	3405.272499119594	1
3	5301	3405.462260530495	0
3	5410	3482.185315915314	1
3	5411	3482.520342274422	0
3	5415	3482.751167561482	1
3	5416	3482.996411329175	0
3	5450	3497.786183201668	1
3	5451	3498.283980104953	0
3	5505	3532.674621543058	1
3	5506	3532.765551797049	0
3	5535	3542.148135355604	1
3	5536	3542.881407046146	0
3	5545	3543.453937187019	1
3	5546	3543.823678023243	0
3	5560	3548.094358623401	1
3	5561	3548.381475742585	0
3	5675	3628.162182669623	1
3	5676	3628.427455496896	0
3	5695	3638.652120601546	1
3	5696	3638.853376628109	0
3	5795	3716.193132423879	1
3	5796	3716.713707394838	0
3	5835	3741.6556789918	1
3	5836	3742.414186921665	0
3	5865	3766.564036464686	1
3	5866	3767.273897409788	0
3	5925	3814.640980020419	1
3	5926	3815.410356975621	0
3	6017	3877.242206113766	1
3	6022	3877.751908064894	2
3	6023	3878.236027694277	1
3	6026	3879.073226323274	0
3	6040	3889.535403470621	1
3	6041	3889.682213398489	0
3	6050	3891.27723413245	1
3	6051	3891.971337732861	0
3	6140	3961.587579713987	1
3	6141	3962.142263410883	0
3	6145	3962.770338351008	1
3	6146	3963.038703225963	0
3	6155	3963.72637221436	1
3	6156	3964.319077276802	0
3	6162	3965.112152527368	1
3	6166	3965.599797659498	0
3	6175	3966.897430468483	1
3	6176	3967.018282448118	0
3	6190	3969.418296635278	1
3	6191	3969.91961171769	0
3	6195	3970.104664414247	1
3	6196	3970.895626521506	0
3	6215	3984.932849830225	1
3	6216	3985.187121487764	0
3	6275	4044.64702057949	1
3	6276	4045.214865846985	0
3	6295	4063.315412812048	1
3	6296	4064.07719163749	0
3	6315	4080.620226131942	1
3	6316	4081.029208304136	0
3	6325	4082.557862549291	1
3	6326	4082.614593545775	0
3	6335	4083.32896987693	1
3	6336	4083.742286166456	0
3	6495	4204.709052464594	1
3	6496	4205.661754737189	0
3	6505	4207.014711205766	1
3	6506	4207.077683396151	0
3	6510	4207.18815543605	1
3	6511	4207.853996977282	0
3	6515	4207.869920639816	1
3	6516	4208.588720938449	0
3	6520	4209.401730745724	1
3	6521	4209.575290223702	0
3	6530	4212.017087823706	1
3	6531	4212.262918327226	0
3	6630	4271.830389945752	1
3	6631	4272.10597022406	0
3	6660	4302.715373947455	1
3	6661	4303.087571163044	0
3	6670	4305.234873798625	1
3	6671	4305.489915607065	0
3	6695	4318.156369596885	1
3	6696	4318.370092180988	0
3	6705	4319.923619531929	1
3	6706	4320.249458884435	0
3	6715	4322.529710433392	1
3	6716	4322.549096986124	0
3	6815	4393.660855116282	1
3	6817	4393.910422823434	2
3	6818	4394.060551034997	1
3	6821	4394.710527282965	0
3	6910	4459.962134907705	1
3	6911	4460.137228899968	0
3	6915	4460.413284450511	1
3	6916	4461.008190690593	0
3	6925	4463.280543790796	1
3	6926	4464.051264809303	0
3	6969	4481.13398239939	1
3	6976	4482.860440465444	0
3	7010	4514.086424881248	1
3	7011	4514.802478982427	0
3	7185	4664.533813474631	1
3	7186	4664.93444181284	0
3	7190	4665.852900916783	1
3	7191	4665.855106620575	0
3	7210	4674.950543370297	1
3	7211	4675.166653334932	0
3	7255	4711.816169651907	1
3	7256	4712.117364699493	0
3	7265	4713.720092077324	1
3	7266	4713.723047260082	0
3	7350	4808.328826958548	1
3	7351	4808.676667441715	0
3	7357	4809.401946788477	1
3	7361	4810.086347562269	0
3	7380	4815.184890663567	1
3	7381	4815.241047415074	0
3	7445	4879.700494991268	1
3	7446	4880.528101148285	0
3	7460	4882.443941831572	1
3	7461	4882.646155095323	0
3	7480	4890.770550182744	1
3	7481	4891.426919567801	0
3	7495	4894.688401110423	1
3	7496	4895.137868510966	0
3	7530	4916.61503950772	1
3	7531	4916.958987782704	0
3	7610	4965.551183559986	1
3	7611	4966.258679666565	0
3	7615	4966.369170938663	1
3	7616	4966.906312062134	0
3	7620	4967.082516029885	1
3	7621	4967.809209232972	0
3	7625	4968.255044128181	1
3	7626	4968.262383162239	0
3	7630	4968.654960189047	1
3	7631	4968.836067912736	0
3	7710	5023.918746602742	1
3	7711	5024.455951423172	0
3	7820	5096.506932053114	1
3	7821	5096.52839039312	0
3	7830	5098.318957603748	1
3	7831	5098.355351695222	0
3	7870	5151.733570798831	1
3	7871	5152.438501323555	0
3	7910	5189.005397744274	1
3	7912	5189.284343924897	2
3	7913	5189.385152336603	1
3	7922	5189.984674832217	2
3	7923	5190.760873747684	1
3	7932	5192.268918068843	2
3	7933	5192.559382940337	1
3	7936	5193.500319742292	0
3	7970	5219.794396154505	1
3	7971	5220.214221574081	0
3	7995	5243.974486071468	1
3	7996	5244.315622058734	0
3	8005	5245.288826842601	1
3	8006	5245.648133721375	0
3	8130	5366.928792969385	1
3	8131	5367.060631587985	0
3	8200	5412.558778859526	1
3	8201	5412.740875640205	0
3	8232	5429.488054947813	1
3	8242	5430.524177979168	2
3	8243	5430.954215196364	1
3	8246	5431.825735665143	0
3	8305	5479.66725933164	1
3	8306	5479.882751163465	0
3	8330	5516.67660772309	1
3	8331	5517.595348602785	0
3	8345	5520.220202209523	1
3	8346	5520.363787054716	0
3	8350	5520.564055442627	1
3	8351	5520.885477138616	0
3	8370	5527.853934546175	1
3	8371	5528.721556634284	0
3	8530	5673.140698666806	1
3	8531	5673.72385284119	0
3	8617	5789.005248725767	1
3	8621	5790.056019251994	0
3	8645	5796.179262183546	1
3	8646	5796.96071932854	0
3	8715	5834.988507700029	1
3	8716	5835.668234623603	0
3	8720	5835.854486104412	1
3	8721	5836.405096237322	0
3	8785	5874.094594840975	1
3	8786	5874.740533525866	0
3	8790	5874.747360031884	1
3	8791	5875.666748846645	0
3	8920	5985.257645615531	1
3	8921	5985.796485797899	0
3	8955	5999.176945285355	1
3	8956	5999.756053976968	0
3	8995	6015.267354895135	1
3	8996	6015.300999409359	0
3	9030	6035.744330296223	1
3	9031	6036.042211391843	0
3	9045	6040.574802304961	1
3	9046	6040.962459230048	0
3	9100	6069.15826595785	1
3	9106	6070.21872863286	0
3	9150	6099.473050327203	1
3	9151	6099.9394284658	0
3	9185	6123.116094743598	1
3	9186	6123.910256052081	0
3	9205	6127.359423120195	1
3	9206	6127.360601244626	0
3	9212	6127.586656189578	1
3	9216	6128.657209797614	0
3	9220	6128.856075523951	1
3	9226	6130.167349422249	0
3	9290	6164.219342446524	1
3	9291	6164.838560897265	0
3	9320	6187.887213138486	1
3	9321	6188.243789953867	0
3	9330	6189.48294356546	1
3	9331	6190.405966451681	0
3	9360	6209.544342550591	1
3	9361	6209.649580960819	0
3	9370	6214.485710311622	1
3	9371	6215.181512690395	0
3	9375	6215.591939409644	1
3	9376	6215.609461631872	0
3	9400	6223.710634528627	1
3	9401	6223.72303113809	0
3	9530	6340.404645442198	1
3	9531	6340.5233075808	0
3	9540	6341.147874575205	1
3	9541	6341.658471713142	0
3	9625	6395.267798320184	1
3	9626	6395.522524111886	0
3	9705	6452.416914132599	1
3	9706	6452.912900257792	0
3	9725	6461.634338338359	1
3	9726	6462.175786044938	0
3	9730	6462.584133268188	1
3	9731	6462.991885980289	0
3	9735	6463.592272496864	1
3	9736	6463.885776420101	0
3	9760	6485.846046529626	1
3	9761	6486.181511156884	0
3	9780	6499.181246901823	1
3	9781	6499.967935452236	0
3	9805	6517.374568263202	1
3	9806	6517.5274953824	0
3	9890	6584.022658316709	1
3	9896	6584.771178666459	0
3	9950	6632.300396971786	1
3	9951	6632.303046204481	0
3	10050	6704.522142959805	1
3	10051	6705.339918472892	0
3	10060	6707.443279132407	1
3	10061	6707.514100144271	0
3	10150	6801.683834691891	1
3	10151	6801.713788268374	0
3	10155	6801.802962614351	1
3	10156	6802.274828865131	0
3	10187	6813.221395800376	1
3	10197	6814.122134022132	2
3	10199	6814.166289192589	3
3	10200	6814.405084011864	2
3	10203	6814.988530285444	1
3	10206	6815.558001746025	0
3	10217	6816.815316092683	1
3	10222	6817.604609079874	2
3	10223	6817.728473797167	1
3	10227	6817.896360020381	2
3	10228	6818.234089019807	1
3	10231	6818.718675804796	0
3	10235	6819.676293871687	1
3	10236	6819.688474386797	0
3	10270	6851.918390557841	1
3	10277	6852.397410920918	2
3	10278	6853.150693000181	1
3	10281	6853.6343112089	0
3	10295	6860.170514281627	1
3	10296	6860.457905204226	0
3	10335	6886.132099492049	1
3	10336	6886.140697531841	0
3	10410	6930.020858781828	1
3	10411	6930.216691756024	0
3	10420	6931.979426765329	1
3	10421	6932.04530599519	0
3	10425	6932.809572972832	1
3	10427	6932.816875678092	2
3	10428	6932.972188217205	1
3	10431	6933.801431539713	0
3	10435	6933.825149852251	1
3	10436	6934.576313379605	0
3	10450	6936.075397707456	1
3	10451	6936.611919781622	0
3	10485	6958.332307002027	1
3	10486	6958.649676939891	0
3	10630	7074.192805044614	1
3	10631	7074.541142031244	0
3	10665	7086.486189681064	1
3	10666	7087.311015957884	0
3	10775	7156.988249990549	1
3	10776	7157.360376475025	0
3	10810	7170.423254663551	1
3	10811	7170.570498548845	0
3	10845	7198.761969629078	1
3	10846	7198.960277509536	0
3	10885	7224.390859575488	1
3	10886	7225.169162483133	0
3	10905	7237.424528801712	1
3	10906	7238.134522523114	0
3	10910	7238.708439779698	1
3	10911	7238.84350835121	0
3	10915	7239.157928294915	1
3	10916	7239.565863692469	0
3	10945	7257.980561749824	1
3	10946	7258.721507278393	0
3	10955	7274.851356168164	1
3	10956	7275.1807101588	0
3	10985	7301.965905745635	1
3	10986	7302.71479897265	0
3	11025	7326.900896999919	1
3	11026	7327.106097756421	0
3	11060	7352.740694277734	1
3	11061	7353.193815383125	0
3	11070	7360.329556831567	1
3	11071	7360.892299132743	0
3	11145	7401.974735637038	1
3	11146	7402.431522042828	0
3	11150	7402.817977482924	1
3	11152	7403.127759428099	2
3	11153	7403.398458858405	1
3	11156	7404.273302929627	0
3	11160	7404.287573765951	1
3	11161	7404.952860188496	0
3	11170	7406.761075599837	1
3	11172	7407.14309090715	2
3	11173	7407.738534394676	1
3	11176	7408.366318303418	0
3	11275	7460.740918957415	1
3	11276	7460.832672809411	0
3	11282	7461.510153517555	1
3	11286	7462.642085778641	0
3	11325	7478.372532353425	1
3	11326	7478.530066118669	0
3	11350	7483.455679100654	1
3	11351	7483.765407243398	0
3	11380	7492.63260589311	1
3	11381	7492.933409720135	0
3	11390	7495.502576490578	1
3	11391	7495.821618451721	0
3	11605	7676.182946320248	1
3	11606	7676.491769736292	0
3	11725	7751.057568988359	1
3	11726	7751.357599279954	0
3	11730	7751.434477670518	1
3	11732	7751.713277633997	2
3	11733	7752.336626450782	1
3	11736	7753.335745335761	0
3	11745	7754.660864090039	1
3	11746	7755.48039637571	0
3	11755	7756.924537280656	1
3	11756	7757.214438782134	0
3	11760	7757.786977788781	1
3	11761	7757.794333918407	0
3	11870	7836.54630046382	1
3	11871	7836.922337054414	0
3	11885	7839.416616362373	1
3	11887	7839.593044804919	2
3	11888	7840.137043868206	1
3	11891	7840.572901857147	0
3	11900	7845.086223777833	1
3	11901	7845.73961916305	0
3	11960	7909.125019700542	1
3	11961	7909.515480068245	0
3	12000	7947.72692845429	1
3	12001	7948.029380436973	0
3	12005	7948.411885997059	1
3	12006	7948.91414411048	0
3	12100	7998.42816477969	1
3	12102	7998.688674484587	2
3	12103	7998.830718261827	1
3	12106	7999.494166727117	0
3	12180	8032.525405258688	1
3	12182	8032.950542248492	2
3	12183	8033.06298169083	1
3	12186	8033.787152065328	0
3	12235	8076.55216636547	1
3	12236	8076.748804370193	0
3	12240	8076.877002997592	1
3	12242	8076.96870241121	2
3	12243	8077.479474644056	1
3	12247	8077.616623365843	2
3	12249	8078.010110861078	3
3	12250	8078.065747417063	2
3	12253	8078.743810714568	1
3	12256	8079.660352727325	0
3	12422	8164.129919908689	1
3	12426	8165.194637924276	0
3	12505	8240.131254312208	1
3	12506	8240.713132784254	0
3	12540	8262.468910656654	1
3	12541	8262.560031317694	0
3	12555	8264.931565468834	1
3	12556	8265.188209026422	0
3	12765	8396.193747000115	1
3	12766	8396.308339091566	0
3	12820	8444.300319600596	1
3	12821	8444.454169204236	0
3	12830	8446.639614735419	1
3	12831	8446.76365561498	0
3	12857	8459.171874532093	1
3	12861	8460.240503261887	0
3	12930	8501.399059340107	1
3	12931	8501.734023057163	0
3	12935	8501.835199082395	1
3	12941	8502.741108634421	0
3	13005	8548.658220225542	1
3	13006	8549.211243107335	0
3	13165	8689.039674744407	1
3	13166	8689.129616502388	0
3	13250	8772.498217609095	1
3	13252	8772.725266475527	2
3	13253	8773.10668247294	1
3	13256	8773.916818010698	0
3	13262	8774.334921446184	1
3	13266	8775.34637958592	0
3	13300	8784.178703177695	1
3	13302	8784.223218116194	2
3	13303	8785.101995804265	1
3	13306	8785.61541216016	0
3	13325	8791.15910357453	1
3	13326	8791.450796551632	0
3	13335	8798.58566525994	1
3	13336	8799.328598104909	0
3	13437	8877.990770475837	1
3	13442	8878.776998676199	2
3	13443	8878.999850185501	1
3	13451	8880.265412960674	0
3	13455	8880.286010234155	1
3	13456	8880.718334987766	0
3	13475	8885.120445845289	1
3	13482	8886.375414188011	2
3	13483	8886.673295629719	1
3	13491	8887.871366309975	0
3	13582	8964.549329969103	1
3	13587	8965.216853170344	2
3	13589	8965.356953690982	3
3	13590	8965.61048050257	2
3	13599	8966.718751717076	3
3	13600	8966.876502870625	2
3	13603	8967.334628385581	1
3	13606	8967.91560988803	0
3	13610	8968.304656201188	1
3	13611	8968.571891651066	0
3	13615	8968.779005541836	1
3	13616	8969.490331384536	0
3	13635	8973.358782845063	1
3	13636	8973.77868386446	0
3	13650	8979.248259083051	1
3	13651	8979.369409238063	0
3	13665	8985.182202684589	1
3	13666	8985.268945765956	0
3	13672	8985.892185418758	1
3	13676	8986.639604636044	0
3	13705	9005.487234296661	1
3	13706	9006.180804561641	0
3	13725	9017.703476303003	1
3	13726	9017.819581588382	0
3	13825	9085.520187668338	1
3	13826	9085.631407044168	0
3	13860	9120.726507603282	1
3	13861	9121.04037761535	0
3	13865	9121.758130518648	1
3	13866	9121.787752526304	0
3	13870	9122.267325001401	1
3	13871	9122.709928699028	0
3	13912	9141.839496253355	1
3	13916	9142.976299106793	0
3	13935	9147.49874977898	1
3	13936	9148.186120373314	0
3	14065	9251.258633190305	1
3	14067	9251.26107368781	2
3	14073	9252.576866843578	1
3	14076	9253.116749637647	0
3	14080	9253.169441750747	1
3	14081	9253.986984686394	0
3	14150	9300.006819612851	1
3	14151	9300.161442118489	0
3	14215	9339.852418507039	1
3	14216	9340.254373205235	0
3	14260	9373.417676133246	1
3	14261	9373.964659797159	0
3	14400	9457.57618910419	1
3	14411	9459.153449726359	0
3	14490	9536.848542775754	1
3	14491	9537.606922678823	0
3	14675	9671.577405352209	1
3	14676	9672.100282873112	0
3	14680	9672.35929592423	1
3	14681	9672.521463221024	0
3	14685	9672.958803617894	1
3	14686	9673.475753244237	0
3	14690	9673.700001313378	1
3	14691	9673.992177959057	0
3	14715	9683.509438391475	1
3	14716	9683.947809902997	0
3	14795	9732.713993446968	1
3	14796	9732.935176170665	0
3	14805	9737.077088155003	1
3	14806	9737.487395673058	0
3	14880	9795.906061254182	1
3	14882	9796.295442444989	2
3	14883	9796.551967788181	1
3	14887	9796.676711678321	2
3	14888	9797.031970902878	1
3	14891	9797.730665062155	0
3	14995	9883.066766900081	1
3	15001	9884.333538069135	0
3	15020	9897.932255291613	1
3	15026	9899.470464747419	0
3	15190	10008.724167474016	1
3	15191	10008.762981890598	0
3	15200	10009.511374566235	1
3	15202	10009.935972974233	2
3	15203	10010.023748618114	1
3	15206	10010.924455880263	0
3	15255	10043.909810702131	1
3	15256	10044.72984550812	0
3	15305	10071.075962458972	1
3	15306	10071.384729376269	0
3	15355	10100.133651047415	1
3	15356	10100.327420552512	0
3	15360	10100.777273482508	1
3	15361	10101.163126596873	0
3	15380	10110.624130644403	1
3	15381	10111.260111432643	0
3	15405	10116.072735379933	1
3	15406	10116.758993680185	0
3	15420	10130.804280021705	1
3	15421	10131.316253069339	0
3	15515	10198.339331637253	1
3	15516	10199.027605644558	0
3	15520	10199.681389462792	1
3	15521	10199.765066027074	0
3	15525	10200.043721716868	1
3	15526	10200.751076160596	0
3	15615	10245.814835432647	1
3	15616	10246.101650598513	0
3	15635	10258.930536435154	1
3	15636	10259.145251976418	0
3	15655	10270.278339240037	1
3	15656	10270.490435206169	0
3	15675	10277.856145349736	1
3	15676	10278.305417375726	0
3	15715	10302.296368644177	1
3	15716	10302.889300477857	0
3	15740	10312.304647700774	1
3	15741	10312.819280363142	0
3	15800	10335.238365402296	1
3	15801	10335.290356344369	0
3	15805	10335.367242023186	1
3	15806	10336.113036697882	0
3	15810	10336.370570509067	1
3	15811	10336.851911790588	0
3	15815	10336.984167672306	1
3	15816	10337.49976187452	0
3	15852	10378.652480471867	1
3	15856	10379.427508216857	0
3	15877	10384.153763269151	1
3	15881	10385.512581677358	0
3	15885	10385.861426451031	1
3	15886	10386.163114191448	0
3	15910	10399.032297817597	1
3	15911	10399.090158106561	0
3	16055	10517.091395890903	1
3	16056	10517.827394700555	0
3	16195	10586.460482968561	1
3	16196	10587.016110029735	0
3	16200	10587.253204588088	1
3	16207	10588.084651565823	2
3	16208	10588.275870137254	1
3	16217	10589.711884124166	2
3	16218	10589.831672773336	1
3	16221	10590.661045512988	0
3	16225	10590.98494303757	1
3	16226	10591.45551061855	0
3	16255	10612.240169134037	1
3	16256	10612.785786333505	0
3	16430	10814.793826939973	1
3	16436	10816.364815631698	0
3	16510	10861.974066864327	1
3	16511	10862.010438550665	0
3	16610	10903.891440869233	1
3	16611	10904.431583444128	0
3	16665	10921.897723194238	1
3	16666	10922.220716141707	0
3	16805	11025.846153784541	1
3	16807	11025.859148769426	2
3	16808	11026.041842089471	1
3	16811	11026.59784577919	0
3	16915	11091.800937357466	1
3	16916	11091.931566108467	0
3	17120	11258.024870527254	1
3	17122	11258.291875490223	2
3	17123	11258.312160658426	1
3	17126	11258.771532380636	0
3	17142	11262.403556331762	1
3	17147	11263.161639332482	2
3	17148	11263.398796464323	1
3	17151	11264.277124712204	0
3	17200	11303.044583853521	1
3	17201	11303.296757232499	0
3	17230	11322.245012557853	1
3	17231	11322.440026115675	0
3	17265	11349.228759205225	1
3	17266	11349.702455823084	0
3	17315	11398.072660171703	1
3	17316	11398.366587568692	0
3	17325	11400.878457761114	1
3	17326	11400.910188086392	0
3	17330	11401.328939172154	1
3	17331	11401.513134261328	0
3	17335	11402.066511521286	1
3	17336	11402.330276300539	0
3	17445	11453.302159725913	1
3	17446	11453.872922617334	0
3	17545	11516.028739091778	1
3	17546	11516.168751411532	0
3	17575	11521.071523268872	1
3	17576	11521.510330249252	0
3	17585	11532.940073624577	1
3	17586	11533.671990772657	0
3	17595	11535.925393422288	1
3	17596	11535.945348178157	0
3	17610	11538.669432194772	1
3	17611	11538.718050295031	0
3	17645	11568.296834030601	1
3	17646	11568.563731788302	0
3	17675	11581.139970797445	1
3	17676	11581.271995210197	0
3	17685	11597.396554342211	1
3	17691	11598.33696783524	0
3	17725	11627.750848823449	1
3	17726	11628.098424046527	0
3	17765	11648.377809632597	1
3	17766	11648.789837403275	0
3	17785	11664.372639921237	1
3	17786	11664.679276879894	0
3	17815	11669.502659927698	1
3	17816	11669.510247674224	0
3	17825	11673.403903504031	1
3	17826	11673.721727916424	0
3	17855	11696.442859164616	1
3	17856	11696.93362729529	0
3	17860	11697.607000375493	1
3	17861	11697.915122435084	0
3	17985	11804.191404105477	1
3	17987	11804.511242790901	2
3	17988	11804.847278846797	1
3	17991	11805.831299876605	0
3	18025	11824.775812802796	1
3	18026	11825.20731417804	0
3	18135	11913.963484572525	1
3	18137	11914.425822672509	2
3	18138	11914.53207595433	1
3	18141	11915.405272283227	0
3	18145	11915.805693437302	1
3	18146	11916.232726449528	0
3	18155	11922.301200399938	1
3	18156	11922.75341292331	0
3	18200	11945.918355164557	1
3	18201	11946.195075825753	0
3	18210	11953.85163381193	1
3	18211	11953.86443289005	0
3	18260	11979.259644385913	1
3	18266	11980.176120076156	0
3	18325	12010.545209317495	1
3	18326	12010.890078384936	0
3	18395	12053.909855318792	1
3	18402	12054.74879919236	2
3	18403	12055.455242065329	1
3	18406	12056.225002949487	0
3	18415	12065.216140784895	1
3	18416	12065.278754149026	0
3	18420	12065.436271853631	1
3	18421	12066.273494138776	0
3	18425	12066.379726617183	1
3	18427	12066.492740251353	2
3	18428	12067.111223554865	1
3	18431	12067.629940829447	0
3	18450	12071.82780120033	1
3	18451	12071.955007155156	0
3	18495	12126.351195368403	1
3	18496	12127.108114326647	0
3	18580	12167.924439929397	1
3	18581	12168.478392651815	0
3	18600	12178.801556727922	1
3	18601	12179.034684097529	0
3	18735	12259.427416660433	1
3	18736	12259.580284049468	0
3	18740	12259.609714649395	1
3	18741	12260.553856087163	0
3	18770	12287.512428643601	1
3	18771	12287.981856475484	0
3	18780	12294.132274404594	1
3	18782	12294.28210810606	2
3	18783	12294.697129738957	1
3	18787	12295.199650175698	2
3	18788	12295.440367441133	1
3	18791	12296.020412534822	0
3	18800	12320.160714723669	1
3	18801	12320.380663339811	0
3	18805	12321.178489167452	1
3	18806	12321.360161214432	0
3	18835	12333.259981609462	1
3	18836	12333.937224672348	0
3	18840	12334.205703067337	1
3	18841	12334.404034340787	0
3	18845	12334.521804319055	1
[...]
6	39107	25271.247803239952	0.801024787175
6	39115	25273.40489873861	2.239186877335
6	39130	25282.039082575621	0.974958531884
6	39137	25284.677092698841	0.975427192729
6	39140	25285.379389658124	1.359276040714
6	39145	25287.047876858046	0.469967621425
6	39160	25297.585665244581	0.576420770772
6	39165	25298.472438469935	0.479011745378
6	39175	25303.056652643096	0.955722584203
6	39185	25312.920480650122	1.674259920921
6	39195	25318.162444219302	0.83778114021
6	39220	25324.707141747863	4.21880107437
6	39230	25327.763800927353	0.560412799055
6	39254	25337.349033488909	1.498676809705
6	39257	25338.251037092291	2.247659645038
6	39265	25339.520988993022	4.69716665951
6	39310	25370.293684681888	0.566405661171
6	39320	25373.298769806564	0.785572969811
6	39330	25379.992143038396	0.464833660051
6	39335	25385.041302725774	0.625465647271
6	39350	25390.662097942136	1.210714104808
6	39360	25395.102191402062	2.230657834388
6	39372	25399.571741121588	0.987274261687
6	39387	25401.510012668321	1.200397984884
6	39450	25436.129215656349	1.199767991338
6	39455	25439.350894099025	0.644158087764
6	39492	25453.085372716652	0.892930092057
6	39517	25468.270766671255	0.943257106654
6	39545	25479.867445865508	0.716495185723
6	39580	25517.777547980862	0.482857108023
6	39595	25526.024994542355	0.977243566792
6	39600	25528.387370340987	0.983644268708
6	39610	25534.256336236271	0.872126511391
6	39635	25544.390370458251	0.717233035341
6	39690	25577.046572068296	2.30403596653
6	39695	25584.795381826613	0.837178651011
6	39710	25586.934651044006	2.035590302199
6	39715	25591.308981711033	0.542364314757
6	39730	25597.695228955366	2.755575210079
6	39742	25604.287507741859	0.95259047891
6	39750	25605.433118136607	1.058674917501
6	39760	25609.013973096546	0.885049137799
6	39765	25613.278301143404	0.920453811763
6	39800	25638.453145787464	4.06177476759
6	39805	25640.638838184255	0.669681859948
6	39810	25641.759380022378	0.492700134497
6	39815	25645.274673082514	0.591751054442
6	39840	25657.431092297625	0.93515379657
6	39870	25667.912412928413	0.65404271977
6	39875	25670.137699837122	0.657481087511
6	39880	25687.878070010515	0.981717271404
6	39900	25705.726275769758	2.63859904556
6	39905	25708.641516164947	0.515001091734
6	39912	25714.179682894104	0.94317203369
6	39940	25722.43899382525	0.796720276898
6	39952	25732.764366702339	0.788204915356
6	39957	25733.403262522467	0.652164962279
6	39962	25733.853972088522	3.96563128611
6	39965	25734.692897267337	0.900473462608
6	39980	25740.142491556391	0.939942156011
6	39987	25745.485196971981	0.46812034999
6	39997	25746.959774703302	0.510443727206
6	40012	25755.563647059067	0.796921318071
6	40042	25772.64267464059	0.992734493269
6	40055	25776.677217130448	0.805931466678
6	40060	25778.065787894296	0.584841063619
6	40065	25779.997213924334	0.612666560896
6	40090	25808.19284496859	2.227469741866
6	40095	25812.019982327838	0.46692952211
6	40115	25819.571736538851	0.642133985274
6	40120	25821.566762238497	0.579712355882
6	40127	25825.603589458902	0.857255533384
6	40135	25827.419041217179	2.538427478019
6	40140	25829.706292114832	0.837687743641
6	40145	25834.399210214953	0.986443215143
6	40160	25843.52904974116	0.973797087604
6	40165	25848.390828924493	0.534785122285
6	40180	25852.583890016252	0.483084608521
6	40205	25867.853450016105	0.804512871755
6	40210	25871.581178009958	0.78827325413
6	40220	25884.796168092264	0.888175719278
6	40227	25888.951036637519	0.553483178653
6	40235	25894.801051178039	0.667779420922
6	40247	25898.895755976387	0.402396488795
6	40270	25912.073249102337	0.971447488153
6	40292	25920.602710096738	0.869707581772
6	40302	25940.504194211406	0.885232483409
6	40315	25944.857005469255	0.513778300583
6	40340	25971.755544673823	0.637671215972
6	40355	25979.003541649285	0.795873513399
6	40360	25980.322445901414	0.625331554841
6	40385	26000.373559794402	0.860200644932
6	40405	26003.065381337021	2.178812352275
6	40432	26013.278478360651	0.873568207538
6	40435	26014.221567160506	1.797009806804
6	40440	26022.724571755383	0.509000295028
6	40465	26041.745496896985	0.997726998013
6	40470	26042.811335736766	0.827115113009
6	40485	26062.488467081958	0.594343352318
6	40490	26066.288122269703	0.991467939503
6	40500	26068.415713375217	0.579769194612
6	40567	26094.463419296032	0.63065102757
6	40570	26095.417233498719	1.298795284314
6	40575	26096.397802799258	0.961505703861
6	40585	26104.708246819182	1.527683586667
6	40610	26121.178651061309	0.903480755258
6	40645	26135.559364017244	0.753546586307
6	40655	26137.66449120924	1.382916112681
6	40665	26142.544539235069	1.555401602928
6	40730	26183.786011492847	0.888599939551
6	40735	26185.838029838546	0.906511369115
6	40750	26188.576432065443	2.063946750571
6	40765	26193.999800458844	0.428036144841
6	40770	26201.911808473064	0.525247641886
6	40785	26216.182438795128	1.127252969966
6	40792	26220.921217910076	0.725072360737
6	40802	26222.473721342596	1.228646706416
6	40814	26223.719091958801	3.420059010605
6	40817	26224.126138838536	1.400960367207
6	40860	26256.083630737967	0.861597887287
6	40892	26290.344801935827	0.64096714668
6	40915	26309.057195537007	0.660456450516
6	40920	26313.631445126342	0.419879648788
6	40925	26317.076299615276	0.795384924999
6	40935	26322.613943485797	1.707750180431
6	40962	26330.732013144455	0.612043143995
6	40980	26335.940483164705	0.519601292815
6	40990	26348.742875800825	1.58373671267
6	41002	26351.497660276684	0.600474296929
6	41015	26354.980346802808	1.400304823375
6	41090	26415.822254128177	0.442807145463
6	41100	26427.549736412483	1.548958282451
6	41120	26452.509772355055	0.761310918536
6	41125	26458.258983605052	0.677778083552
6	41135	26467.803203266455	1.849857603637
6	41170	26480.000516611467	2.207061558234
6	41195	26492.300488233871	0.425683431933
6	41209	26495.985084946172	0.806066709524
6	41224	26497.927813219091	1.461041305389
6	41227	26498.590132511126	2.058714711458
6	41242	26503.113750215768	0.648091476737
6	41257	26509.325895605791	0.99814072093
6	41290	26525.800230374304	0.786281773448
6	41312	26530.830925067048	1.195395930691
6	41315	26531.775560849672	3.266378864367
6	41345	26549.110109843718	1.376789928247
6	41360	26555.031285743418	0.786771221829
6	41385	26569.591626567879	0.857021193413
6	41390	26570.467418997307	4.130406889611
6	41395	26572.122226346372	0.90848326101
6	41435	26590.623982231129	0.95012059384
6	41455	26606.243298485929	0.596373621933
6	41460	26607.340568179928	0.475214232923
6	41500	26631.171691369256	0.543481193716
6	41515	26642.663874686781	0.860345487762
6	41525	26652.356256928966	1.237382336908
6	41535	26655.106034288377	2.178784035298
6	41540	26658.598389219058	0.719803383807
6	41545	26660.580942313553	0.581731108343
6	41555	26663.118800822324	0.821450550621
6	41560	26665.981730420607	0.405402643839
6	41577	26673.67661766133	1.220850378727
6	41580	26674.517636103115	2.544124779151
6	41585	26676.908018153619	0.832857566886
6	41605	26691.885691179268	0.550257462589
6	41615	26703.972015766638	0.870568707027
6	41640	26708.129927431509	2.45612300524
6	41645	26710.233646470956	0.674450141797
6	41675	26730.525363580311	0.594393400382
6	41700	26742.30178997945	1.359579061559
6	41712	26750.55905661115	0.846400206907
6	41735	26765.624205142573	0.406292954227
6	41745	26777.865346693487	0.644067752361
6	41765	26790.233907465562	0.865180053562
6	41770	26793.356589367631	0.790219978662
6	41785	26802.896699585648	0.49835175327
6	41802	26817.201904259705	0.684476572974
6	41805	26817.852022180556	0.717994965226
6	41820	26830.947667978859	2.540845675682
6	41825	26833.209540360624	0.669884495949
6	41832	26837.665588634935	0.954943500692
6	41847	26840.929957320214	0.951749345427
6	41885	26862.474942082653	0.58201851151
6	41890	26868.525893267282	0.899943891913
6	41897	26873.537605983765	0.950407339865
6	41900	26873.964670479392	1.313722670437
6	41920	26898.431406676428	0.782357981615
6	41935	26916.902034581763	0.433680945216
6	41947	26919.196748130132	1.289695288613
6	41965	26924.596440625551	0.411831094464
6	41995	26940.941579691983	0.877407028386
6	42010	26945.547699716584	0.707573965518
6	42017	26945.987122907728	0.439104143437
6	42025	26959.641578184776	0.414526257431
6	42030	26962.871664010649	0.715858117677
6	42035	26981.186403223841	0.400135973329
6	42070	26992.065693028379	0.802965742443
6	42080	26996.204899220716	0.827467559883
6	42100	27019.573325978608	0.46828146372
6	42115	27025.519513507237	3.787565081192
6	42120	27029.057777482049	0.762034589704
6	42135	27039.67189803459	0.849487673072
6	42150	27057.250496159998	0.760263551679
6	42155	27060.768637563564	0.878343367297
6	42185	27074.684941024598	1.734898870299
6	42210	27133.880263206068	0.547780919494
6	42230	27143.624601889849	0.996207250562
6	42240	27145.684025126212	1.374369860592
6	42245	27149.510435191744	0.448053715751
6	42255	27155.753509672684	0.494434828451
6	42265	27171.591054137033	0.975505197514
6	42325	27207.908072053636	0.71589070947
6	42335	27209.866089101958	3.249280341099
6	42340	27213.380906353265	0.82062812834
6	42372	27232.602296759476	0.727637583809
6	42385	27238.885198041943	0.884013651311
6	42420	27291.457837036424	1.114463333133
6	42425	27298.84795847121	0.481439207122
6	42430	27301.314927023262	0.653878834704
6	42440	27304.185737025359	2.041217020125
6	42445	27332.682236888622	0.526464126492
6	42467	27336.638882591185	2.11495950697
6	42505	27346.619358093135	0.578869043523
6	42525	27360.305568519429	1.776342742466
6	42545	27370.14123893952	0.862588662608
6	42572	27386.855799891374	3.986022640287
6	42595	27394.373241321941	0.912630507676
6	42605	27406.01929561085	0.612695762888
6	42612	27409.648301475944	0.968866002932
6	42630	27418.658242278435	3.053470240353
6	42645	27435.27813060016	0.610329749854
6	42652	27438.246846044187	0.942063351255
6	42660	27439.609291317868	1.407485274658
6	42670	27442.452823787037	2.112564020069
6	42680	27446.442247168314	1.196688102155
6	42697	27449.1298247357	2.600660828361
6	42710	27455.487838385192	0.626404533582
6	42735	27477.638810625947	0.752442801418
6	42750	27486.311736025838	2.108309870517
6	42770	27505.767615556406	0.546004904993
6	42780	27507.84702886718	1.733141375644
6	42790	27519.588486296138	0.936266378546
6	42810	27540.821075753405	0.871877392568
6	42850	27555.776807191882	1.857320554126
6	42865	27566.530788065068	1.455384008125
6	42877	27578.292414654021	1.295582332951
6	42880	27579.267019307262	1.494638099272
6	42887	27580.661393192678	0.829213906918
6	42905	27593.484961404182	0.889832172357
6	42925	27635.470506481111	1.128386687822
6	42930	27639.988879241031	0.843896156317
6	42940	27657.237383695376	0.610792432027
6	42960	27664.324572526222	0.863836405221
6	42982	27669.054384660226	0.711247965181
6	42987	27669.659172196657	1.033652722514
6	42992	27670.371045554493	5.263295812517
6	43002	27674.876815342028	0.893202297855
6	43020	27681.437978060736	3.766022501396
6	43030	27688.804246734045	1.114132229776
6	43050	27701.023294970973	2.004728960025
6	43065	27707.638054629065	0.744024446347
6	43085	27719.769250256002	0.566661347495
6	43135	27737.410699779742	3.022041308177
6	43147	27741.314442220627	0.553382157581
6	43155	27744.069260235066	0.707300266623
6	43180	27770.128816252255	0.732406116836
6	43200	27792.100023959951	0.878717777971
6	43230	27822.242026282578	1.242267959763
6	43235	27824.226395798886	0.870642313967
6	43265	27851.440683622302	0.789805670828
6	43275	27867.592451405905	0.661362863524
6	43280	27869.360211119262	0.681108819693
6	43317	27881.977292701082	1.092822037968
6	43327	27884.383721432641	0.853354410687
6	43340	27886.654390554085	6.353552187476
6	43382	27927.823154364014	0.851614677114
6	43385	27928.443801762955	0.798777952867
6	43392	27936.274541496517	0.566371125914
6	43395	27936.808732356954	0.782284789686
6	43400	27939.411514198972	0.953909089183
6	43450	27969.160829356458	0.99720813334
6	43460	27973.935855735084	0.511286811158
6	43485	27993.894332693862	0.942435104446
6	43497	28000.152667312828	0.569590624142
6	43502	28000.854323372656	0.758106346388
6	43505	28001.485424532035	0.664589918029
6	43525	28012.890919905582	0.959260519873
6	43530	28026.859521619895	0.497165560164
6	43535	28028.779335053235	0.433595009753
6	43540	28039.193620320686	0.776250787405
6	43555	28049.257722798023	0.967563823843
6	43600	28066.900196816026	4.592977516253
6	43607	28069.072836871608	0.929692272376
6	43625	28077.72000557588	0.541763010295
6	43635	28091.00556921367	0.740642520087
6	43640	28093.701036011451	0.41955101504
6	43650	28095.956728162563	1.784237284902
6	43662	28101.886567812458	0.940148825385
6	43665	28102.369076344509	1.36166604609
6	43692	28116.806084190874	2.052051469614
6	43700	28118.235878353432	1.364140480927
6	43720	28124.868455840306	3.581331841405
6	43725	28127.148257451818	0.770001492137
6	43732	28142.017108137998	0.917083700793
6	43742	28143.67768146689	1.094213338171
6	43750	28146.739733413776	0.402113636583
6	43755	28152.650461561073	0.428900317382
6	43760	28156.811728371873	0.77808138947
6	43785	28175.775933431528	0.442082833219
6	43790	28177.793843115952	0.835105902608
6	43817	28189.430761569603	0.736266079219
6	43820	28190.257162074796	1.064558229798
6	43835	28200.092379563924	0.955739010498
6	43840	28202.249940282016	0.650317590218
6	43850	28210.709540174142	0.433357926784
6	43877	28225.6095464283	0.838844611822
6	43890	28227.67325147929	0.712196592
6	43900	28238.912920822692	0.881789002987
6	43917	28248.005347966223	0.703438270371
6	43970	28263.337489876941	0.901006161235
6	43975	28286.12163852824	0.578726686537
6	43999	28302.07227533853	0.870096852398
6	44002	28302.642036364808	0.671282056205
6	44057	28325.990484203858	1.529770303687
6	44130	28351.323250592177	0.95457128096
6	44135	28355.220493434096	0.690579246962
6	44140	28361.581728982776	0.594710099837
6	44192	28380.984676331843	1.095807893365
6	44212	28385.27914780979	1.067667605259
6	44235	28399.420076479151	0.605264782021
6	44260	28411.922991092737	0.592683017859
6	44270	28425.236171918532	0.853451643698
6	44275	28433.508591649483	0.748041378427
6	44280	28439.004836418734	0.924536576867
6	44297	28458.910329323172	1.609466461878
6	44320	28475.6898344665	0.596746662445
6	44337	28485.883772908856	0.879965920886
6	44357	28491.120965462958	0.682442649268
6	44360	28491.747803367896	1.010092313896
6	44365	28492.365008258954	0.602718628617
6	44375	28502.379222991758	0.44710039706
6	44380	28505.975072590526	0.485229270998
6	44397	28508.873214360049	2.825372068483
6	44415	28512.680984307456	1.036011010097
6	44450	28559.275021443911	0.641405645981
6	44470	28578.994247060136	1.569224219546
6	44490	28591.147953929732	0.910791270714
6	44495	28595.075217677595	0.475607128209
6	44505	28597.04063305513	0.918147067896
6	44515	28604.149816517594	1.453578194913
6	44520	28604.645238037433	0.4950458101
6	44550	28637.142660670625	0.672300350154
6	44560	28645.251563032271	0.678935626056
6	44565	28651.879819343488	0.931066484982
6	44590	28658.995857929136	1.536323208901
6	44597	28659.680078093321	0.476590662263
6	44605	28661.349139909155	1.749535050585
6	44610	28666.137671781698	0.863494528551
6	44635	28699.220853726855	0.870682729548
6	44665	28717.098016468973	0.718780741608
6	44670	28718.346380503205	0.462267088331
6	44680	28719.917238183165	1.231179732741
6	44707	28731.703378359981	1.743753347267
6	44720	28736.547493189208	1.548998817384
6	44732	28740.412841176725	2.571557927374
6	44784	28757.611404930324	1.399015154008
6	44791	28758.228435889947	4.590019441299
6	44794	28759.078494828976	1.058754277279
6	44815	28774.346029063251	0.642362743616
6	44820	28777.552764964827	0.589430677658
6	44825	28782.277135852505	0.645066626277
6	44830	28787.941381870223	0.919377208967
6	44860	28816.1500426987	2.143699546385
6	44880	28845.627012918451	2.995038427213
6	44890	28849.624320633647	1.476365443847
6	44900	28859.282434594282	1.320532084382
6	44912	28865.257904066914	0.455897535523
6	44937	28879.138402725642	2.44881607077
6	44942	28880.109236712826	1.145683254028
6	44945	28880.688040840186	1.326584843441
6	44955	28888.282376198008	0.561774134543
6	44970	28898.932849922793	0.45424005175
6	44980	28912.581012764276	0.453645912837
6	45015	28936.879033399241	0.930593063636
6	45040	28946.797174004406	0.783900213661
6	45050	28951.541105478427	0.69470107673
6	45070	28962.699200952518	2.319902097559
6	45075	28965.712905070296	0.62469663294
6	45082	28968.889500435835	0.672422332689
6	45095	28971.101494276033	2.286524841096
6	45110	28993.328324932909	0.887576280069
6	45135	29027.656024142135	0.451620059228
6	45140	29032.377230413807	0.692296604346
6	45182	29057.714557762888	3.029073804622
6	45190	29059.72180841568	2.39771722458
6	45200	29066.84144229097	0.538578996994
6	45205	29067.905883142881	0.936532274308
6	45210	29074.879834177759	0.765226153564
6	45220	29076.804674347209	0.813246968389
6	45240	29099.764766061519	0.478495935909
6	45250	29105.920252638416	2.610892429637
6	45280	29117.767907837225	0.798484436719
6	45330	29166.139554170347	0.691603803588
6	45354	29170.53920485627	3.712193456716
6	45395	29192.899527512946	2.930850259125
6	45417	29197.516495939796	0.90442248052
6	45492	29235.927664682079	0.654739926755
6	45505	29264.54735258316	0.5196351205
6	45515	29272.892043236355	0.524097085977
6	45550	29303.045268798881	0.507855764031
6	45585	29327.806744250379	0.889425848844
6	45600	29341.587552019258	0.756923137512
6	45605	29343.508906048789	0.992034493154
6	45634	29361.689231129215	1.353987167374
6	45637	29362.651872859794	1.587336158219
6	45645	29366.339656342095	0.881271078624
6	45650	29370.541622606789	0.401334913634
6	45675	29388.411670050848	4.357394411277
6	45690	29400.282967211113	0.869116111472
6	45705	29420.446294765097	1.547270106119
6	45732	29435.212616946337	0.578972423179
6	45770	29455.306758789701	0.637750359438
6	45782	29460.019944665491	1.036107367654
6	45825	29470.406643920554	2.303993181863
6	45830	29474.513886918441	0.540901319077
6	45855	29479.262297368807	1.369024744045
6	45885	29498.74311330313	0.780365178967
6	45895	29505.613027954022	2.101593377838
6	45910	29512.658518146483	2.088295790926
6	45922	29533.508209986822	0.647721747504
6	45930	29539.35414848717	0.469960404327
6	45952	29558.723238653439	0.790730889887
6	45980	29580.555849730325	1.531020694343
6	45995	29596.41790208789	1.616951734286
6	46015	29614.27609610497	0.89566191734
6	46042	29627.655317573496	0.88169641369
6	46075	29642.156556208916	0.417781073088
6	46090	29645.363827277784	4.812720631494
6	46107	29648.377705049544	2.538503116638
6	46110	29648.924703217886	1.805244962638
6	46140	29656.582185775559	1.761633205723
6	46157	29660.765059422201	1.133718681879
6	46160	29661.527578157897	1.667357020192
6	46180	29672.596797239249	0.539806781663
6	46185	29675.701551466766	0.51296475376
6	46200	29682.184498487321	0.814171136259
6	46234	29701.301563427312	0.697140412172
6	46241	29702.30021213055	1.433798305
6	46244	29702.928339832969	1.234893393552
6	46249	29703.82823746893	1.958563852022
6	46252	29704.391775523307	1.048131754092
6	46260	29707.537761094672	0.882821299881
6	46280	29722.490638600783	1.634706379613
6	46300	29742.594992695881	0.87017030553
6	46312	29750.229031336268	0.921315139206
6	46320	29752.259636014318	2.585241104881
6	46330	29756.707772174968	1.45941265141
6	46340	29782.404181742269	0.570202766825
6	46350	29786.768744097249	2.336826172199
6	46360	29805.830950283362	0.858574268129
6	46410	29830.879417001149	0.952474348061
6	46430	29847.477413846107	0.6648587754
6	46452	29855.956470514334	1.013526326923
6	46470	29873.125517232097	0.956862462405
6	46480	29882.115803868756	0.599397165934
6	46485	29890.210857974551	0.921108959615
6	46500	29892.923113734641	0.591937455675
6	46510	29898.499945183782	0.654687273176
6	46535	29914.889845287639	0.861788620881
6	46545	29925.803926275041	0.908149104426
6	46552	29927.83044830056	0.987563455105
6	46560	29936.620312620083	0.517070789682
6	46565	29941.82808247554	0.496701283474
6	46580	29957.906262826162	1.355778530059
6	46585	29963.495845027497	0.677013823716
6	46590	29967.402251297712	0.500518269045
6	46595	29977.849495307766	0.647962845257
6	46600	29980.314666396192	0.684940717928

