version 2
run First_exit_8-17-20191114-11:42:34-8910
attr configname First_exit_8
attr datetime 20191114-11:42:34
attr experiment First_exit_8
attr inifile omnetpp.ini
attr iterationvars ""
attr iterationvarsf ""
attr measurement ""
attr network ResponseTimeNetwork
attr processid 8910
attr repetition 17
attr replication #17
attr resultdir results
attr runnumber 17
attr seedset 17
param **.Source.interArrivalTime exponential(4s)
param **.jobPriority bernoulli(0.4)
param **.PS.serviceTimeU1 "uniform(0.4s, 1.0s)"
param **.PS.serviceTimeU2 "uniform(1s, 1.2s)"
param **.SS1.serviceTime exponential(0.4s)
param **.SS2.serviceTime exponential(0.8s)
param **.PS.exitProbability bernoulli(0.8)

vector 0 ResponseTimeNetwork.QueueU2 queueLength:vector ETV
attr interpolationmode sample-hold
attr title "queue length, vector"
vector 1 ResponseTimeNetwork.sink lifeTimeU2:vector ETV
attr interpolationmode none
attr title "lifetime of arrived jobs U2, vector"
attr unit s
vector 2 ResponseTimeNetwork.sink totalServiceTimeU2:vector ETV
attr interpolationmode none
attr title "the total time spent  by arrived jobs U2, vector"
attr unit s
vector 3 ResponseTimeNetwork.sink lifeTime:vector ETV
attr interpolationmode none
attr title "lifetime of arrived jobs, vector"
attr unit s
vector 4 ResponseTimeNetwork.sink totalServiceTime:vector ETV
attr interpolationmode none
attr title "the total time spent  by arrived jobs, vector"
attr unit s
vector 5 ResponseTimeNetwork.QueueU1 queueLength:vector ETV
attr interpolationmode sample-hold
attr title "queue length, vector"
vector 6 ResponseTimeNetwork.sink lifeTimeU1:vector ETV
attr interpolationmode none
attr title "lifetime of arrived jobs U1, vector"
attr unit s
vector 7 ResponseTimeNetwork.sink totalServiceTimeU1:vector ETV
attr interpolationmode none
attr title "the total time spent  by arrived jobs U1, vector"
attr unit s
vector 8 ResponseTimeNetwork.SS2 queueLength:vector ETV
attr interpolationmode sample-hold
attr title "queue length, vector"
vector 9 ResponseTimeNetwork.SS1 queueLength:vector ETV
attr interpolationmode sample-hold
attr title "queue length, vector"
0	64424	10000.518456774098	4
0	64428	10000.642402438303	5
0	64429	10000.965755933742	4
0	64437	10001.762378540033	5
0	64445	10002.813283285707	6
0	64456	10004.992864060062	5
0	64465	10006.133845845667	6
0	64466	10006.797728205505	5
0	64474	10008.64155829636	4
0	64478	10008.731815552492	5
0	64479	10009.041628034353	4
0	64483	10009.329145772641	5
0	64484	10009.740791998464	4
0	64487	10010.42099161943	3
0	64491	10010.426575110001	4
0	64493	10010.672047100601	5
0	64494	10010.923827394178	4
0	64498	10011.02316976804	5
0	64500	10011.793696421328	6
0	64501	10011.835212178096	5
0	64505	10012.325330809123	6
0	64506	10012.367278057324	5
0	64510	10012.688669941424	6
0	64512	10012.71879416752	7
0	64513	10013.365747740014	6
0	64517	10013.672061179621	7
0	64518	10013.836252623691	6
0	64522	10013.952079658823	7
0	64523	10014.527434514544	6
0	64526	10015.238083506969	5
0	64532	10015.384072227733	6
0	64539	10016.68426144756	7
0	64541	10016.757871818811	8
0	64546	10017.143457891034	9
0	64547	10017.220082390297	8
0	64555	10018.81928885536	7
0	64558	10019.22547096688	6
0	64561	10019.627704009681	5
0	64565	10020.050041259705	6
0	64569	10020.312312729251	7
0	64574	10020.589236360613	8
0	64576	10020.655966279058	9
0	64577	10021.271054420189	8
0	64586	10022.466051130055	9
0	64587	10022.660851114231	8
0	64595	10023.788166603015	7
0	64603	10025.119686981045	6
0	64612	10026.185656778228	7
0	64613	10026.762280329537	6
0	64621	10028.00640305177	5
0	64624	10028.458049660816	4
0	64628	10028.690286513168	5
0	64629	10029.447849476558	4
0	64632	10030.011662881902	3
0	64636	10030.028510752207	4
0	64637	10030.851572436734	3
0	64641	10030.928356057812	4
0	64642	10031.81786589584	3
0	64646	10031.817913774145	4
0	64652	10033.559919997432	3
0	64661	10035.147476752676	4
0	64662	10035.324986240907	3
0	64665	10035.843981098976	2
0	64669	10035.900211759846	3
0	64675	10036.757829718558	2
0	64679	10036.945929264868	3
0	64685	10037.772984807692	2
0	64694	10038.670468942131	3
0	64695	10038.921146070385	2
0	64698	10039.443458241257	1
0	64707	10040.313941024698	2
0	64709	10040.628716392924	3
0	64710	10041.039514285871	2
0	64724	10042.564305231486	3
0	64725	10043.365543187955	2
0	64738	10044.859421046298	1
0	64744	10045.486891583087	2
0	64749	10046.325325591747	3
0	64750	10046.329173243032	2
0	64761	10047.46450009454	3
0	64773	10049.222497703245	4
0	64782	10050.647710241736	3
0	64785	10051.097894515316	2
0	64794	10052.205871381757	3
0	64795	10052.516901979582	2
0	64808	10054.304445996214	1
0	64817	10055.572943324307	2
0	64818	10055.65684663787	1
0	64826	10057.231351948329	0
0	64850	10061.61935982131	1
0	64851	10062.415848559639	0
0	64860	10063.08235468919	1
0	64861	10063.943380486531	0
0	64959	10079.48221028107	1
0	64996	10084.712372888161	2
0	65060	10093.423728297051	3
0	65067	10094.28041597104	4
0	65147	10105.991187042788	3
0	65155	10107.757528390687	2
0	65164	10108.687369837096	3
0	65170	10109.293344041797	2
0	65178	10110.402469768048	1
0	65187	10111.140485523803	2
0	65189	10111.324879763492	3
0	65190	10111.931107980291	2
0	65201	10113.194429414214	3
0	65210	10114.352131917652	2
0	65224	10115.859057221351	3
0	65225	10115.931336836981	2
0	65228	10116.736099625936	1
0	65234	10117.084486168627	2
0	65239	10118.444770870969	3
0	65240	10118.45922515611	2
0	65244	10118.459706382452	3
0	65248	10119.078411111459	4
0	65253	10119.797144567056	5
0	65254	10120.147464559459	4
0	65262	10121.594096369575	3
0	65271	10122.461911316572	4
0	65272	10123.22476631049	3
0	65275	10124.027301777992	2
0	65279	10124.057548572971	3
0	65280	10124.68718921002	2
0	65284	10124.880230884217	3
0	65375	10138.319514436818	4
0	65457	10151.455238159511	3
0	65466	10152.299891758151	4
0	65467	10152.51222567139	3
0	65475	10154.39495705636	2
0	65484	10155.359653740806	3
0	65485	10155.849120477399	2
0	65494	10156.86439147012	3
0	65495	10157.493170736589	2
0	65503	10159.299338203714	1
0	65506	10159.762181760509	0
0	65510	10160.442440630962	1
0	65511	10160.612692664609	0
0	65515	10161.450294216983	1
0	65516	10161.59229185325	0
0	65525	10162.644038031791	1
0	65526	10162.960692815901	0
0	65540	10165.409831462124	1
0	65542	10165.716480072405	2
0	65543	10165.896288390229	1
0	65546	10166.641508839004	0
0	65570	10170.513542515208	1
0	65571	10170.748294516161	0
0	65610	10177.307980063242	1
0	65611	10177.488378102703	0
0	65725	10221.181049901403	1
0	65726	10221.790049727716	0
0	65735	10222.532370240059	1
0	65736	10223.173127622808	0
0	65745	10225.40277323761	1
0	65746	10225.535323541582	0
0	65755	10226.135448214318	1
0	65756	10226.804969555297	0
0	65765	10228.353975147185	1
0	65766	10228.42993716816	0
0	65770	10228.57933407427	1
0	65777	10229.665864528631	2
0	65778	10229.825651726821	1
0	65784	10230.391790960106	2
0	65789	10231.105343559101	3
0	65790	10231.560299281771	2
0	65799	10232.722233310514	3
0	65800	10232.758512515849	2
0	65809	10233.709999990756	3
0	65810	10234.484960947739	2
0	65813	10235.260282241594	1
0	65817	10235.323343407908	2
0	65818	10235.990158178	1
0	65822	10236.082025872554	2
0	65823	10236.611319105135	1
0	65827	10236.632048258657	2
0	65829	10237.360290207465	3
0	65830	10237.390841867909	2
0	65833	10238.355848446017	1
0	65836	10238.832489536883	0
0	65840	10239.137922883529	1
0	65841	10239.371010076388	0
0	65847	10240.012243033641	1
0	65849	10240.100226262278	2
0	65851	10240.18203478992	3
0	65856	10240.337061003596	4
0	65857	10240.964490167278	3
0	65868	10241.722992103435	4
0	65917	10248.75793379987	3
0	65926	10249.706362088423	4
0	65932	10250.482775089093	3
0	65943	10251.491501276597	4
0	65967	10256.225026876987	3
0	65970	10256.625918668737	2
0	65974	10257.081893742841	3
0	65975	10257.454650956248	2
0	65979	10257.735700319281	3
0	65980	10257.996819395847	2
0	65983	10258.4081100041	1
0	65986	10259.040329623823	0
0	66015	10266.48577959075	1
0	66022	10267.396177478514	2
0	66023	10267.601819482804	1
0	66026	10268.591540421764	0
0	66060	10279.84094849112	1
0	66072	10281.263028628682	2
0	66073	10281.980901312401	1
0	66087	10283.429884814032	2
0	66088	10284.385388694044	1
0	66094	10284.633911298454	2
0	66098	10286.209928595267	1
0	66104	10286.50098941794	2
0	66106	10286.604732870457	3
0	66110	10287.092720172314	2
0	66119	10288.39298324176	3
0	66120	10288.822430499636	2
0	66129	10289.956493627248	3
0	66130	10290.329374289692	2
0	66139	10291.557754628219	3
0	66140	10291.736246838414	2
0	66144	10291.881790996207	3
0	66151	10292.938183822345	4
0	66152	10293.194902525929	3
0	66161	10294.128826702595	4
0	66162	10294.621613508643	3
0	66168	10295.490746234406	4
0	66172	10295.970058512681	3
0	66176	10296.08645964703	4
0	66183	10296.833116013899	5
0	66184	10297.299618491104	4
0	66197	10299.832247591337	3
0	66200	10300.249111226007	2
0	66209	10300.96567622014	3
0	66211	10301.330047814399	4
0	66212	10301.389038640952	3
0	66215	10301.957996108283	2
0	66224	10303.171959945381	3
0	66225	10303.52790998122	2
0	66238	10305.811304455756	1
0	66249	10306.651298223833	2
0	66264	10308.591879891119	3
0	66276	10309.729292591349	4
0	66287	10311.649746708843	3
0	66290	10312.486453619917	2
0	66293	10313.045530803773	1
0	66297	10313.820715040173	2
0	66298	10313.979024172147	1
0	66302	10314.063605916766	2
0	66303	10314.52676091971	1
0	66307	10315.272595071603	2
0	66308	10315.356237974103	1
0	66311	10316.242569439012	0
0	66325	10321.250578830962	1
0	66326	10321.777354885636	0
0	66360	10331.041520172572	1
0	66362	10331.430445803951	2
0	66363	10331.67731955993	1
0	66366	10332.171899403129	0
0	66375	10333.939843123912	1
0	66376	10334.195516668478	0
0	66380	10334.286719915504	1
0	66381	10334.680752640389	0
0	66390	10336.531354860959	1
0	66391	10336.796198276489	0
0	66400	10338.10398124407	1
0	66401	10338.328791752469	0
0	66405	10338.926376345888	1
0	66406	10339.153395919979	0
0	66410	10339.306038055329	1
0	66412	10339.640157672363	2
0	66413	10340.150321382435	1
0	66416	10341.005793025263	0
0	66420	10341.044127450589	1
0	66421	10341.704392684309	0
0	66435	10346.130937329639	1
0	66436	10346.902508717738	0
0	66440	10347.031022039371	1
0	66441	10347.474124960378	0
0	66445	10347.59403657397	1
0	66447	10347.891451534259	2
0	66448	10348.377256151717	1
0	66452	10348.410718674595	2
0	66453	10348.823507982083	1
0	66457	10348.872949444513	2
0	66458	10349.800953412205	1
0	66462	10349.937396282171	2
0	66463	10350.581587383859	1
0	66467	10350.95430913256	2
0	66468	10351.467933498239	1
0	66471	10352.315470243953	0
0	66485	10355.080622583612	1
0	66492	10355.729101820074	2
0	66493	10356.543227244309	1
0	66501	10358.073075637129	0
0	66542	10363.717744179018	1
0	66551	10365.674396875835	0
0	66557	10366.198746371843	1
0	66564	10366.426083975182	2
0	66588	10370.132321277129	1
0	66596	10371.606185592393	0
0	66605	10372.493070350111	1
0	66606	10372.499957525459	0
0	66610	10372.602119908784	1
0	66611	10373.299635429363	0
0	66615	10373.565336029378	1
0	66616	10374.269414790402	0
0	66625	10375.632641672931	1
0	66626	10375.895765650563	0
0	66630	10375.943852065852	1
0	66631	10376.583968912402	0
0	66635	10376.846052654152	1
0	66637	10377.331386290643	2
0	66638	10377.537111597938	1
0	66641	10378.521243924751	0
0	66650	10379.282736672164	1
0	66652	10379.664945627254	2
0	66653	10379.836651015359	1
0	66657	10380.198349652816	2
0	66658	10380.29928252104	1
0	66662	10380.314695202231	2
0	66663	10381.217479582907	1
0	66666	10382.151080975713	0
0	66675	10383.976386827109	1
0	66677	10384.117641392423	2
0	66681	10384.249815312267	3
0	66686	10384.901326526689	4
0	66687	10385.603701341732	3
0	66690	10386.033956750783	2
0	66693	10386.678432836638	1
0	66697	10387.534363901459	2
0	66698	10387.628704849978	1
0	66702	10387.831226299017	2
0	66704	10387.973111260164	3
0	66705	10388.048951760235	2
0	66708	10388.891931081072	1
0	66711	10389.292606856509	0
0	66715	10389.649182843635	1
0	66717	10389.96756826845	2
0	66718	10390.212661336104	1
0	66721	10391.037785051412	0
0	66747	10396.662047521936	1
0	66749	10396.73475668912	2
0	66753	10397.417801014801	1
0	66759	10397.831046283631	2
0	66764	10398.054265475709	3
0	66765	10398.610542792129	2
0	66771	10398.781197322387	3
0	66773	10398.913920219671	4
0	66778	10399.444490157327	5
0	66779	10400.388186288625	4
0	66792	10402.272859100998	3
0	66795	10402.69282385991	2
0	66801	10403.377898980171	3
0	66805	10403.981326257857	2
0	66811	10404.532015041483	3
0	66816	10404.776253023385	4
0	66817	10405.523400793458	3
0	66825	10406.405773067335	2
0	66829	10406.52039895991	3
0	66830	10406.837694864255	2
0	66839	10407.30654656673	3
0	66840	10407.919351164298	2
0	66844	10408.277545715797	3
0	66851	10408.843995323961	4
0	66852	10409.220649829087	3
0	66855	10409.777699417294	2
0	66863	10411.117593706212	1
0	66871	10412.937154969991	0
0	66895	10416.514539782064	1
0	66896	10416.973147976813	0
0	66925	10422.725822427235	1
0	66931	10423.885293145209	0
0	66945	10430.578154266834	1
0	66946	10430.854455325484	0
0	67040	10450.535651304119	1
0	67041	10450.861980016443	0
0	67065	10456.808529931768	1
0	67066	10457.415396972231	0
0	67080	10461.047827137482	1
0	67081	10461.381357289596	0
0	67112	10465.797472937361	1
0	67124	10466.954596160394	2
0	67183	10475.189095496597	1
0	67191	10476.090914604884	0
0	67200	10476.900228239426	1
0	67204	10477.739816427927	2
0	67211	10478.403101348108	3
0	67225	10481.205791838304	2
0	67244	10483.782683931325	3
0	67245	10484.446553590172	2
0	67249	10484.732207499746	3
0	67261	10486.245896831979	4
0	67262	10486.376059956779	3
0	67270	10487.42681772348	2
0	67278	10488.963614567486	1
0	67282	10489.145517453391	2
0	67286	10489.620494059747	3
0	67291	10490.082812556791	4
0	67292	10490.565512772347	3
0	67298	10490.880234487543	4
0	67302	10491.483408699068	3
0	67311	10492.14015826161	4
0	67312	10493.086909246514	3
0	67320	10494.574691356881	2
0	67329	10495.523563947604	3
0	67330	10495.918274490651	2
0	67338	10497.286377058666	1
0	67347	10498.370439161613	2
0	67348	10498.670149843883	1
0	67351	10499.19070962381	0
0	67355	10499.258920332558	1
0	67356	10500.000181947671	0
0	67360	10500.133839357744	1
0	67361	10500.952859149663	0
0	67365	10500.967427664095	1
0	67366	10501.464328466006	0
0	67372	10502.172331101167	1
0	67376	10502.756502811866	0
0	67385	10503.767217614039	1
0	67387	10503.990388572973	2
0	67388	10504.085166756878	1
0	67391	10504.88716686482	0
0	67400	10506.016309953565	1
0	67402	10506.482181430364	2
0	67403	10506.671252655957	1
0	67406	10507.202571775505	0
0	67415	10508.86669933975	1
0	67416	10509.318638629672	0
0	67430	10511.295189212156	1
0	67431	10511.631236613888	0
0	67437	10512.211519489092	1
0	67441	10512.90801246918	0
0	67450	10513.649970197559	1
0	67451	10514.065019620184	0
0	67470	10516.701933497992	1
0	67472	10517.135744966795	2
0	67473	10517.325012915266	1
0	67477	10517.477075202355	2
0	67478	10517.838400946056	1
0	67482	10518.579677900316	2
0	67483	10518.582391646981	1
0	67487	10518.963378347916	2
0	67488	10519.123154132824	1
0	67492	10519.454815712188	2
0	67493	10519.671144539687	1
0	67497	10519.974710880089	2
0	67498	10520.60629725136	1
0	67504	10521.040959014651	2
0	67509	10521.763939882154	3
0	67510	10522.134380494162	2
0	67513	10523.06152972771	1
0	67517	10523.248372379792	2
0	67518	10523.890985076885	1
0	67527	10524.639413739032	2
0	67528	10525.298392265859	1
0	67532	10525.363509109065	2
0	67534	10525.809328854875	3
0	67541	10526.578734960446	4
0	67542	10526.877378885831	3
0	67545	10527.303092646982	2
0	67548	10528.096694557752	1
0	67551	10528.559116311475	0
0	67555	10528.705792438392	1
0	67556	10529.28917443148	0
0	67560	10530.001144010106	1
0	67561	10530.211675458133	0
0	67570	10533.029303260904	1
0	67571	10533.764848291083	0
0	67575	10533.93609694918	1
0	67576	10534.475603887905	0
0	67585	10535.879198146359	1
0	67586	10536.290873828412	0
0	67590	10537.209684757087	1
0	67591	10537.27578141603	0
0	67595	10537.330446648236	1
0	67596	10538.200559151008	0
0	67625	10546.505296698294	1
0	67626	10546.535066003835	0
0	67635	10548.790424008788	1
0	67636	10549.322055923152	0
0	67680	10563.609562737977	1
0	67681	10564.300964176609	0
0	67730	10578.648298178559	1
0	67731	10579.046140364083	0
0	67750	10584.682664535754	1
0	67751	10585.246079551839	0
0	67755	10585.525781084822	1
0	67756	10585.966525646849	0
0	67765	10587.465554734611	1
0	67766	10587.79123005892	0
0	67770	10588.120772544397	1
0	67771	10588.394134942785	0
0	67780	10589.439610780524	1
0	67781	10589.969463194459	0
0	67790	10592.060998540278	1
0	67791	10592.504657487913	0
0	67800	10595.153775265283	1
0	67801	10595.607136173063	0
0	67805	10596.202826013768	1
0	67806	10596.460576878238	0
0	67815	10597.369047330942	1
0	67816	10597.75979083025	0
0	67820	10598.160021699036	1
0	67821	10598.359349195828	0
0	67830	10599.287762640123	1
0	67836	10600.365863712715	0
0	67845	10601.232213447095	1
0	67846	10601.711524554319	0
0	67852	10601.882468759509	1
0	67856	10602.745604344248	0
0	67870	10604.590012341422	1
0	67872	10604.685181562823	2
0	67873	10605.346570904345	1
0	67876	10606.02060304566	0
0	67885	10607.218730131245	1
0	67886	10607.394325953077	0
0	67890	10607.460577222938	1
0	67891	10608.298847155233	0
0	67895	10608.931033211929	1
0	67896	10609.041439849564	0
0	67905	10610.784984690732	1
0	67907	10611.267483094676	2
0	67908	10611.423993640051	1
0	67911	10611.848080498104	0
0	67945	10631.621155797132	1
0	67946	10631.670051313085	0
0	67955	10632.898212079294	1
0	67956	10633.643623088852	0
0	67970	10636.314777718745	1
0	67971	10637.179366832777	0
0	68037	10658.643822357345	1
0	68054	10660.53846600995	2
0	68061	10661.668911403585	3
0	68070	10662.900958868574	2
0	68079	10663.95623823701	3
0	68080	10664.424862666467	2
0	68088	10665.945669081659	1
0	68091	10666.633269081443	0
0	68125	10681.505014042316	1
0	68126	10681.543607622951	0
0	68130	10681.678029743876	1
0	68132	10681.864217781362	2
0	68133	10682.375821528963	1
0	68137	10682.835480327215	2
0	68138	10683.331867867948	1
0	68142	10683.933878052629	2
0	68144	10684.160734605659	3
0	68145	10684.17805845808	2
0	68148	10684.647046068225	1
0	68151	10685.376805649985	0
0	68155	10685.669786893063	1
0	68156	10685.865126590439	0
0	68165	10687.087272813927	1
0	68167	10687.107962937628	2
0	68168	10687.910386449831	1
0	68172	10688.108303896522	2
0	68173	10688.446755370299	1
0	68177	10688.572524998933	2
0	68179	10688.936512012108	3
0	68180	10689.302556664158	2
0	68184	10689.564361158882	3
0	68185	10690.17940461164	2
0	68189	10690.938340605362	3
0	68190	10691.130070787749	2
0	68193	10691.735872534464	1
0	68197	10691.742033882757	2
0	68199	10691.850847779498	3
0	68200	10692.316080577799	2
0	68204	10692.671300225278	3
0	68205	10692.83688748948	2
0	68209	10692.876903396477	3
0	68210	10693.788882558641	2
0	68214	10694.015331485175	3
0	68215	10694.542168304312	2
0	68218	10695.370977935136	1
0	68221	10696.303819870238	0
0	68225	10697.092730798161	1
0	68226	10697.141439565399	0
0	68230	10697.360685263487	1
0	68231	10697.675182162353	0
0	68240	10700.173287649497	1
0	68241	10700.174964844225	0
0	68250	10702.921857241008	1
0	68252	10702.993095086938	2
0	68253	10703.095776334741	1
0	68257	10703.114707408555	2
0	68258	10703.696006609742	1
0	68262	10703.856327319213	2
0	68263	10704.432605803535	1
0	68266	10704.923603361995	0
0	68275	10707.112710551793	1
0	68276	10707.919474836871	0
0	68280	10707.954377010686	1
0	68281	10708.715425643012	0
0	68290	10710.428750425122	1
0	68292	10710.6094308062	2
0	68293	10710.760497193128	1
0	68297	10711.185035838892	2
0	68298	10711.719478801821	1
0	68302	10712.28394721174	2
0	68303	10712.6284419022	1
0	68307	10713.178116637032	2
0	68309	10713.257110060891	3
0	68310	10713.334906851683	2
0	68313	10713.860592370896	1
0	68321	10714.704555808563	0
0	68335	10724.527718208023	1
0	68336	10724.734051171949	0
0	68344	10725.137586830498	1
0	68354	10726.654623544212	2
0	68358	10727.821739776552	1
0	68362	10727.939145683484	2
0	68364	10728.074020298898	3
0	68371	10728.870076635119	4
0	68372	10728.898495907037	3
0	68380	10730.417165577158	2
0	68384	10730.860198940917	3
0	68385	10731.378710910936	2
0	68388	10732.220500315425	1
0	68391	10732.65601438021	0
0	68400	10733.394381656071	1
0	68402	10733.401438129361	2
0	68404	10733.591324109069	3
0	68405	10733.739685622854	2
0	68408	10734.156038494939	1
0	68411	10734.751863675118	0
0	68417	10734.922404246843	1
0	68419	10735.362158557072	2
0	68421	10735.372104403983	3
0	68425	10736.434766100832	2
0	68433	10737.753383432721	1
0	68437	10737.775215430881	2
0	68441	10738.458803499549	3
0	68446	10738.772853126315	4
0	68448	10738.854665326668	5
0	68450	10738.985359064459	6
0	68451	10739.206943563624	5
0	68460	10740.209153518426	6
0	68461	10740.546370282183	5
0	68465	10741.200204476608	6
0	68466	10741.296586579104	5
0	68470	10741.561470083113	6
0	68472	10741.770717166631	7
0	68473	10742.118454286429	6
0	68479	10742.595616168014	7
0	68483	10743.439980898817	6
0	68487	10743.488113420749	7
0	68491	10743.855878256402	8
0	68495	10744.525934986045	7
0	68503	10745.883646726907	6
0	68511	10747.389294175311	5
0	68515	10747.501581436161	6
0	68522	10748.611945905622	7
0	68523	10748.845151882545	6
0	68531	10750.257208218165	5
0	68540	10751.524038536216	6
0	68541	10751.613729521884	5
0	68549	10753.266673107884	4
0	68555	10753.774134989833	5
0	68564	10755.387184500434	4
0	68572	10757.187099450567	3
0	68578	10757.788065547082	4
0	68583	10758.30054500064	5
0	68584	10758.930843441627	4
0	68592	10760.536933556126	3
0	68596	10760.781976398629	4
0	68602	10762.2247294625	3
0	68610	10763.829295397477	2
0	68614	10764.158114567068	3
0	68615	10764.349784257842	2
0	68618	10765.227988647178	1
0	68621	10765.887351993865	0
0	68630	10767.143104024032	1
0	68631	10767.450878969603	0
0	68635	10767.978515348559	1
0	68636	10768.173237159452	0
0	68645	10769.355711709494	1
0	68647	10769.501942331856	2
0	68649	10769.717754964715	3
0	68650	10769.897310208265	2
0	68653	10770.388404445971	1
0	68657	10770.976519644029	2
0	68658	10771.244503447848	1
0	68662	10771.475148392436	2
0	68663	10771.654020039846	1
0	68667	10771.910188364701	2
0	68668	10772.439025476171	1
0	68671	10773.36606250635	0
0	68675	10773.762441763409	1
0	68676	10773.780882957546	0
0	68680	10774.187842131621	1
0	68681	10774.224719699115	0
0	68685	10774.670874459169	1
0	68686	10775.216802695828	0
0	68690	10776.038100711412	1
0	68691	10776.206523373832	0
0	68715	10781.188433537004	1
0	68716	10781.812581252263	0
0	68730	10783.149648923353	1
0	68732	10783.170784433859	2
0	68734	10783.246010766765	3
0	68735	10783.652048411332	2
0	68739	10784.310380157103	3
0	68740	10784.310513010966	2
0	68744	10784.754439944141	3
0	68745	10785.114350069985	2
0	68749	10785.121377876771	3
0	68751	10785.302532289506	4
0	68752	10786.016186513212	3
0	68755	10786.619204397286	2
0	68758	10787.048236410432	1
0	68762	10787.100601828623	2
0	68764	10787.451874051007	3
0	68765	10787.812181616547	2
0	68768	10788.476979378118	1
0	68771	10788.997096102099	0
0	68775	10789.353496699218	1
0	68776	10789.68379153262	0
0	68780	10789.987679184279	1
0	68781	10790.244952582075	0
0	68785	10790.536015221891	1
0	68787	10790.55569306859	2
0	68788	10791.11251843555	1
0	68792	10791.705016853005	2
0	68793	10791.919195587487	1
0	68797	10792.315935365917	2
0	68798	10792.44071689129	1
0	68802	10792.523282097576	2
0	68804	10792.812011760203	3
0	68805	10792.920233974486	2
0	68809	10793.017030268603	3
0	68810	10793.370024058615	2
0	68814	10794.101287368693	3
0	68815	10794.159570861208	2
0	68819	10794.351002254568	3
0	68821	10794.458017397687	4
0	68822	10794.915385076144	3
0	68825	10795.900000461397	2
0	68829	10796.08675406587	3
0	68830	10796.497245237577	2
0	68833	10796.905034780755	1
0	68836	10797.538827078949	0
0	68840	10797.991584259688	1
0	68841	10798.001122057365	0
0	68845	10798.077443696255	1
0	68846	10798.639732288729	0
0	68855	10799.833344764407	1
0	68857	10799.925647300178	2
0	68858	10800.171886809194	1
0	68862	10800.809924626236	2
0	68863	10800.874147971883	1
0	68866	10801.671239218093	0
0	68870	10801.67618532337	1
0	68871	10802.380589941028	0
0	68875	10802.561068416123	1
0	68876	10802.913105349406	0
0	68880	10803.040726394171	1
0	68881	10803.677584691462	0
0	68890	10804.91305444049	1
0	68891	10805.244232930143	0
0	68900	10808.361647898536	1
0	68901	10808.461549710388	0
0	68905	10809.008161867585	1
0	68906	10809.303642364031	0
0	68912	10809.706104850788	1
0	68917	10810.559226683254	2
0	68918	10810.688675355258	1
0	68927	10811.519800581005	2
0	68931	10811.58377065816	3
0	68935	10812.711442396276	2
0	68953	10814.871669066556	1
0	68961	10816.048884713834	0
0	68965	10816.188358422823	1
0	68972	10817.526169992034	2
0	68973	10817.719865745025	1
0	68982	10818.924074396373	2
0	68983	10819.293800868139	1
0	68992	10820.241299874396	2
0	68993	10820.31856836574	1
0	69001	10821.43153617354	0
0	69009	10822.042026323529	1
0	69017	10823.433330936341	2
0	69030	10824.923739295527	3
0	69090	10832.326769103661	4
0	69247	10853.8835307757	5
0	69299	10861.638053663961	4
0	69312	10862.274498741105	5
0	69314	10862.691632354731	6
0	69336	10866.143555775938	5
0	69394	10874.425829075651	4
0	69403	10875.353169434085	5
0	69404	10876.160061073585	4
0	69407	10876.756311674325	3
0	69415	10878.02159562954	2
0	69424	10879.246902319688	3
0	69425	10879.734389458646	2
0	69434	10880.559620532465	3
0	69435	10880.903102624047	2
0	69439	10880.9768211238	3
0	69441	10880.994393219104	4
0	69448	10881.497863265805	5
0	69449	10882.161091032907	4
0	69453	10882.371001100453	5
0	69455	10882.372073126529	6
0	69462	10883.271412603162	7
0	69464	10883.356905874769	8
0	69465	10883.461510835172	7
0	69469	10883.787741629836	8
0	69475	10884.995484058096	7
0	69479	10885.034310674171	8
0	69486	10886.005209567577	9
0	69487	10886.559724929047	8
0	69496	10887.339266043822	9
0	69503	10888.262423099804	10
0	69504	10888.733981521152	9
0	69512	10889.662056217626	8
0	69515	10890.188592431698	7
0	69524	10890.979027120062	8
0	69526	10891.070873423955	9
0	69527	10891.418608507983	8
0	69530	10891.87693882245	7
0	69534	10891.886222257798	8
0	69535	10892.427150930561	7
0	69538	10893.015161948934	6
0	69542	10893.230805830689	7
0	69544	10893.304080704326	8
0	69546	10893.527358509249	9
0	69547	10893.677257331976	8
0	69551	10894.09961666148	9
0	69552	10894.351032797902	8
0	69556	10894.692878938663	9
0	69557	10894.785909926755	8
0	69561	10895.514562237486	9
0	69562	10895.687819782881	8
0	69565	10896.115479278242	7
0	69568	10896.820546878971	6
0	69571	10897.362119935363	5
0	69580	10897.896111144466	6
0	69581	10898.594727577924	5
0	69589	10900.177727192457	4
0	69593	10900.261377565112	5
0	69595	10900.316936239134	6
0	69596	10900.851278918705	5
0	69609	10901.608966221376	6
0	69641	10905.953161699094	5
0	69647	10906.324013764864	6
0	69649	10906.611062849272	7
0	69654	10906.947423438953	8
0	69656	10907.551857085669	9
0	69657	10907.615508633248	8
0	69668	10908.782420049353	9
0	69677	10910.782089981298	8
0	69688	10911.673288801917	9
0	69692	10912.862294024276	8
0	69696	10913.092933811991	9
0	69697	10913.629329119949	8
0	69700	10914.121986285877	7
0	69711	10915.147651860707	8
0	69713	10915.18617156743	9
0	69715	10915.558159603565	10
0	69725	10916.924453474467	11
0	69726	10917.27525364263	10
0	69744	10919.46146979048	9
0	69752	10921.150855487819	8
0	69758	10921.273601342502	9
0	69762	10922.27428872618	8
0	69768	10922.881199335685	9
0	69772	10923.960243324983	8
0	69783	10925.204511923926	9
0	69792	10926.466591357673	8
0	69803	10927.464975547067	9
0	69807	10928.582140236209	8
0	69816	10929.427715824459	9
0	69817	10930.012708971418	8
0	69820	10930.618259796222	7
0	69824	10931.006865630417	8
0	69825	10931.409740290466	7
0	69828	10931.855510940078	6
0	69832	10932.008093889747	7
0	69834	10932.212418004973	8
0	69835	10932.714270836628	7
0	69839	10933.187587967121	8
0	69840	10933.558865254094	7
0	69843	10934.125126940991	6
0	69847	10934.177602590141	7
0	69849	10934.537695249898	8
0	69850	10934.590101684817	7
0	69854	10934.622226723789	8
0	69855	10935.399759644504	7
0	69858	10935.864659404523	6
0	69862	10936.253917914224	7
0	69863	10936.847455320695	6
0	69867	10936.965981244185	7
0	69868	10937.479534378277	6
0	69871	10938.267600857561	5
0	69875	10938.823564620991	6
0	69876	10938.827983323905	5
0	69879	10939.395545102937	4
0	69882	10940.351690601932	3
0	69885	10941.104274994509	2
0	69891	10941.435334974266	3
0	69895	10942.409625361629	2
0	69899	10943.033720757985	3
0	69900	10943.072035937479	2
0	69909	10943.871019759801	3
0	69911	10943.970445642573	4
0	69913	10944.266356091708	5
0	69915	10944.362238823956	6
0	69917	10944.618626212811	7
0	69918	10944.744424428514	6
0	69927	10946.193829604801	7
0	69928	10946.454094472623	6
0	69937	10947.222900959092	7
0	69938	10947.432568146803	6
0	69959	10950.225685987329	7
0	69961	10950.330011690097	8
0	69970	10951.639099308291	7
0	69978	10953.162278488699	6
0	69982	10953.332533019049	7
0	69988	10954.628212580459	6
0	69996	10956.271496303148	5
0	70004	10957.627145659133	4
0	70015	10958.84439683846	5
0	70022	10959.536654665718	6
0	70027	10959.991101091344	7
0	70028	10960.246373558419	6
0	70037	10961.169353001367	7
0	70038	10961.803412871251	6
0	70047	10963.234620155878	7
0	70048	10963.521526954977	6
0	70051	10964.183689139413	5
0	70057	10965.013423166901	6
0	70062	10965.497155848049	7
0	70063	10965.972807031639	6
0	70066	10966.971213632545	5
0	70070	10967.465487049594	6
0	70071	10967.873871075085	5
0	70074	10968.467265469118	4
0	70077	10969.00119645228	3
0	70080	10969.64841763168	2
0	70084	10969.728573339775	3
0	70086	10969.88803694981	4
0	70088	10970.369892717275	5
0	70089	10970.511084500937	4
0	70093	10970.700703598532	5
0	70095	10971.017493656923	6
0	70097	10971.242920944731	7
0	70098	10971.3299469139	6
0	70102	10971.374340122505	7
0	70108	10972.846253613759	6
0	70112	10973.108091440231	7
0	70119	10974.003054441515	8
0	70120	10974.120013761152	7
0	70136	10975.845430208478	8
0	70140	10976.845782019994	7
0	70148	10978.184006484183	6
0	70152	10978.448157197491	7
0	70159	10978.878883104451	8
0	70160	10979.124632142022	7
0	70168	10980.221288541615	6
0	70171	10981.041417334698	5
0	70175	10981.596711741966	6
0	70184	10982.000276185681	7
0	70186	10982.074613289723	8
0	70190	10983.251782004911	7
0	70198	10984.850205927532	6
0	70202	10984.882076438792	7
0	70209	10985.400571705468	8
0	70210	10985.979665108587	7
0	70213	10986.748734467293	6
0	70217	10987.244583512589	7
0	70218	10987.420495201836	6
0	70222	10987.540698750419	7
0	70223	10987.995547557904	6
0	70227	10988.399643763981	7
0	70228	10988.735748340099	6
0	70231	10989.502473953416	5
0	70235	10989.820090422921	6
0	70237	10989.898376533863	7
0	70238	10990.146651910761	6
0	70242	10990.923051104193	7
0	70243	10990.926702347448	6
0	70246	10991.403971069775	5
0	70249	10992.092226065279	4
0	70253	10992.279826529415	5
0	70254	10992.778534407078	4
0	70260	10992.887777362822	5
0	70262	10993.247208562107	6
0	70266	10993.825446926665	5
0	70269	10994.344263011452	4
0	70273	10994.644420488634	5
0	70275	10994.991252254139	6
0	70277	10995.08467535645	7
0	70278	10995.131716207417	6
0	70281	10995.916085137662	5
0	70285	10996.123560939373	6
0	70286	10996.394643681638	5
0	70289	10997.019105288947	4
0	70292	10997.419515315585	3
0	70295	10998.174815944351	2
0	70299	10998.194901374765	3
0	70301	10998.760601239273	4
0	70302	10999.128065053515	3
0	70306	10999.443390149437	4
0	70308	10999.551949769907	5
0	70309	10999.983046793101	4
0	70312	11000.756161037136	3
0	70316	11000.985418282556	4
0	70317	11001.425135994332	3
0	70320	11002.089732357629	2
0	70323	11002.812284764417	1
0	70327	11003.04984397227	2
0	70329	11003.477419874028	3
0	70330	11003.583650727433	2
0	70333	11004.578525726174	1
0	70337	11005.026517943753	2
0	70338	11005.357729469243	1
0	70341	11005.93473738395	0
0	70345	11006.202002315214	1
0	70346	11006.789267343007	0
0	70350	11007.449429847946	1
0	70352	11007.454024259155	2
0	70354	11007.465883820078	3
0	70355	11007.549588329023	2
0	70358	11007.951556368316	1
0	70361	11008.351860570493	0
0	70370	11009.15513420704	1
0	70371	11009.597897571434	0
0	70375	11009.93148862166	1
0	70377	11009.966862292766	2
0	70378	11010.336239381336	1
0	70382	11010.971633234677	2
0	70383	11011.065018423336	1
0	70386	11011.77559914027	0
0	70395	11013.748351069115	1
0	70397	11013.853909467331	2
0	70398	11013.895726143858	1
0	70402	11014.008344314677	2
0	70403	11014.501342867744	1
0	70407	11014.502746471952	2
0	70408	11015.380429852764	1
0	70411	11016.233686625036	0
0	70420	11017.829923240806	1
0	70422	11017.992134318218	2
0	70423	11018.41521407021	1
0	70427	11019.11274750013	2
0	70428	11019.206682812188	1
0	70431	11019.633779534416	0
0	70435	11020.189004628941	1
0	70436	11020.616113617362	0
0	70440	11021.445798840995	1
0	70441	11021.527694484589	0
0	70445	11021.727273336	1
0	70446	11022.273676777396	0
0	70450	11022.358499811936	1
0	70451	11022.736899564599	0
0	70460	11024.443524721585	1
0	70462	11024.599627556763	2
0	70464	11024.639004786065	3
0	70465	11025.006608491876	2
0	70474	11025.56244757976	3
0	70490	11028.155063254405	2
0	70501	11029.502746005674	3
0	70505	11030.258297543339	2
0	70508	11030.747805198114	1
0	70512	11030.807493280563	2
0	70519	11031.259144266963	3
0	70520	11032.155354268541	2
0	70529	11033.286347574415	3
0	70530	11033.636746818916	2
0	70533	11034.624742653658	1
0	70537	11035.154656390212	2
0	70538	11035.418850686373	1
0	70542	11035.868878074253	2
0	70543	11036.393948719809	1
0	70547	11036.449373450726	2
0	70548	11037.226124652447	1
0	70551	11037.93411252696	0
0	70555	11038.372085593534	1
0	70557	11038.43509942015	2
0	70558	11038.63383755248	1
0	70561	11039.523758183671	0
0	70590	11046.654902813683	1
0	70591	11046.935741030742	0
0	70600	11048.37047958433	1
0	70601	11048.725788849156	0
0	70637	11056.264041134673	1
0	70656	11059.489109520441	0
0	70727	11072.001130934498	1
0	70761	11077.242973575044	0
0	70840	11106.94541725404	1
0	70841	11107.468723502999	0
0	70852	11109.142639591258	1
0	70856	11109.935161735221	0
0	70870	11113.767872505389	1
0	70871	11114.329277157506	0
0	70875	11114.616819196825	1
0	70876	11115.054937695667	0
0	70880	11115.422929535899	1
0	70881	11115.622957969552	0
0	70885	11116.180124264248	1
0	70886	11116.28020724198	0
0	70895	11118.107044485451	1
0	70897	11118.486801687135	2
0	70903	11119.390317917353	1
0	70912	11120.105312288032	2
0	70913	11120.634854455542	1
0	70922	11121.699916116702	2
0	70923	11121.886602950858	1
0	70932	11122.809711743663	2
0	70933	11122.993915279738	1
0	70936	11123.92980345913	0
0	70940	11123.937091526824	1
0	70942	11124.68890603522	2
0	70948	11125.564907454343	1
0	70956	11126.956222886655	0
0	70965	11127.924097310924	1
0	70976	11129.800071988178	0
0	70987	11130.728094335632	1
0	70991	11132.155954776256	0
0	71002	11133.285468279276	1
0	71004	11133.394397613778	2
0	71018	11135.831894672493	1
0	71021	11136.248835292848	0
0	71025	11136.368209648956	1
0	71026	11136.962502401712	0
0	71030	11137.214065235204	1
0	71031	11137.681243756058	0
0	71040	11139.240551075168	1
0	71041	11139.778094679219	0
0	71060	11143.407322707661	1
0	71062	11143.757867498082	2
0	71063	11143.914337709258	1
0	71066	11144.876524515255	0
0	71070	11144.917125763046	1
0	71071	11145.459619785604	0
0	71082	11146.016089305739	1
0	71097	11148.506966445826	2
0	71103	11149.81433713803	1
0	71106	11150.579516097707	0
0	71110	11150.597663209151	1
0	71112	11150.610560094484	2
0	71113	11151.487600529603	1
0	71116	11152.091440012715	0
0	71130	11154.28056350612	1
0	71131	11154.794006522285	0
0	71140	11156.108429655323	1
0	71142	11156.124264292572	2
0	71143	11156.25505475938	1
0	71146	11156.986739832076	0
0	71155	11157.958621130164	1
0	71162	11158.705602073286	2
0	71169	11159.619844051024	3
0	71170	11159.712876677348	2
0	71176	11160.280847513377	3
0	71181	11160.448589065187	4
0	71183	11160.512173637764	5
0	71185	11160.866499449654	6
0	71186	11161.287245002224	5
0	71195	11161.975661990159	6
0	71196	11162.741666820434	5
0	71205	11164.026403791766	6
0	71206	11164.513922568013	5
0	71210	11164.905554427692	6
0	71211	11164.982768922274	5
0	71215	11165.441791887434	6
0	71216	11165.580135957313	5
0	71220	11166.114232544354	6
0	71221	11166.259957220567	5
0	71224	11166.850084839085	4
0	71228	11167.218950075704	5
0	71234	11168.296624194992	4
0	71238	11168.7105171338	5
0	71239	11168.943915469035	4
0	71248	11170.556014884929	5
0	71252	11170.827073726007	6
0	71261	11172.250777014367	5
0	71264	11172.875949398962	4
0	71272	11173.753916903851	5
0	71277	11173.86555218851	6
0	71279	11174.081457608668	7
0	71309	11178.999299318983	8
0	71320	11181.250111463361	7
0	71336	11182.448553001112	8
0	71353	11184.590451430292	9
0	71357	11185.710045006008	8
0	71360	11186.490690725039	7
0	71364	11186.68966688016	8
0	71366	11187.085790770748	9
0	71372	11187.87595762892	8
0	71380	11189.435970221435	7
0	71384	11189.826539050271	8
0	71388	11190.243499233618	9
0	71393	11190.601328266419	10
0	71394	11191.408132018869	9
0	71397	11192.221473100384	8
0	71400	11192.942507494775	7
0	71404	11192.995721648475	8
0	71405	11193.625097389914	7
0	71408	11194.025539711466	6
0	71411	11194.859627335494	5
0	71415	11195.331993903642	6
0	71416	11195.367005281033	5
0	71422	11195.993833229609	6
0	71424	11196.100057818628	7
0	71426	11196.126333822223	8
0	71430	11196.943283604853	7
0	71439	11198.028817520674	8
0	71440	11198.360546838096	7
0	71444	11198.777832146027	8
0	71445	11199.003892509476	7
0	71449	11199.458255510661	8
0	71450	11199.823104340513	7
0	71453	11200.530412550387	6
0	71456	11201.013557679602	5
0	71460	11201.425450633811	6
0	71462	11201.718390664193	7
0	71463	11201.757761242171	6
0	71466	11202.237188466755	5
0	71470	11202.318355279709	6
0	71471	11203.054734565108	5
0	71475	11203.408426407131	6
0	71476	11203.643786398345	5
0	71480	11204.071502808398	6
0	71481	11204.226874957024	5
0	71484	11205.197571821441	4
0	71492	11206.174378958973	3
0	71496	11206.237976221525	4
0	71502	11206.634705015758	5
0	71510	11207.612295611706	6
0	71511	11208.230076459353	5
0	71514	11208.784690189944	4
0	71523	11209.858173704998	5
0	71524	11210.423482628098	4
0	71533	11211.465678161999	5
0	71534	11211.538586947113	4
0	71538	11211.608216507491	5
0	71539	11212.431068002317	4
0	71542	11212.887416059269	3
0	71546	11213.123234878455	4
0	71548	11213.287406672191	5
0	71550	11213.410901923069	6
0	71552	11213.430847598912	7
0	71553	11213.793663032983	6
0	71556	11214.349828470383	5
0	71560	11214.707410187223	6
0	71562	11214.960488012484	7
0	71563	11215.019372003783	6
0	71566	11215.900662268863	5
0	71569	11216.716027642718	4
0	71572	11217.424125931343	3
0	71578	11217.910509369642	4
0	71583	11218.090857200059	5
0	71585	11218.106782533346	6
0	71586	11218.762089854549	5
0	71590	11218.791214971433	6
0	71591	11219.240877363482	5
0	71597	11219.657082952139	6
0	71599	11219.705695425245	7
0	71604	11220.321835393426	8
0	71606	11220.658872413968	9
0	71607	11220.738360168063	8
0	71615	11222.46881020281	7
0	71618	11223.04195446556	6
0	71626	11224.738648172725	5
0	71635	11226.326630343769	6
0	71636	11226.367216971959	5
0	71640	11226.38406318561	6
0	71644	11226.685024019661	7
0	71648	11227.438680501539	6
0	71652	11227.511917982437	7
0	71656	11227.729421412348	8
0	71661	11228.31476975413	9
0	71662	11228.568729174301	8
0	71666	11228.60274062696	9
0	71668	11228.735211477706	10
0	71669	11229.078492946714	9
0	71677	11230.388714177325	8
0	71683	11230.609077381263	9
0	71688	11231.834197504666	10
0	71689	11231.933088638704	9
0	71692	11232.38243984806	8
0	71698	11232.725555866745	9
0	71703	11232.925585422265	10
0	71704	11233.565430876404	9
0	71713	11234.889024685383	10
0	71714	11234.909301674018	9
0	71717	11235.419283273934	8
0	71725	11236.722633255857	7
0	71734	11238.10597935406	8
0	71735	11238.182081749036	7
0	71739	11238.476253005425	8
0	71741	11238.86097347277	9
0	71742	11238.993915721613	8
0	71746	11239.318941547213	9
0	71758	11240.597181897496	10
0	71762	11240.722389101417	11
0	71766	11241.929267113262	10
0	71769	11242.640350673699	9
0	71773	11242.670870485414	10
0	71774	11243.075415972087	9
0	71777	11243.551033242119	8
0	71781	11243.797663354272	9
0	71782	11244.102498657235	8
0	71785	11244.544093413071	7
0	71789	11244.832069401757	8
0	71791	11245.242170237543	9
0	71792	11245.301318656306	8
0	71796	11245.57400124118	9
0	71797	11245.895178365826	8
0	71800	11246.736932548999	7
0	71803	11247.290542110128	6
0	71807	11247.420452238338	7
0	71808	11247.884009137123	6
0	71812	11248.164711750314	7
0	71813	11248.482305390087	6
0	71822	11249.76181727122	7
0	71824	11249.969945437705	8
0	71825	11250.043639620279	7
0	71831	11250.235886146981	8
0	71836	11250.675049701016	9
0	71837	11251.184967107118	8
0	71845	11252.594699783183	7
0	71849	11252.803106081224	8
0	71856	11253.480655724839	9
0	71857	11253.57548645891	8
0	71861	11253.845753288212	9
0	71867	11255.213339143644	8
0	71870	11255.620286763345	7
0	71876	11256.195975047187	8
0	71878	11256.326135672567	9
0	71882	11257.078350511637	8
0	71890	11258.136499590451	7
0	71896	11258.202661374421	8
0	71898	11258.360465323114	9
0	71903	11259.490902377894	10
0	71904	11259.54143747103	9
0	71908	11259.806032183546	10
0	71910	11260.018948339362	11
0	71911	11260.102837191267	10
0	71922	11261.051860506197	11
0	71941	11262.960217374057	12
0	72003	11271.380719897565	13
0	72026	11274.718530569418	14
0	72027	11274.763498779177	13
0	72051	11277.297456892849	14
0	72052	11277.885540366336	13
0	72061	11278.39678975649	14
0	72067	11279.4833398205	13
0	72070	11280.001683777408	12
0	72074	11280.109804225107	13
0	72075	11280.700780913583	12
0	72084	11281.784547057712	13
0	72085	11282.130853536935	12
0	72088	11282.848147527571	11
0	72092	11283.186311539857	12
0	72093	11283.765602417034	11
0	72096	11284.392257700558	10
0	72100	11284.567497564659	11
0	72101	11285.374884563242	10
0	72104	11285.889469325845	9
0	72108	11285.971027709565	10
0	72109	11286.368696348811	9
0	72113	11286.449491499412	10
0	72114	11287.233596822037	9
0	72118	11287.9526055955	10
0	72119	11288.206443690299	9
0	72123	11288.368132825415	10
0	72124	11288.624579027458	9
0	72128	11288.836377006929	10
0	72129	11289.607023567124	9
0	72133	11289.648201861	10
0	72139	11291.164970339438	9
0	72145	11291.451925489722	10
0	72149	11293.036956147733	9
0	72157	11294.337609878298	8
0	72161	11294.493463486148	9
0	72167	11295.708164335996	8
0	72173	11296.142942118581	9
0	72178	11296.561971546876	10
0	72179	11297.127587707642	9
0	72182	11297.920791679456	8
0	72191	11298.986401821822	9
0	72192	11299.254738655895	8
0	72196	11299.414425830102	9
0	72198	11299.522873416604	10
0	72199	11300.029955632076	9
0	72208	11301.10224421654	10
0	72210	11301.113281721671	11
0	72211	11301.817870905459	10
0	72224	11304.150995835545	9
0	72228	11304.157691783638	10
0	72234	11305.561088453861	9
0	72242	11307.495922082127	8
0	72251	11308.553656947307	9
0	72252	11308.695320957783	8
0	72255	11309.359025017475	7
0	72263	11309.768909255415	8
0	72268	11310.325336723113	9
0	72272	11311.168482472771	8
0	72281	11312.426901015898	9
0	72282	11312.519009979092	8
0	72291	11313.228391392592	9
0	72292	11313.793557766382	8
0	72301	11314.401635837867	9
0	72312	11316.121175204334	8
0	72315	11316.832735333801	7
0	72323	11317.051886231543	8
0	72333	11319.014421039281	9
0	72335	11319.215208339507	10
0	72342	11320.138995833195	11
0	72347	11320.716291954993	12
0	72358	11322.359161019023	11
0	72367	11323.747047668196	12
0	72368	11323.885335232527	11
0	72371	11324.58385597819	10
0	72377	11324.800880791011	11
0	72384	11325.58229757957	12
0	72389	11325.985171106745	13
0	72391	11326.129778478699	14
0	72402	11327.807292392176	13
0	72405	11328.391420676072	12
0	72409	11328.526776861212	13
0	72410	11329.348508972513	12
0	72414	11329.740929641094	13
0	72415	11330.242776285183	12
0	72418	11331.031412366337	11
0	72422	11331.04241551556	12
0	72424	11331.288054652461	13
0	72425	11331.691019371456	12
0	72429	11331.705326073937	13
0	72431	11332.537084141263	14
0	72432	11332.602461587895	13
0	72435	11333.144457810536	12
0	72439	11333.707400543043	13
0	72440	11333.816354566744	12
0	72444	11334.260083027395	13
0	72445	11334.433763743403	12
0	72449	11334.541206024696	13
0	72451	11335.011300346354	14
0	72452	11335.288605777478	13
0	72455	11336.28177782118	12
0	72458	11336.697758356553	11
0	72462	11336.878633833454	12
0	72464	11336.93027378006	13
0	72465	11337.623054567563	12
0	72469	11338.045287277242	13
0	72470	11338.564170789045	12
0	72473	11339.0655295586	11
0	72477	11339.49557333125	12
0	72484	11340.372063560262	13
0	72485	11340.485812280958	12
0	72493	11342.331645312652	11
0	72497	11342.621766770857	12
0	72498	11343.066636253221	11
0	72502	11343.319805085428	12
0	72516	11344.540441630707	13
0	72523	11345.074680281299	14
0	72528	11345.376857575156	15
0	72529	11346.032205042223	14
0	72532	11346.525863357893	13
0	72536	11346.813019112836	14
0	72537	11346.992516955015	13
0	72540	11347.81226715695	12
0	72544	11348.049859542549	13
0	72545	11348.748757314988	12
0	72554	11349.416487041551	13
0	72555	11350.140129298603	12
0	72563	11351.614531017633	11
0	72567	11352.22106650134	12
0	72568	11352.49340807691	11
0	72572	11352.558680070128	12
0	72573	11353.248637033559	11
0	72576	11354.083526821646	10
0	72579	11354.597967192835	9
0	72583	11354.926389978824	10
0	72584	11355.062336742298	9
0	72587	11355.698610285416	8
0	72591	11355.7751163698	9
0	72593	11356.168267846564	10
0	72594	11356.524620199788	9
0	72598	11356.97657329061	10
0	72599	11357.337968897938	9
0	72603	11357.390310298468	10
0	72605	11357.512685778137	11
0	72606	11357.924512526418	10
0	72609	11358.508430803685	9
0	72612	11358.982500850248	8
0	72615	11359.435342976569	7
0	72619	11359.723434307285	8
0	72620	11360.364259317309	7
0	72623	11361.277963680053	6
0	72627	11361.293321305752	7
0	72629	11361.772084222448	8
0	72630	11361.988581912011	7
0	72633	11362.598997708388	6
0	72636	11363.091664864287	5
0	72640	11363.870215156136	6
0	72641	11364.046306619678	5
0	72644	11364.629234467518	4
0	72647	11365.102946899483	3
0	72651	11365.157417858064	4
0	72653	11365.369396812762	5
0	72654	11365.78438297927	4
0	72657	11366.376201406751	3
0	72661	11366.438514498073	4
0	72663	11366.505605426536	5
0	72665	11366.990481434062	6
0	72666	11367.133954320127	5
0	72670	11367.535842576432	6
0	72671	11367.785723820539	5
0	72675	11368.311043529925	6
0	72676	11368.687200449198	5
0	72679	11369.140608874639	4
0	72682	11370.089009417012	3
0	72686	11370.107476900958	4
0	72688	11370.215786542912	5
0	72689	11370.68933280909	4
0	72692	11371.625135270809	3
0	72696	11371.780033627258	4
0	72698	11371.803528522687	5
0	72699	11372.612138817157	4
0	72702	11373.118083190848	3
0	72706	11373.464470776537	4
0	72707	11373.577897499758	3
0	72711	11374.230825329425	4
0	72713	11374.440507762281	5
0	72714	11374.473333892622	4
0	72717	11375.353656544653	3
0	72721	11375.654536434549	4
0	72723	11375.910509890626	5
0	72724	11375.990673025442	4
0	72728	11376.567766853954	5
0	72729	11376.713702375233	4
0	72732	11377.71076427789	3
0	72735	11378.383971472295	2
0	72739	11378.434827474652	3
0	72741	11378.452637923674	4
0	72743	11378.624458569335	5
0	72744	11379.059840718914	4
0	72747	11379.867377290154	3
0	72751	11379.991770475559	4
0	72753	11380.222236028046	5
0	72754	11380.315509084031	4
0	72757	11381.137723781332	3
0	72760	11381.697853449057	2
0	72764	11382.121863089714	3
0	72765	11382.400159251108	2
0	72769	11383.022654514804	3
0	72770	11383.10173951604	2
0	72773	11383.549235146237	1
0	72777	11383.801626991704	2
0	72778	11384.238140301803	1
0	72782	11384.498721857096	2
0	72784	11384.696377231915	3
0	72785	11385.008623114951	2
0	72789	11385.338741211241	3
0	72790	11385.622420589743	2
0	72794	11386.227888676405	3
0	72795	11386.548912653165	2
0	72799	11387.069053597593	3
0	72800	11387.172116058437	2
0	72803	11387.626469216008	1
0	72806	11388.385823292077	0
0	72820	11390.363639506818	1
0	72822	11390.584052277701	2
0	72823	11390.817088806903	1
0	72826	11391.4378619675	0
0	72830	11391.805341451012	1
0	72831	11392.351777905965	0
0	72835	11392.73083916175	1
0	72837	11392.914748335633	2
0	72838	11393.040444664558	1
0	72841	11393.749419813551	0
0	72850	11394.659552777793	1
0	72854	11395.141218597955	2
0	72859	11395.605186605012	3
0	72860	11396.429638047301	2
0	72864	11396.522522218715	3
0	72866	11396.833783859541	4
0	72868	11396.910209169812	5
0	72869	11396.976988137251	4
0	72878	11397.644637148598	5
0	72880	11397.904002173091	6
0	72882	11398.05355681497	7
0	72883	11398.397315432055	6
0	72887	11398.558419230196	7
0	72893	11399.784717644488	6
0	72897	11399.820782986374	7
0	72899	11400.375642226555	8
0	72900	11400.612953889852	7
0	72903	11401.031042520951	6
0	72906	11401.74180243124	5
0	72909	11402.599066092556	4
0	72912	11403.120351372862	3
0	72915	11403.596880143851	2
0	72919	11404.038395208956	3
0	72920	11404.325537914101	2
0	72924	11404.326322686402	3
0	72926	11404.682069099933	4
0	72928	11405.063212019646	5
0	72929	11405.252763513911	4
0	72933	11405.304179259019	5
0	72935	11405.853656949209	6
0	72937	11406.231500028602	7
0	72938	11406.238180010735	6
0	72942	11406.440960843138	7
0	72943	11406.813938621075	6
0	72946	11407.280843808006	5
0	72949	11407.729995886951	4
0	72953	11407.937964345218	5
0	72955	11408.138940290985	6
0	72956	11408.574160351481	5
0	72960	11408.838801214698	6
0	72961	11409.539016378734	5
0	72965	11409.613740653133	6
0	72967	11409.981552753114	7
0	72968	11410.324328515462	6
0	72972	11410.890322133637	7
0	72973	11410.896053777465	6
0	72976	11411.616663519635	5
0	72979	11412.543194939585	4
0	72982	11413.381862076062	3
0	72986	11413.524211709818	4
0	72988	11413.878016840427	5
0	72989	11414.179879766206	4
0	72993	11414.401941619149	5
0	72994	11414.586908793744	4
0	72997	11415.044942205554	3
0	73001	11415.577584596693	4
0	73002	11415.651212018976	3
0	73006	11415.695605066755	4
0	73007	11416.117654900081	3
0	73010	11416.570073123244	2
0	73014	11416.617645907005	3
0	73015	11416.993313678974	2
0	73019	11417.240138936926	3
0	73020	11417.866496286416	2
0	73023	11418.720182551737	1
0	73026	11419.250125075844	0
0	73030	11419.465412083651	1
0	73031	11419.667201053738	0
0	73035	11419.931263072048	1
0	73036	11420.282964798264	0
0	73040	11420.79164257014	1
0	73047	11421.672267155982	2
0	73049	11421.81009673634	3
0	73050	11421.812189140791	2
0	73059	11422.496065547351	3
0	73061	11422.859251724791	4
0	73062	11422.870850128136	3
0	73070	11423.368779253886	4
0	73075	11423.756616825967	5
0	73119	11430.107594136255	4
0	73125	11430.471180285744	5
0	73129	11431.372134965206	4
0	73138	11432.281825141469	5
0	73140	11432.571717932979	6
0	73141	11432.897358034565	5
0	73150	11433.626681408047	6
0	73156	11435.009666428962	5
0	73165	11435.798131200197	6
0	73167	11435.855431077778	7
0	73168	11435.971576478999	6
0	73171	11436.530596457204	5
0	73182	11437.286526357829	6
0	73186	11438.714993012106	5
0	73197	11439.936981622253	6
0	73202	11440.382909873492	7
0	73208	11441.41109716116	6
0	73219	11442.602548780695	7
0	73238	11445.121363064754	6
0	73244	11445.301112927495	7
0	73249	11446.405927809892	8
0	73250	11446.539070032877	7
0	73259	11447.454762013261	8
0	73261	11447.823557714184	9
0	73262	11447.976380360327	8
0	73265	11448.840836894713	7
0	73268	11449.698273794321	6
0	73272	11450.048547790216	7
0	73273	11450.098415962435	6
0	73277	11450.138024152952	7
0	73278	11450.715348684197	6
0	73282	11451.550530874973	7
0	73283	11451.582393626976	6
0	73286	11452.159030931504	5
0	73292	11452.253309450347	6
0	73294	11452.28915378585	7
0	73299	11453.33446963353	8
0	73300	11453.659594972167	7
0	73308	11455.445749720387	6
0	73311	11456.293305933909	5
0	73315	11456.305270332585	6
0	73317	11456.32670823914	7
0	73321	11456.76178013782	8
0	73326	11457.011734472039	9
0	73327	11457.737819357277	8
0	73335	11459.25962291692	7
0	73344	11460.260188543385	8
0	73345	11460.615311687129	7
0	73356	11462.107187417712	8
0	73415	11470.994526167787	7
0	73423	11471.708776161515	8
0	73433	11472.820134287588	9
0	73472	11478.838248010832	8
0	73488	11480.428551563421	9
0	73497	11482.306396238567	8
0	73500	11482.743697511466	7
0	73504	11483.292889648133	8
0	73505	11483.378328534184	7
0	73513	11484.478674766716	6
0	73519	11484.726639423574	7
0	73521	11484.921735714386	8
0	73526	11485.136689352849	9
0	73527	11485.565953867991	8
0	73530	11486.276517987499	7
0	73534	11486.93856305759	8
0	73535	11486.942924591821	7
0	73539	11487.245721504526	8
0	73540	11487.481188884393	7
0	73543	11488.112119350225	6
0	73546	11488.576375728768	5
0	73550	11488.953551142126	6
0	73552	11488.965226260443	7
0	73553	11489.235222893131	6
0	73557	11489.273485593012	7
0	73559	11489.28525487465	8
0	73560	11489.675027616431	7
0	73564	11489.70359272856	8
0	73565	11490.419276760208	7
0	73568	11490.884670993981	6
0	73571	11491.827712750264	5
0	73574	11492.238114887398	4
0	73578	11492.329135741126	5
0	73580	11493.001556189885	6
0	73581	11493.116350974996	5
0	73584	11494.079565305651	4
0	73588	11494.115752803199	5
0	73590	11494.566021265536	6
0	73591	11495.031121189908	5
0	73595	11495.230492304626	6
0	73596	11495.599551329917	5
0	73599	11496.471101974944	4
0	73602	11497.300200350598	3
0	73605	11497.957787819129	2
0	73608	11498.775945524281	1
0	73611	11499.458278760096	0
0	73615	11499.773533546362	1
0	73617	11499.826334607864	2
0	73618	11500.070212666798	1
0	73622	11500.622750457898	2
0	73623	11500.742762180339	1
0	73626	11501.583878192646	0
0	73630	11501.693248379034	1
0	73632	11501.837737949041	2
0	73634	11501.850274395785	3
0	73636	11502.014637396579	4
0	73637	11502.365291166227	3
0	73640	11502.903891425734	2
0	73644	11503.36507184042	3
0	73645	11503.471228176929	2
0	73649	11503.571139098245	3
0	73650	11503.915310709566	2
0	73654	11504.096656718705	3
0	73655	11504.782498382745	2
0	73659	11504.993712532353	3
0	73661	11505.198590775888	4
0	73662	11505.444432605119	3
0	73666	11505.696715427117	4
0	73667	11506.32415839789	3
0	73670	11506.726023119749	2
0	73674	11506.901909919342	3
0	73676	11506.951922624913	4
0	73677	11507.521543237302	3
0	73681	11508.025960352101	4
0	73683	11508.274046637958	5
0	73684	11508.313298517573	4
0	73687	11508.860843539299	3
0	73690	11509.805738914633	2
0	73694	11510.198315963368	3
0	73695	11510.436979349671	2
0	73699	11510.512366514114	3
0	73701	11510.570452143255	4
0	73702	11511.018924281063	3
0	73706	11511.222239768788	4
0	73707	11511.806177590989	3
0	73710	11512.651406517687	2
0	73714	11512.950108980605	3
0	73716	11513.246092624533	4
0	73717	11513.463111268139	3
0	73720	11514.19483539757	2
0	73723	11515.089766979978	1
0	73727	11515.413020190844	2
0	73729	11515.747124155761	3
0	73730	11515.857454580829	2
0	73734	11516.754087161819	3
0	73735	11516.754957526472	2
0	73739	11516.799713086479	3
0	73741	11517.050898530578	4
0	73742	11517.560654947363	3
0	73746	11517.572960535142	4
0	73747	11518.219181438411	3
0	73751	11518.478965710041	4
0	73752	11518.747755747024	3
0	73756	11518.878367890213	4
0	73757	11519.325593599506	3
0	73760	11519.801709093355	2
0	73763	11520.652749479903	1
0	73767	11521.086785381509	2
0	73768	11521.272373811962	1
0	73772	11521.539497504871	2
0	73773	11521.891339285361	1
0	73777	11522.514176537219	2
0	73778	11522.825529393848	1
0	73782	11522.918667534812	2
0	73784	11523.669486404979	3
0	73785	11523.680448274469	2
0	73789	11523.921311328277	3
0	73790	11524.59945898472	2
0	73793	11525.049975917876	1
0	73802	11526.004960614901	2
0	73803	11526.544319818603	1
0	73807	11527.295529856497	2
0	73808	11527.325443231655	1
0	73814	11527.803326326487	2
0	73819	11528.375527920841	3
0	73821	11528.598914952144	4
0	73822	11528.91419162435	3
0	73831	11530.446998856008	4
0	73832	11530.466548919226	3
0	73835	11530.98994277135	2
0	73844	11531.828933030655	3
0	73845	11532.636153669623	2
0	73848	11533.507293434455	1
0	73851	11534.15758898376	0
0	73870	11537.080129372296	1
0	73871	11537.448837155359	0
0	73875	11537.461465180877	1
0	73879	11538.227441309963	2
0	73881	11538.363247400269	3
0	73886	11538.978649009378	4
0	73887	11539.285396712435	3
0	73913	11542.202150856763	4
0	73942	11547.581996304658	3
0	73953	11548.867260932895	4
0	73962	11550.786984074511	3
0	73970	11552.180578733352	2
0	73979	11553.333440505525	3
0	73980	11553.59914231773	2
0	73989	11554.467383788593	3
0	73991	11554.732515616272	4
0	73992	11554.832345877844	3
0	74000	11556.035748636793	2
0	74009	11557.137468322704	3
0	74011	11557.245562443031	4
0	74012	11557.343756296882	3
0	74018	11557.526137003947	4
0	74022	11558.894102295559	3
0	74030	11560.758372578887	2
0	74038	11561.551849567764	3
0	74043	11562.412817734522	4
0	74047	11563.384169953807	3
0	74055	11564.590616613744	2
0	74063	11566.159735847056	1
0	74072	11567.608246839302	2
0	74073	11567.993016240025	1
0	74082	11568.945320040443	2
0	74083	11569.40333634012	1
0	74091	11570.93545913736	0
0	74125	11575.674580311902	1
0	74126	11576.27399496555	0
0	74132	11577.017007324574	1
0	74136	11577.520315269964	0
0	74150	11579.220953561761	1
0	74157	11580.131844695816	2
0	74158	11580.536012192783	1
0	74167	11581.40730736951	2
0	74168	11581.760713055045	1
0	74174	11582.180177117926	2
0	74178	11583.453863018439	1
0	74182	11583.911847503906	2
0	74189	11584.748238532164	3
0	74190	11585.228731471314	2
0	74199	11586.242997439286	3
0	74200	11586.681238937439	2
0	74208	11587.847746202458	1
0	74214	11588.387494331148	2
0	74218	11589.356127475357	1
0	74221	11590.233227318168	0
0	74225	11590.254208691236	1
0	74227	11590.987265053517	2
0	74228	11591.048931003237	1
0	74231	11591.473385906327	0
0	74235	11591.898601206116	1
0	74236	11592.429225188415	0
0	74245	11593.608089442417	1
0	74246	11594.068232745951	0
0	74255	11594.975136440091	1
0	74257	11595.096934423627	2
0	74258	11595.317594953372	1
0	74262	11595.393595351357	2
0	74263	11596.033114497342	1
0	74266	11596.551330664453	0
0	74270	11597.046007631933	1
0	74271	11597.323829387479	0
0	74280	11598.892967881387	1
0	74281	11599.575947579451	0
0	74290	11601.508703954864	1
0	74291	11601.625169511716	0
0	74295	11602.186830822841	1
0	74296	11602.427538558486	0
0	74305	11603.534137154446	1
0	74306	11603.735645869477	0
0	74315	11606.186014902529	1
0	74317	11606.374326979682	2
0	74318	11606.895685828926	1
0	74321	11607.502955144906	0
0	74330	11608.716794121347	1
0	74331	11609.256142277846	0
0	74340	11610.817245111167	1
0	74341	11611.426180608838	0
0	74350	11613.984823884607	1
0	74351	11614.424375113237	0
0	74360	11617.227514215907	1
0	74361	11617.328634817535	0
0	74370	11618.152448767371	1
0	74372	11618.258780026063	2
0	74373	11618.56188991419	1
0	74376	11619.172880263906	0
0	74380	11619.64907001465	1
0	74382	11619.832349122596	2
0	74383	11620.003653570684	1
0	74386	11620.903190582944	0
0	74400	11623.648414848169	1
0	74402	11623.716433117159	2
0	74403	11624.390790838259	1
0	74409	11624.80560736251	2
0	74413	11625.598803937598	1
0	74421	11627.071550826286	0
0	74425	11627.288487567483	1
0	74427	11627.385725710678	2
0	74428	11627.476710432372	1
0	74432	11627.789346463809	2
0	74433	11628.146523207449	1
0	74436	11629.134836551197	0
0	74440	11629.320343792914	1
0	74441	11629.806042424286	0
0	74450	11631.370779147012	1
0	74451	11631.507153660351	0
0	74455	11631.551873887857	1
0	74456	11632.210555954756	0
0	74460	11632.639550590659	1
0	74461	11632.993635319698	0
0	74465	11633.005043357613	1
0	74466	11633.50757260403	0
0	74470	11633.534524304462	1
0	74471	11634.427947123268	0
0	74480	11636.42670764553	1
0	74481	11637.04819193489	0
0	74490	11637.871147839049	1
0	74491	11638.340116839495	0
0	74495	11638.604387279652	1
0	74496	11639.232251615787	0
0	74500	11639.322459172057	1
0	74501	11639.91876570048	0
0	74505	11639.998557606692	1
0	74506	11640.784265857946	0
0	74510	11641.358633263382	1
0	74511	11641.531740349123	0
0	74575	11667.170574235849	1
0	74576	11667.921890433469	0
0	74600	11680.154950661346	1
0	74606	11681.284480363881	0
0	74610	11681.464675078987	1
0	74616	11682.477594839321	0
0	74635	11687.894628236138	1
0	74636	11688.592852113452	0
0	74645	11689.639911735994	1
0	74646	11689.909322100515	0
0	74670	11692.963020624829	1
0	74671	11693.457254698652	0
0	74700	11709.90159458298	1
0	74701	11710.496602561589	0
0	74710	11711.844347362781	1
0	74717	11712.27653348804	2
0	74723	11713.644853317444	1
0	74732	11714.565987738294	2
0	74733	11715.059861754891	1
0	74742	11716.19492554541	2
0	74743	11716.720469709704	1
0	74751	11718.127103255442	0
0	74757	11718.306712674887	1
0	74761	11719.334692282867	0
0	74780	11722.571070020476	1
0	74781	11723.020590476987	0
0	74790	11724.063529106395	1
0	74791	11724.404672616316	0
0	74800	11725.526071748568	1
0	74801	11726.083766056286	0
0	74810	11726.78290756582	1
0	74811	11727.498812035858	0
0	74825	11729.596241448766	1
0	74831	11730.419005579847	0
0	74835	11730.648616370598	1
0	74836	11731.174843677619	0
0	74850	11734.289588387413	1
0	74852	11734.449439231887	2
0	74853	11734.475676454282	1
0	74861	11735.521036745426	0
0	74865	11735.606695091363	1
0	74871	11736.529448417159	0
0	74885	11738.77060150666	1
0	74897	11740.028512167347	2
0	74918	11743.854028091976	1
0	74926	11744.787413280807	0
0	74935	11745.94905426916	1
0	74936	11746.294198419317	0
0	74942	11746.575129282962	1
0	74946	11747.698341651331	0
0	74950	11747.826459706393	1
0	74952	11748.026879212787	2
0	74953	11748.182355405134	1
0	74957	11748.21628831041	2
0	74959	11748.59609447279	3
0	74961	11748.648962037033	4
0	74962	11748.866618841677	3
0	74966	11749.276490711319	4
0	74967	11749.694256221154	3
0	74971	11750.08881087185	4
0	74973	11750.320975884879	5
0	74974	11750.66401326817	4
0	74977	11751.223862626473	3
0	74980	11751.705569373746	2
0	74983	11752.164540565875	1
0	74986	11752.966584594012	0
0	74995	11754.620045442153	1
0	74997	11754.982726780632	2
0	74999	11755.241067723166	3
0	75000	11755.267052144923	2
0	75004	11756.111861025655	3
0	75005	11756.201230616954	2
0	75008	11757.021984203945	1
0	75012	11757.159618049372	2
0	75014	11757.339306414466	3
0	75015	11757.443910658446	2
0	75018	11758.280029212025	1
0	75022	11759.121996552388	2
0	75023	11759.227157745271	1
0	75027	11759.511171442325	2
0	75028	11760.100711886299	1
0	75032	11760.648770260862	2
0	75033	11760.815099377831	1
0	75037	11760.880429061294	2
0	75038	11761.549609078554	1
0	75042	11761.831107813204	2
0	75043	11761.969026032317	1
0	75047	11762.068854287422	2
0	75048	11762.484391476441	1
0	75051	11763.39444331312	0
0	75065	11765.8829290719	1
0	75066	11766.046810479276	0
0	75070	11766.635535471597	1
0	75071	11766.745272762701	0
0	75075	11766.925740760574	1
0	75076	11767.151242141519	0
0	75080	11767.609203406888	1
0	75081	11767.847888127994	0
0	75095	11770.079041065011	1
0	75107	11771.479787221506	2
0	75109	11771.616933946712	3
0	75110	11771.760027651128	2
0	75119	11772.440435005647	3
0	75121	11772.471167311282	4
0	75122	11773.004443213448	3
0	75135	11774.948663807812	2
0	75138	11775.353017484409	1
0	75147	11776.872770383968	2
0	75148	11777.128461054725	1
0	75156	11778.130266560906	0
0	75165	11780.626144716403	1
0	75172	11781.174080972361	2
0	75173	11781.856782323461	1
0	75176	11782.57036924587	0
0	75182	11783.074166527744	1
0	75186	11783.805883587444	0
0	75190	11784.082377225966	1
0	75191	11784.69674045822	0
0	75200	11785.98458690504	1
0	75201	11786.283290201368	0
0	75205	11786.316429533008	1
0	75206	11786.905975533778	0
0	75215	11789.113776403865	1
0	75216	11789.205739429096	0
0	75222	11790.043980291304	1
0	75227	11790.241197666093	2
0	75229	11790.410218536201	3
0	75230	11790.622840213791	2
0	75238	11792.217151546121	1
0	75242	11792.322001341836	2
0	75243	11792.70192253349	1
0	75251	11794.029821257542	0
0	75257	11794.547046650517	1
0	75262	11794.71163921584	2
0	75264	11794.775681486118	3
0	75265	11795.396302047015	2
0	75273	11796.69904961513	1
0	75277	11797.321913270808	2
0	75278	11797.342176842379	1
0	75282	11797.388338803667	2
0	75283	11797.838565586756	1
0	75292	11798.505237258702	2
0	75294	11798.67849003038	3
0	75295	11799.306341457569	2
0	75298	11799.963794740072	1
0	75302	11800.350592039476	2
0	75303	11800.378276777376	1
0	75306	11800.982559701164	0
0	75310	11801.440609659585	1
0	75311	11801.473787707898	0
0	75315	11801.888463580341	1
0	75316	11802.112610439087	0
0	75325	11803.001225982437	1
0	75326	11803.875659203262	0
0	75345	11809.185708958905	1
0	75346	11809.283345545146	0
0	75422	11850.290823527046	1
0	75426	11850.792957249773	0
0	75430	11850.796155352556	1
0	75431	11851.366946135112	0
0	75435	11852.214798365912	1
0	75436	11852.27120497378	0
0	75445	11853.075024071637	1
0	75446	11853.762836483796	0
0	75455	11854.781920043368	1
0	75456	11855.237379397941	0
0	75475	11859.329422956328	1
0	75476	11859.991222331614	0
0	75482	11860.715864000996	1
0	75486	11861.419368505	0
0	75490	11862.047972147719	1
0	75491	11862.246575238357	0
0	75495	11862.282283476754	1
0	75496	11862.657708875497	0
0	75502	11863.286218124447	1
0	75506	11864.12561917681	0
0	75515	11865.141791323941	1
0	75517	11865.287653376088	2
0	75518	11865.975534531183	1
0	75526	11867.343040392769	0
0	75530	11867.388467890848	1
0	75537	11868.102834061924	2
0	75538	11868.621723814716	1
0	75541	11869.061718766147	0
0	75565	11877.052673743319	1
0	75566	11877.304786993827	0
0	75580	11879.637084897124	1
0	75581	11879.673483675389	0
0	75602	11882.092978520312	1
0	75606	11883.674670133112	0
0	75614	11884.184921082969	1
0	75621	11885.76085670835	0
0	75630	11886.569489351496	1
0	75639	11887.514232320111	2
0	75663	11891.308471894196	1
0	75677	11893.300934597446	2
0	75678	11893.636450177596	1
0	75684	11894.047340352851	2
0	75689	11894.201094293864	3
0	75690	11894.462649754693	2
0	75693	11894.98146102715	1
0	75696	11895.876954946832	0
0	75700	11896.676577421052	1
0	75701	11896.872169422011	0
0	75715	11899.476242661869	1
0	75716	11900.139480400618	0
0	75720	11900.915074281069	1
0	75721	11901.09247024201	0
0	75725	11901.233567787832	1
0	75726	11901.495071311408	0
0	75735	11902.328959429361	1
0	75736	11902.965504103971	0
0	75740	11903.160107657621	1
0	75741	11903.965251898093	0
0	75750	11904.733514095668	1
0	75752	11905.247428902279	2
0	75753	11905.503431903034	1
0	75761	11907.161541439103	0
0	75767	11907.311581167348	1
0	75769	11907.718094181177	2
0	75774	11908.175930808413	3
0	75775	11908.445443193404	2
0	75778	11909.139681198936	1
0	75782	11909.373283395072	2
0	75783	11909.607579271471	1
0	75787	11909.624948712712	2
0	75789	11909.884416182141	3
0	75790	11910.233027590833	2
0	75793	11910.825092924874	1
0	75796	11911.509961774269	0
0	75800	11911.69187260809	1
0	75802	11912.16812102107	2
0	75803	11912.244124883994	1
0	75807	11912.656771118118	2
0	75808	11912.986391627205	1
0	75811	11913.5598035441	0
0	75815	11913.824361524894	1
0	75816	11914.256297805834	0
0	75830	11917.56210999137	1
0	75836	11918.247806138827	0
0	75840	11918.544333759349	1
0	75841	11919.016154357421	0
0	75845	11919.020030691249	1
0	75847	11919.15673502247	2
0	75849	11919.641001522974	3
0	75850	11919.683094931583	2
0	75854	11920.316377436653	3
0	75855	11920.330960231324	2
0	75859	11920.345655358783	3
0	75861	11920.491503064179	4
0	75862	11921.08852901189	3
0	75866	11921.631902594391	4
0	75867	11921.871870793266	3
0	75870	11922.797592447189	2
0	75874	11923.305986764887	3
0	75875	11923.419731836629	2
0	75879	11923.819120301828	3
0	75880	11923.928239932612	2
0	75884	11924.35857862625	3
0	75886	11924.361251295878	4
0	75887	11924.423273628766	3
0	75891	11924.542376390231	4
0	75893	11924.694227964437	5
0	75895	11924.820937500142	6
0	75896	11925.309636645673	5
0	75900	11925.503875380837	6
0	75907	11926.247083349888	7
0	75908	11926.95554061304	6
0	75911	11927.517846467022	5
0	75917	11927.606980408439	6
0	75922	11928.799292340293	7
0	75923	11929.009760103377	6
0	75934	11930.194059997627	7
0	75938	11930.840533730296	6
0	75976	11936.08228312647	5
0	75979	11936.695817562193	4
0	75985	11937.118877985673	5
0	75990	11937.763875862627	6
0	75991	11937.885040984536	5
0	75994	11938.71831157445	4
0	75998	11938.759202658034	5
0	75999	11939.315604255302	4
0	76003	11939.531219068218	5
0	76004	11940.117654705932	4
0	76007	11940.764402234181	3
0	76011	11940.77054659593	4
0	76012	11941.226541024353	3
0	76016	11941.748412507684	4
0	76017	11941.955495629366	3
0	76020	11942.587967200996	2
0	76023	11943.155675393855	1
0	76026	11943.878065126203	0
0	76030	11944.18640103034	1
0	76032	11944.511455400308	2
0	76033	11944.556632480212	1
0	76037	11945.204047489966	2
0	76038	11945.21454201066	1
0	76042	11946.039156930378	2
0	76043	11946.108777526301	1
0	76047	11946.149873090601	2
0	76048	11946.909214496054	1
0	76051	11947.509761644854	0
0	76055	11948.121350240817	1
0	76056	11948.252866893542	0
0	76060	11948.73911652947	1
0	76061	11949.157295249497	0
0	76065	11949.396916124194	1
0	76071	11950.680556165615	0
0	76090	11952.915747090676	1
0	76091	11953.340732722179	0
0	76097	11953.94518747344	1
0	76102	11954.241967138545	2
0	76103	11955.116340961549	1
0	76112	11955.688348428052	2
0	76113	11956.024689261298	1
0	76116	11956.730323940524	0
0	76120	11957.306305050681	1
0	76122	11957.363944925357	2
0	76123	11957.377171339569	1
0	76126	11957.960771008683	0
0	76130	11958.017590841034	1
0	76131	11958.373672836795	0
0	76135	11958.780049663657	1
0	76136	11959.286235548984	0
0	76140	11959.598300078842	1
0	76141	11960.20690548337	0
0	76160	11964.741549606659	1
0	76161	11964.765769513496	0
0	76230	11984.356649449177	1
0	76232	11984.642523693056	2
0	76233	11984.972338207453	1
0	76236	11985.402250288721	0
0	76262	11988.898896293839	1
0	76271	11989.978990388063	2
0	76278	11990.811987530761	3
0	76285	11992.180591904046	2
0	76293	11993.192510169977	1
0	76297	11993.593879728058	2
0	76298	11993.694357016496	1
0	76302	11994.029749852473	2
0	76304	11994.482609882338	3
0	76305	11994.601438444573	2
0	76308	11995.051951779378	1
0	76312	11995.468599370756	2
0	76314	11995.757470544989	3
0	76315	11995.935037243459	2
0	76319	11996.33984345494	3
0	76320	11996.568685872759	2
0	76323	11997.331516709877	1
0	76326	11998.127248990163	0
0	76330	11998.324238397828	1
0	76331	11998.979298168234	0
0	76350	12004.678620929434	1
0	76352	12004.9779168502	2
0	76353	12005.282496503314	1
0	76362	12006.033725060423	2
0	76364	12006.280033490564	3
0	76365	12006.666533891803	2
0	76374	12007.175784408392	3
0	76375	12007.964352960365	2
0	76378	12008.567720691666	1
0	76382	12008.663173959137	2
0	76388	12009.617655646328	1
0	76402	12011.495639705472	2
0	76413	12013.168798767582	1
0	76421	12014.758935993996	0
0	76460	12021.572604431913	1
0	76462	12022.129117420255	2
0	76463	12022.487452546681	1
0	76472	12023.414370034696	2
0	76473	12023.93395356069	1
0	76482	12024.478285747486	2
0	76483	12025.372150448465	1
0	76492	12026.135130717945	2
0	76498	12027.404993978363	1
0	76502	12027.61922776236	2
0	76508	12029.089828977861	1
0	76512	12029.291546518718	2
0	76518	12030.545232554839	1
0	76522	12030.950818775726	2
0	76523	12031.006224691995	1
0	76527	12031.519849641082	2
0	76533	12032.559027713851	1
0	76541	12033.831617208325	0
0	76545	12034.155081541908	1
0	76546	12034.750694366532	0
0	76550	12034.763698271781	1
0	76551	12035.205722378508	0
0	76560	12036.787150538674	1
0	76562	12036.790702039265	2
0	76563	12036.880705704456	1
0	76566	12037.522858198369	0
0	76570	12037.741360960226	1
0	76571	12037.935158190047	0
0	76580	12039.228643122783	1
0	76582	12039.763590292965	2
0	76583	12040.004406743408	1
0	76587	12040.063371476777	2
0	76589	12040.098288921618	3
0	76595	12041.475318540404	2
0	76599	12041.670189056128	3
0	76601	12041.806276454892	4
0	76603	12041.836772202896	5
0	76605	12042.001180764296	6
0	76612	12042.576555607696	7
0	76613	12042.954454655204	6
0	76616	12043.466856009144	5
0	76620	12043.985862084089	6
0	76621	12044.401197098618	5
0	76629	12045.496445135217	4
0	76632	12046.259880299032	3
0	76636	12046.769262577666	4
0	76638	12046.775989083528	5
0	76640	12047.138950968295	6
0	76641	12047.191688732341	5
0	76645	12047.300216981762	6
0	76646	12048.020254833255	5
0	76650	12048.631086325901	6
0	76651	12048.874210548405	5
0	76657	12049.274478801174	6
0	76662	12049.332426105754	7
0	76663	12050.25394628244	6
0	76666	12051.004441353637	5
0	76670	12051.452909099608	6
0	76671	12051.99915250503	5
0	76675	12052.301057892871	6
0	76676	12052.919646723433	5
0	76679	12053.718871526797	4
0	76682	12054.249939950606	3
0	76686	12054.279523765115	4
0	76687	12054.734705762429	3
0	76691	12054.812230996981	4
0	76693	12055.233653925409	5
0	76695	12055.656812472576	6
0	76696	12055.698571864985	5
0	76700	12055.702194598994	6
0	76707	12057.194373229945	7
0	76708	12057.265405827718	6
0	76714	12057.354525976799	7
0	76718	12058.577760334131	6
0	76727	12059.115087111087	7
0	76728	12059.44948688243	6
0	76736	12061.183033119006	5
0	76740	12061.461826483525	6
0	76746	12062.477920636632	5
0	76754	12063.711524797235	4
0	76758	12063.728710348337	5
0	76759	12064.123666097135	4
0	76765	12064.315960310253	5
0	76769	12064.987207913683	4
0	76778	12066.057166038778	5
0	76779	12066.182941390207	4
0	76788	12067.012803346422	5
0	76789	12067.670582128042	4
0	76793	12067.807747862138	5
0	76794	12068.248295482998	4
0	76797	12069.142975304048	3
0	76800	12069.876082997355	2
0	76803	12070.540842294931	1
0	76806	12071.477778094593	0
0	76810	12071.952167431081	1
0	76811	12072.339940300356	0
0	76835	12079.767347931965	1
0	76836	12079.915932271896	0
0	76840	12080.148487081088	1
0	76842	12080.455673015352	2
0	76843	12080.878830086241	1
0	76852	12081.665866446719	2
0	76854	12081.9894403297	3
0	76855	12082.118139899975	2
0	76861	12082.299385617607	3
0	76863	12082.482469241972	4
0	76868	12082.646880546944	5
0	76869	12083.410645843703	4
0	76872	12084.283460453046	3
0	76875	12085.208773900182	2
0	76879	12085.247031520469	3
0	76880	12085.851245235545	2
0	76883	12086.4427215502	1
0	76887	12086.531322782836	2
0	76888	12086.857579986226	1
0	76892	12087.103014648879	2
0	76894	12087.349544718284	3
0	76895	12087.857341303431	2
0	76898	12088.771203959674	1
0	76902	12088.78612361166	2
0	76904	12089.147727593156	3
0	76905	12089.197023397904	2
0	76908	12089.713589658342	1
0	76912	12090.461442148324	2
0	76913	12090.618475291259	1
0	76917	12091.035543658493	2
0	76918	12091.539786716584	1
0	76921	12092.487123193113	0
0	76930	12093.853224748549	1
0	76951	12097.14349011814	0
0	76960	12098.383439480344	1
0	76961	12098.462937556978	0
0	76970	12099.356340791916	1
0	76971	12099.745586774571	0
0	76985	12101.296149115037	1
0	76986	12101.693194887581	0
0	77005	12104.03972249829	1
0	77081	12113.785952971878	2
0	77088	12114.401888622913	3
0	77185	12128.881655453614	2
0	77188	12129.448467225538	1
0	77194	12129.713491568438	2
0	77198	12130.750768927534	1
0	77201	12131.481845131519	0
0	77212	12132.743216942287	1
0	77214	12132.822342150555	2
0	77221	12133.340279631911	3
0	77250	12136.645325590828	4
0	77287	12143.015312547193	3
0	77295	12144.574207215526	2
0	77303	12146.252440089968	1
0	77311	12147.268898013795	0
0	77317	12147.737776619432	1
0	77319	12147.799229602048	2
0	77323	12148.391007473182	1
0	77327	12148.418158039361	2
0	77334	12148.995937270802	3
0	77336	12149.287069082872	4
0	77337	12149.939751867998	3
0	77346	12150.623388746603	4
0	77348	12150.630621774519	5
0	77349	12151.378594014795	4
0	77352	12152.264339056612	3
0	77356	12152.318636570565	4
0	77360	12152.766294613438	5
0	77365	12153.171904152114	6
0	77366	12153.660606254545	5
0	77375	12154.159590329926	6
0	77376	12154.959148275248	5
0	77379	12155.463394993219	4
0	77382	12156.153590872606	3
0	77385	12156.841923094356	2
0	77388	12157.286785276701	1
0	77392	12157.684495392615	2
0	77393	12157.714867200005	1
0	77396	12158.214099170874	0
0	77400	12158.245831211689	1
0	77401	12158.998745537783	0
0	77405	12159.448874464153	1
0	77406	12159.701243195591	0
0	77410	12160.13321250503	1
0	77412	12160.287856536263	2
0	77413	12160.405944091409	1
0	77417	12160.61484306193	2
0	77418	12161.117118326297	1
0	77422	12161.937606814799	2
0	77423	12161.948024093408	1
0	77427	12162.249490124914	2
0	77428	12162.687128027018	1
0	77431	12163.165348995851	0
0	77435	12163.280290444602	1
0	77437	12163.288172886995	2
0	77438	12163.611766242377	1
0	77442	12164.012119999877	2
0	77444	12164.012749318857	3
0	77445	12164.432106480702	2
0	77449	12165.082989948714	3
0	77450	12165.239352531965	2
0	77454	12165.38272395478	3
0	77460	12166.653889296531	2
0	77464	12167.519714877932	3
0	77465	12167.583153599269	2
0	77468	12168.160227803654	1
0	77472	12168.643452748293	2
0	77473	12168.938169048262	1
0	77479	12169.052494670917	2
0	77483	12170.42552127666	1
0	77489	12170.905111901222	2
0	77491	12170.933304441588	3
0	77495	12171.440792698229	2
0	77498	12172.025955881879	1
0	77507	12173.214244627128	2
0	77508	12173.69506999613	1
0	77512	12173.703581156749	2
0	77521	12174.6266121878	3
0	77547	12177.671479588648	4
0	77614	12187.183522627086	5
0	77629	12189.754769290335	4
0	77642	12190.256547610499	5
0	77704	12200.427178070276	4
0	77717	12201.154526570725	5
0	77739	12205.12418282265	4
0	77748	12205.908001994819	5
0	77749	12206.404661149673	4
0	77752	12206.919941008	3
0	77758	12207.127891050901	4
0	77760	12207.750470674098	5
0	77764	12208.759367701646	4
0	77767	12209.227175821971	3
0	77773	12209.987219484116	4
0	77778	12210.189838172823	5
0	77779	12210.756535359847	4
0	77788	12211.652081031753	5
0	77790	12211.908926079516	6
0	77791	12212.522060817203	5
0	77794	12212.95963364756	4
0	77798	12213.788449493316	5
0	77800	12213.829425660365	6
0	77801	12213.845292453145	5
0	77807	12214.02899519199	6
0	77811	12215.227816891488	5
0	77820	12216.463369706938	6
0	77821	12216.666734444401	5
0	77824	12217.104640037152	4
0	77828	12217.195753706052	5
0	77832	12217.645220904012	6
0	77836	12218.61480462533	5
0	77842	12218.963475105489	6
0	77849	12220.132606062674	7
0	77854	12220.239720507605	8
0	77855	12220.790474881284	7
0	77859	12220.959662331907	8
0	77860	12221.194722062308	7
0	77871	12222.596818344939	8
0	77875	12223.396835999848	7
0	77886	12224.899027573109	8
0	77910	12227.958865363528	7
0	77913	12228.406136255763	6
0	77924	12229.609639900947	7
0	77926	12229.66232096427	8
0	77950	12233.300328365625	7
0	77954	12233.329606247472	8
0	77965	12235.874863817408	7
0	77974	12237.337041376254	8
0	77975	12237.585678935102	7
0	77983	12239.443648135852	6
0	77994	12240.598536384201	7
0	78003	12242.205061761154	6
0	78011	12243.112594109591	5
0	78019	12244.271077442546	4
0	78027	12245.601554493238	3
0	78036	12246.462181398174	4
0	78037	12246.548137385915	3
0	78041	12246.724996957753	4
0	78042	12246.951834339979	3
0	78046	12247.010526629086	4
0	78047	12247.54420635221	3
0	78051	12247.561557439892	4
0	78052	12248.023686970774	3
0	78056	12248.612775851159	4
0	78058	12248.728927312504	5
0	78059	12248.779049854031	4
0	78062	12249.599933071764	3
0	78065	12250.163170930514	2
0	78068	12250.62629169389	1
0	78071	12251.281774604138	0
0	78075	12251.801848095446	1
0	78076	12252.237162244556	0
0	78090	12254.479009069203	1
0	78091	12254.760582259265	0
0	78115	12258.938936995136	1
0	78116	12259.202866087233	0
0	78125	12260.539878281258	1
0	78126	12260.741053339358	0
0	78137	12261.951382711543	1
0	78141	12262.191043463572	2
0	78146	12262.99456949273	3
0	78150	12264.150637347604	2
0	78153	12265.009625676161	1
0	78157	12265.302220417236	2
0	78158	12265.822587063469	1
0	78162	12266.252234692606	2
0	78163	12266.798075603068	1
0	78166	12267.535222781802	0
0	78170	12268.240582018818	1
0	78171	12268.445476374383	0
0	78195	12272.826306766368	1
0	78196	12273.01887088701	0
0	78205	12273.989148336936	1
0	78206	12274.376871790946	0
0	78210	12274.597090109177	1
0	78211	12275.242062543868	0
0	78230	12279.583240384171	1
0	78231	12279.794990063745	0
0	78235	12280.132778193336	1
0	78236	12280.353425207648	0
0	78265	12289.566207453406	1
0	78267	12289.942378185979	2
0	78268	12290.388055778893	1
0	78272	12290.501136799374	2
0	78273	12291.037515141296	1
0	78276	12291.976704405987	0
0	78325	12321.881505447581	1
0	78326	12322.322685512214	0
0	78330	12322.940170778595	1
0	78331	12322.980762189127	0
0	78335	12323.016826779363	1
0	78336	12323.391816023703	0
0	78340	12323.702503408406	1
0	78341	12324.08308606312	0
0	78345	12324.383702300694	1
0	78347	12324.576885104604	2
0	78348	12324.678952542752	1
0	78351	12325.265572741874	0
0	78365	12330.318880809713	1
0	78366	12330.951926956751	0
0	78380	12332.909435230392	1
0	78381	12333.544793057757	0
0	78415	12338.307010789021	1
0	78416	12338.339769449964	0
0	78425	12339.398704623386	1
0	78426	12339.809129847767	0
0	78465	12344.384156139614	1
0	78476	12345.8582172264	0
0	78487	12346.570413660005	1
0	78497	12347.622338232949	2
0	78498	12348.21590491772	1
0	78507	12349.232124509054	2
0	78508	12349.692352167995	1
0	78514	12349.792920377467	2
0	78519	12350.460632628755	3
0	78520	12351.220821306634	2
0	78529	12352.200453251895	3
0	78530	12352.606066475542	2
0	78538	12353.923208026694	1
0	78542	12353.926029272705	2
[...]
9	134386	21454.647834512681	0
9	134408	21456.881063446618	1
9	134413	21457.959657142505	0
9	134598	21483.873936374655	1
9	134600	21483.987538044876	0
9	134603	21484.831520205999	1
9	134605	21484.849682342524	0
9	134615	21486.04475738181	1
9	134617	21486.162777981218	0
9	134670	21494.6840077794	1
9	134677	21495.418220892387	0
9	134687	21496.462645355038	1
9	134689	21496.582514694543	0
9	134966	21535.852485753956	1
9	134968	21536.021551085653	0
9	135203	21570.328665650482	1
9	135212	21571.577028458432	0
9	135215	21571.791313462876	1
9	135217	21571.888322770931	0
9	135239	21574.71983261703	1
9	135241	21574.759528138905	0
9	135259	21577.926107015027	1
9	135261	21577.958240750091	0
9	135538	21618.906523950477	1
9	135540	21618.938713941589	0
9	136449	21783.84310009306	1
9	136451	21784.299621128997	0
9	136954	21868.128059359596	1
9	136956	21868.269801270141	0
9	137246	21911.26354166674	1
9	137248	21911.466028928155	0
9	137618	21962.526827253446	1
9	137620	21963.257674611286	0
9	137623	21963.274308788495	1
9	137626	21963.703155805494	2
9	137628	21963.828298179094	1
9	137630	21963.857060447641	0
9	137843	21993.5210065762	1
9	137845	21993.546735476718	0
9	138379	22068.513344529869	1
9	138381	22068.604906292521	0
9	138603	22100.927266369611	1
9	138605	22101.242829495559	0
9	138628	22103.737141733141	1
9	138636	22105.225181314012	0
9	138809	22129.126326512752	1
9	138820	22130.389684957807	0
9	139408	22217.232871676867	1
9	139410	22217.341442411122	0
9	139418	22218.333435911384	1
9	139422	22218.722624434426	0
9	139463	22222.923669787613	1
9	139465	22223.33957493437	0
9	139468	22223.396779415175	1
9	139472	22224.056412448993	0
9	139475	22224.377896225616	1
9	139477	22224.463958173194	0
9	139490	22227.057005405403	1
9	139492	22227.514201217275	0
9	139530	22233.271154385409	1
9	139532	22233.298673092381	0
9	139540	22234.8546680175	1
9	139542	22234.8809471244	0
9	139562	22237.439974894165	1
9	139564	22237.923453630354	0
9	139572	22239.18541130994	1
9	139574	22239.388886944113	0
9	140103	22317.230461022563	1
9	140107	22317.676545591974	0
9	140118	22319.240713635858	1
9	140122	22319.258706869642	0
9	140436	22367.596850074577	1
9	140440	22367.936998768039	0
9	140450	22369.230683356086	1
9	140452	22369.333269309301	0
9	140545	22381.993792672018	1
9	140547	22382.07394154196	0
9	141484	22523.312957288179	1
9	141486	22523.343285272857	0
9	141636	22545.355617737533	1
9	141638	22545.492321781942	0
9	143912	22919.391096193699	1
9	143914	22919.562113241959	0
9	144291	22983.672227647531	1
9	144293	22983.86134814421	0
9	144524	23018.531410094157	1
9	144526	23018.787589030047	0
9	144557	23023.611184383643	1
9	144559	23024.063158618266	0
9	145081	23113.048294924941	1
9	145083	23113.256544788721	0
9	145212	23132.990116227339	1
9	145216	23133.933623620514	0
9	145482	23179.335673998515	1
9	145484	23179.522038108894	0
9	145547	23204.8540566703	1
9	145550	23205.748428620694	2
9	145551	23205.942096722558	1
9	145554	23206.028029044349	0
9	146600	23391.173364941293	1
9	146602	23391.292778208139	0
9	147521	23571.055398041812	1
9	147523	23571.179464123258	0
9	148068	23691.072443224509	1
9	148070	23691.30128809542	0
9	148092	23694.574948860818	1
9	148094	23694.878481387102	0
9	148119	23697.849545604243	1
9	148121	23698.112626022551	0
9	148137	23701.005260307408	1
9	148139	23701.557799197218	0
9	148149	23702.464085540987	1
9	148151	23702.53558777462	0
9	148157	23703.447064663583	1
9	148161	23704.010088456064	0
9	148169	23705.04523249699	1
9	148171	23705.501767781184	0
9	149510	23899.051492589105	1
9	149513	23899.73171623512	2
9	149515	23899.812210034698	1
9	149517	23899.907433569563	0
9	149544	23903.879583886452	1
9	149546	23904.277171537913	0
9	149724	23931.564265696148	1
9	149726	23932.021331630666	0
9	149731	23932.234800442543	1
9	149735	23932.775511047959	0
9	149961	23964.716587254544	1
9	149963	23965.02487785896	0
9	150582	24070.954648469406	1
9	150584	24070.984306114767	0
9	150617	24075.095950938127	1
9	150626	24077.632126418804	0
9	150647	24081.021139724315	1
9	150652	24081.819151985221	2
9	150654	24081.937668628033	1
9	150656	24082.025916454892	0
9	150693	24086.492783854802	1
9	150695	24086.494729286415	0
9	150902	24115.675872825312	1
9	150904	24115.862910775218	0
9	150917	24117.913598779675	1
9	150919	24118.001842318751	0
9	151306	24180.865262183234	1
9	151310	24181.279982282985	0
9	151313	24181.289627951629	1
9	151317	24181.655410238058	0
9	151521	24214.188824658522	1
9	151523	24214.751728457759	0
9	151984	24302.088249470565	1
9	151986	24302.526881110359	0
9	152029	24308.558726355937	1
9	152031	24309.083729836865	0
9	152807	24457.775627952518	1
9	152809	24457.808300530632	0
9	152929	24476.67974646158	1
9	152931	24476.759207475881	0
9	153070	24502.066181475779	1
9	153071	24502.227741747262	0
9	153075	24502.840877507819	1
9	153076	24503.543875263168	0
9	153092	24505.379320281048	1
9	153096	24505.900982237478	0
9	153104	24506.92072323873	1
9	153106	24507.219804244339	0
9	153109	24507.902358036258	1
9	153111	24508.330729754571	0
9	153136	24511.432379762039	1
9	153146	24512.740665934692	0
9	154135	24708.625512597572	1
9	154139	24709.284928422482	0
9	154502	24770.455396922811	1
9	154504	24770.459919879795	0
9	154693	24796.297929888258	1
9	154695	24797.017459818388	0
9	154723	24801.069478934204	1
9	154728	24801.597937200735	0
9	154748	24804.526718588399	1
9	154753	24805.119392544148	0
9	155052	24852.673065199215	1
9	155054	24852.917755310171	0
9	155062	24853.73686612046	1
9	155064	24854.143676322849	0
9	155077	24855.071800523043	1
9	155079	24855.345792403614	0
9	155485	24924.485611491659	1
9	155487	24925.177887275261	0
9	155930	25041.780271278303	1
9	155931	25042.028546673758	0
9	155972	25047.571283496544	1
9	155974	25047.749633729122	0
9	155982	25048.520615812438	1
9	155984	25048.645141531978	0
9	156036	25055.552520746924	1
9	156038	25055.984309518457	0
9	156041	25056.208082228433	1
9	156043	25056.283783426541	0
9	156051	25057.413340890221	1
9	156053	25057.476760575184	0
9	156066	25059.598108826019	1
9	156068	25059.731305010463	0
9	156099	25062.616028156411	1
9	156101	25062.649450254094	0
9	156104	25063.514795633685	1
9	156106	25063.883499116441	0
9	156109	25064.088320856728	1
9	156112	25064.586379507836	2
9	156114	25064.639204602207	1
9	156116	25064.952565207019	0
9	156159	25071.329646730005	1
9	156161	25071.566890934524	0
9	156211	25077.939240897169	1
9	156213	25078.245733451746	0
9	156216	25078.773744872121	1
9	156219	25079.268124279847	2
9	156221	25079.571154250696	1
9	156226	25080.040673458026	0
9	156257	25082.969157273045	1
9	156259	25083.08217039426	0
9	156283	25087.057440225362	1
9	156285	25087.253728487774	0
9	157190	25250.0473855173	1
9	157192	25250.574939403909	0
9	157195	25250.602910628986	1
9	157200	25251.245570900968	2
9	157204	25251.707750123214	1
9	157207	25252.004016834569	2
9	157209	25252.17158906023	1
9	157211	25252.233946478629	0
9	157224	25254.098524437032	1
9	157226	25254.209188026042	0
9	157242	25257.477833917204	1
9	157244	25257.608374517938	0
9	157247	25258.236051758684	1
9	157249	25258.333993427785	0
9	157784	25332.997952875704	1
9	157786	25333.0193348154	0
9	157813	25336.482558510568	1
9	157815	25336.635575468231	0
9	158079	25374.77963438161	1
9	158081	25375.051375619699	0
9	158660	25456.09890970356	1
9	158662	25456.243657952886	0
9	158717	25463.424041893018	1
9	158719	25463.537358186431	0
9	158732	25465.213281046331	1
9	158741	25466.489424993951	0
9	158752	25468.180303482862	1
9	158759	25469.014095814801	0
9	158787	25471.769358491862	1
9	158792	25472.42437791032	0
9	159137	25534.697089179122	1
9	159141	25535.562422902424	0
9	159174	25539.561610025361	1
9	159176	25539.776943736325	0
9	159261	25551.969892150986	1
9	159263	25551.974391411219	0
9	159770	25632.773776457188	1
9	159772	25632.986376386537	0
9	160032	25666.676876155576	1
9	160034	25667.051444993337	0
9	160378	25713.181435346333	1
9	160380	25713.279828148207	0
9	160401	25715.111173735335	1
9	160403	25715.588471995938	0
9	160426	25718.686275635947	1
9	160429	25719.10975552365	2
9	160431	25719.519965988458	1
9	160438	25720.049328978575	0
9	160441	25720.216063482043	1
9	160445	25720.856644466698	0
9	160461	25722.847865427155	1
9	160463	25723.190534579147	0
9	160495	25726.465614792202	1
9	160497	25726.643876503555	0
9	160502	25727.310929076011	1
9	160504	25727.558224763257	0
9	160524	25730.431910892959	1
9	160526	25731.170967681756	0
9	160529	25731.341634780552	1
9	160533	25731.741970579793	0
9	160566	25736.025803992535	1
9	160568	25736.048893279611	0
9	160571	25736.690144838543	1
9	160573	25736.99924389862	0
9	160576	25737.309836383407	1
9	160578	25737.49490524322	0
9	160613	25742.995618913146	1
9	160615	25743.342433176912	0
9	161247	25834.881916798915	1
9	161249	25835.264523851629	0
9	161382	25853.225606300482	1
9	161384	25853.501652074811	0
9	161402	25855.748357121725	1
9	161404	25855.798915196334	0
9	161671	25892.423412282518	1
9	161678	25893.165161785359	0
9	161880	25923.045540545494	1
9	161882	25923.432915429471	0
9	161897	25924.99526003798	1
9	161899	25925.312816584367	0
9	161902	25925.421011610175	1
9	161904	25925.846352706911	0
9	161907	25926.061340671763	1
9	161909	25926.482537993154	0
9	161912	25926.595566684924	1
9	161914	25926.8357583236	0
9	161917	25927.197752526667	1
9	161919	25927.807371762596	0
9	161925	25928.301283006635	1
9	161929	25928.425147354707	0
9	161976	25934.68706839735	1
9	161980	25935.032195131559	0
9	162037	25942.279069397072	1
9	162039	25942.383732841108	0
9	162071	25947.647381788338	1
9	162075	25947.991407194381	0
9	162342	25990.179594185655	1
9	162344	25990.189847664828	0
9	162368	25993.834600726966	1
9	162370	25994.212515514943	0
9	163578	26162.13333943001	1
9	163580	26162.134581742529	0
9	163877	26206.888642733815	1
9	163879	26207.121376210542	0
9	163889	26208.303785036403	1
9	163891	26208.916744427816	0
9	163899	26210.011168511576	1
9	163901	26210.209794793154	0
9	164096	26238.174420606057	1
9	164098	26238.186045349787	0
9	164234	26256.400814731083	1
9	164236	26256.504191913236	0
9	164249	26258.015307598551	1
9	164256	26259.061151682131	0
9	164291	26263.990834158648	1
9	164293	26264.232578347936	0
9	164320	26267.386402682577	1
9	164322	26267.72171237735	0
9	164350	26271.287048301044	1
9	164352	26271.289112290777	0
9	164355	26271.893505279151	1
9	164358	26272.334667936702	2
9	164360	26272.422078633015	1
9	164362	26272.885819365899	0
9	164424	26281.600151753835	1
9	164426	26281.762183242365	0
9	164454	26286.455492193427	1
9	164460	26287.119433633748	0
9	164478	26289.105259786722	1
9	164480	26289.171773580579	0
9	167424	26713.337793979012	1
9	167426	26713.610910132163	0
9	167452	26717.706975816898	1
9	167454	26718.044757037316	0
9	167596	26738.42262277411	1
9	167598	26738.467673417879	0
9	167609	26740.444865252857	1
9	167611	26740.845259835169	0
9	167629	26743.255085974594	1
9	167643	26744.697195810831	0
9	167936	26791.588883946316	1
9	167938	26792.050556030088	0
9	168439	26877.225947800235	1
9	168441	26877.254988281935	0
9	168991	26965.126593671652	1
9	168993	26965.247433598893	0
9	169018	26968.828346598574	1
9	169020	26968.851091768001	0
9	169061	26975.287745507814	1
9	169063	26975.305552010759	0
9	169076	26977.53229476149	1
9	169083	26978.293719553051	0
9	169441	27032.195312633854	1
9	169443	27032.238927821046	0
9	169476	27037.290656064985	1
9	169478	27037.352050630229	0
9	171306	27358.719417492758	1
9	171308	27359.115388318032	0
9	171501	27388.627716316492	1
9	171503	27388.811131516298	0
9	172531	27569.211901817997	1
9	172533	27569.325459917489	0
9	173094	27662.722551997579	1
9	173096	27663.200602549654	0
9	173112	27665.645107957782	1
9	173114	27665.68137698132	0
9	173161	27671.972801299688	1
9	173163	27671.983381831907	0
9	173235	27682.141420744375	1
9	173237	27682.947223950596	0
9	173561	27729.427712355245	1
9	173563	27729.556439751491	0
9	173596	27734.302725199766	1
9	173598	27734.433978372428	0
9	174240	27827.610130950549	1
9	174244	27828.158856913571	0
9	174397	27848.72100928563	1
9	174399	27848.816023762023	0
9	174402	27849.379070810157	1
9	174404	27849.614768113482	0
9	174427	27853.022881417556	1
9	174432	27853.8046700428	0
9	174440	27854.898729991235	1
9	174442	27855.342077654485	0
9	174480	27859.937276938857	1
9	174484	27860.360802023585	0
9	174613	27878.078473349914	1
9	174615	27878.10507336901	0
9	174628	27880.120506236444	1
9	174630	27880.307225155586	0
9	174662	27884.419546106107	1
9	174664	27885.130082429603	0
9	175104	27946.803915177778	1
9	175108	27947.251939522731	0
9	175284	27970.335803329739	1
9	175286	27970.626229022619	0
9	175497	27999.474745700115	1
9	175499	27999.506084077597	0
9	175514	28001.653553940427	1
9	175516	28001.87887277903	0
9	175521	28002.317827454048	1
9	175523	28002.605537577954	0
9	175538	28004.463678530675	1
9	175540	28004.591396112403	0
9	175603	28013.586683366752	1
9	175605	28013.837692066257	0
9	175677	28022.755068309631	1
9	175679	28023.474943849442	0
9	175682	28023.704019931124	1
9	175684	28023.779402872387	0
9	175692	28025.012491139376	1
9	175697	28026.029389589421	0
9	176116	28088.005239677454	1
9	176118	28088.438812290021	0
9	176121	28088.657780289349	1
9	176123	28088.859840652196	0
9	176126	28089.098861579575	1
9	176128	28089.224842756963	0
9	176138	28090.512204535097	1
9	176145	28091.44778687133	0
9	176150	28091.725993755204	1
9	176152	28092.158932661272	0
9	176165	28094.000022556144	1
9	176167	28094.012408096133	0
9	176946	28202.189286132881	1
9	176948	28202.572392444716	0
9	176973	28206.378019253144	1
9	176975	28206.517832240635	0
9	176978	28206.779059062179	1
9	176980	28207.109831579058	0
9	176983	28207.697344728166	1
9	176986	28208.274174640167	2
9	176988	28208.88581691122	1
9	176991	28209.086597745006	2
9	176993	28209.293955776429	1
9	176995	28209.381951652578	0
9	177062	28218.404864634551	1
9	177067	28219.134902802553	2
9	177069	28219.159724102092	1
9	177073	28219.744038826549	0
9	177443	28272.700015884706	1
9	177445	28272.84992671281	0
9	177453	28273.700987388449	1
9	177455	28273.807436026642	0
9	177476	28277.355040134745	1
9	177478	28277.624390510725	0
9	177890	28338.338806906928	1
9	177892	28338.464074915987	0
9	177900	28339.549409017319	1
9	177902	28339.724733230438	0
9	177910	28341.186418819547	1
9	177912	28341.566115660105	0
9	177915	28341.787006472078	1
9	177917	28341.804164435224	0
9	177964	28348.601459070276	1
9	177966	28349.473851580819	0
9	177969	28349.507627084646	1
9	177971	28349.727835916713	0
9	177974	28349.992031754208	1
9	177977	28350.415388401392	2
9	177979	28350.997362303766	1
9	177981	28351.102997955746	0
9	178133	28370.623566734261	1
9	178135	28371.016439273455	0
9	178160	28374.396355047664	1
9	178165	28375.332263023017	0
9	178201	28380.012734235945	1
9	178203	28380.200641657013	0
9	178216	28381.936327295873	1
9	178218	28382.277236525177	0
9	178228	28383.370354046422	1
9	178230	28383.454710942931	0
9	178260	28387.681556126458	1
9	178262	28387.729212830882	0
9	178322	28395.555808394476	1
9	178324	28396.373505083796	0
9	178349	28399.286303077898	1
9	178353	28399.564112332232	0
9	178389	28405.372519266632	1
9	178391	28405.493497191884	0
9	179083	28509.752258723634	1
9	179085	28509.793051037948	0
9	179361	28547.054953206737	1
9	179365	28547.878437581936	0
9	179368	28547.904393956798	1
9	179372	28548.270418582875	0
9	179848	28615.010565258878	1
9	179850	28615.277626205887	0
9	180091	28649.253823418953	1
9	180095	28649.879369324859	0
9	180166	28659.656597148805	1
9	180168	28659.959555589724	0
9	180331	28683.670318290629	1
9	180333	28683.689622855689	0
9	180367	28687.178710527244	1
9	180369	28687.352904640605	0
9	180394	28690.537383579874	1
9	180396	28690.61308174659	0
9	180421	28693.603425864029	1
9	180423	28693.797801343269	0
9	181928	28926.122407892316	1
9	181930	28926.716304644751	0
9	181936	28927.346935041172	1
9	181938	28927.486462454335	0
9	181946	28928.728760123549	1
9	181951	28929.331277811684	2
9	181953	28929.937444716596	1
9	181958	28930.1834112424	0
9	181966	28931.728974065714	1
9	181968	28931.936162353703	0
9	182009	28937.708560634841	1
9	182011	28937.814556291664	0
9	182115	28963.632500104432	1
9	182116	28963.640694279117	0
9	182150	28968.259235934062	1
9	182151	28968.556291467549	0
9	182157	28969.010410374535	1
9	182164	28969.62223384725	0
9	182181	28972.123358260632	1
9	182183	28972.149459380638	0
9	182198	28974.132001009143	1
9	182201	28974.535858702545	2
9	182203	28974.852494927336	1
9	182205	28974.977710616873	0
9	182240	28979.128494877347	1
9	182245	28979.677318413954	2
9	182247	28980.214514097437	1
9	182249	28980.437450447536	0
9	182252	28980.611937556023	1
9	182254	28980.612234612079	0
9	182270	28983.208958944659	1
9	182272	28983.211976112917	0
9	182407	29001.964923933176	1
9	182409	29002.030498575526	0
9	182493	29013.447750827604	1
9	182495	29013.593341145937	0
9	182498	29014.032844738876	1
9	182500	29014.129405550965	0
9	182503	29014.999178818222	1
9	182505	29015.072274276925	0
9	182513	29016.101253144238	1
9	182518	29016.579005413251	2
9	182520	29016.635007288987	1
9	182522	29016.806537016355	0
9	182540	29019.333638975192	1
9	182542	29019.547367195432	0
9	182559	29021.157918112148	1
9	182561	29021.427329078151	0
9	182564	29021.668436356429	1
9	182571	29022.477880060421	2
9	182573	29022.525870777669	1
9	182575	29022.716547277675	0
9	182578	29023.313414692208	1
9	182580	29023.489363697559	0
9	182605	29026.676406580658	1
9	182607	29026.955436667043	0
9	182610	29027.249232508784	1
9	182612	29027.35115049307	0
9	182638	29030.5785329799	1
9	182640	29030.9595346652	0
9	182675	29035.24227117452	1
9	182677	29035.571318596499	0
9	182692	29036.905862113398	1
9	182694	29037.191074946824	0
9	182702	29038.432624086489	1
9	182705	29038.921077287787	2
9	182710	29040.09029174321	1
9	182712	29040.297385760567	0
9	183049	29087.865922757266	1
9	183058	29088.793024856846	0
9	184154	29243.571684004173	1
9	184156	29243.772934748207	0
9	184203	29250.134415240765	1
9	184205	29250.363566936959	0
9	184213	29251.266529718919	1
9	184215	29251.314147210105	0
9	184220	29251.751324483093	1
9	184222	29252.095505092518	0
9	184230	29252.852149793498	1
9	184233	29253.512026638763	2
9	184247	29254.766614235281	1
9	184249	29254.766907563386	0
9	184289	29259.923293179778	1
9	184292	29260.67711608139	2
9	184294	29261.371503233409	1
9	184297	29261.47622926742	2
9	184301	29261.572766332682	1
9	184303	29261.905777149423	0
9	184306	29262.174619976517	1
9	184308	29262.210226017128	0
9	184331	29265.604313265479	1
9	184333	29266.263023751903	0
9	184346	29267.599668466619	1
9	184350	29268.115763699337	0
9	184360	29269.037495752976	1
9	184362	29269.112361739607	0
9	184372	29270.713846668734	1
9	184375	29271.371532245626	2
9	184377	29271.684761301416	1
9	184380	29271.852847156109	2
9	184382	29271.954502189574	1
9	184385	29272.83239779076	2
9	184387	29273.064697669292	1
9	184390	29273.779115732847	2
9	184392	29273.804136941804	1
9	184394	29273.928749847224	0
9	184409	29276.407406546962	1
9	184411	29277.053824855268	0
9	184414	29277.330309273949	1
9	184416	29277.351286246953	0
9	184434	29280.38419741522	1
9	184436	29280.517525333037	0
9	184700	29317.979455529473	1
9	184702	29318.50997547105	0
9	184904	29342.800823450641	1
9	184906	29342.803336261606	0
9	185002	29355.164246795459	1
9	185004	29355.237505526421	0
9	185039	29358.907600186059	1
9	185044	29359.674146113969	0
9	185086	29364.989617071013	1
9	185090	29365.378368062132	0
9	185185	29378.397416811244	1
9	185187	29378.408104600544	0
9	185190	29379.153970326105	1
9	185192	29379.388827963382	0
9	185208	29381.87319428217	1
9	185212	29382.164673273371	0
9	185300	29394.784374887305	1
9	185302	29395.637901223449	0
9	185851	29476.969428365627	1
9	185853	29477.64191591674	0
9	186214	29529.930899736281	1
9	186222	29530.866217795826	0
9	186524	29576.447530309148	1
9	186526	29576.884765397562	0
9	186779	29613.988919798508	1
9	186783	29614.195708726009	0
9	186911	29631.31372815905	1
9	186913	29631.315461936854	0
9	187015	29644.430154819402	1
9	187017	29644.773945055442	0
9	187978	29778.833725832671	1
9	187980	29779.069679285017	0
9	189232	29971.610093293555	1
9	189234	29971.75019849775	0
9	189262	29975.207960498735	1
9	189264	29975.628266988078	0

