version 2
run First_exit_2-0-20191125-12:13:45-713
attr configname First_exit_2
attr datetime 20191125-12:13:45
attr experiment First_exit_2
attr inifile omnetpp.ini
attr iterationvars ""
attr iterationvarsf ""
attr measurement ""
attr network ResponseTimeNetwork
attr processid 713
attr repetition 0
attr replication #0
attr resultdir results
attr runnumber 0
attr seedset 0
param **.Source.interArrivalTime exponential(4s)
param **.jobPriority bernoulli(0.4)
param **.PS.serviceTimeU1 "uniform(0.4s, 1.0s)"
param **.PS.serviceTimeU2 "uniform(1s, 1.2s)"
param **.SS1.serviceTime exponential(0.4s)
param **.SS2.serviceTime exponential(0.8s)
param **.PS.exitProbability bernoulli(0.2)

vector 0 ResponseTimeNetwork.sink lifeTimeU2:vector ETV
attr interpolationmode none
attr title "lifetime of arrived jobs U2, vector"
attr unit s
vector 1 ResponseTimeNetwork.sink totalServiceTimeU2:vector ETV
attr interpolationmode none
attr title "the total time spent  by arrived jobs U2, vector"
attr unit s
vector 2 ResponseTimeNetwork.sink lifeTime:vector ETV
attr interpolationmode none
attr title "lifetime of arrived jobs, vector"
attr unit s
vector 3 ResponseTimeNetwork.sink totalServiceTime:vector ETV
attr interpolationmode none
attr title "the total time spent  by arrived jobs, vector"
attr unit s
vector 4 ResponseTimeNetwork.QueueU1 queueLength:vector ETV
attr interpolationmode sample-hold
attr title "queue length, vector"
vector 5 ResponseTimeNetwork.sink lifeTimeU1:vector ETV
attr interpolationmode none
attr title "lifetime of arrived jobs U1, vector"
attr unit s
vector 6 ResponseTimeNetwork.sink totalServiceTimeU1:vector ETV
attr interpolationmode none
attr title "the total time spent  by arrived jobs U1, vector"
attr unit s
vector 7 ResponseTimeNetwork.QueueU2 queueLength:vector ETV
attr interpolationmode sample-hold
attr title "queue length, vector"
vector 8 ResponseTimeNetwork.SS2 queueLength:vector ETV
attr interpolationmode sample-hold
attr title "queue length, vector"
vector 9 ResponseTimeNetwork.SS1 queueLength:vector ETV
attr interpolationmode sample-hold
attr title "queue length, vector"
0	15570	10008.493677677571	0.875409410894
0	15575	10011.959904668985	0.775804500375
0	15580	10013.093890103786	0.720373292314
0	15585	10022.071225149194	0.530827428726
0	15590	10030.171746788923	0.447815493681
0	15595	10043.881078095737	0.521031295648
0	15602	10049.822443175614	0.735415557725
0	15622	10054.922935954087	0.844323279243
0	15625	10055.503244431202	1.204789599783
0	15632	10056.137712990077	0.529868774116
0	15652	10064.378422744939	2.189807963787
0	15655	10065.148555415397	1.364461613489
0	15665	10070.690988709282	0.620093417866
0	15680	10077.63263233668	2.035636978364
0	15690	10085.381804540329	0.883067472046
0	15700	10105.094401611578	0.614071168372
0	15710	10106.999230060411	0.708213531692
0	15715	10108.594396108208	0.763715357147
0	15730	10114.941671048322	3.564937252794
0	15750	10125.736650031401	2.59432913615
0	15765	10133.011569883549	1.199275429274
0	15770	10136.185690095104	0.761853239266
0	15775	10139.205514044559	0.945185328554
0	15780	10151.170784756245	0.9412130062
0	15785	10155.925841198353	0.841432326892
0	15807	10166.029350757254	0.692725529242
0	15820	10169.158753851365	6.070622879523
0	15830	10174.764280400694	0.622099405108
0	15840	10176.929387575693	1.839202285982
0	15852	10178.679051993066	0.652813203485
0	15860	10180.377254449507	2.643689176953
0	15870	10187.464747112117	0.587420754554
0	15882	10201.131242131319	0.712103673955
0	15885	10201.58031609414	2.288719164599
0	15890	10204.378873271003	0.569026697101
0	15895	10212.427291430628	0.68509204844
0	15900	10214.387826574463	0.756962815206
0	15905	10221.039942554187	0.617426542146
0	15915	10225.658547281444	0.603706862824
0	15925	10229.456072853622	0.897844822658
0	15935	10242.883729971781	0.675518150767
0	15940	10244.454308226705	0.612968489761
0	15945	10255.811016378309	0.683256434835
0	15957	10260.698727134042	0.582216935465
0	15967	10262.245205803869	1.607798815421
0	15995	10273.003247429208	7.422697241693
0	16005	10278.224316658087	0.766043755412
0	16020	10283.985567778221	1.371570845893
0	16025	10286.097625287281	0.645248940354
0	16032	10292.805725753855	0.935802548472
0	16035	10293.430036520854	0.997865385295
0	16047	10296.171289935042	0.775419126591
0	16060	10299.645060409652	2.363562509313
0	16077	10312.516323163033	1.591320215384
0	16082	10313.034068712404	0.72703862617
0	16085	10313.809567558857	1.231304146446
0	16097	10316.149859203328	0.817045377148
0	16100	10316.814460010849	2.501499429809
0	16115	10324.625020980002	0.978225533339
0	16124	10325.576286804018	0.933676537266
0	16129	10326.253399698058	1.520273689974
0	16140	10328.834326346161	3.949983735676
0	16155	10338.895984181031	0.917066385518
0	16160	10339.922949284	0.925129578076
0	16165	10341.353215113044	0.714527013898
0	16182	10350.895863552525	2.8930593409
0	16185	10351.667132757784	1.080220151228
0	16210	10371.860402499557	0.9472415403
0	16232	10388.79747797377	0.899334700638
0	16235	10389.38006751766	3.448229905947
0	16242	10390.365372332122	0.627241163747
0	16250	10399.81111816145	0.610852834536
0	16255	10401.674325512455	0.437922894396
0	16260	10407.136492995428	0.605460111937
0	16265	10409.369832851971	0.932752461499
0	16272	10413.489959617137	0.889752247138
0	16275	10413.907505231249	0.690076084592
0	16297	10438.319506617437	2.645134235749
0	16305	10450.807723576989	0.800082895672
0	16320	10472.495410503781	0.810230544955
0	16337	10475.40434834752	2.890071308022
0	16340	10475.905162808157	0.61150529848
0	16365	10493.3458729549	2.329762209341
0	16375	10498.043725794321	0.681180530787
0	16380	10507.735015638207	0.719401035272
0	16410	10512.685474186529	4.258559055741
0	16420	10517.408410969103	1.724107851838
0	16425	10525.24026781901	0.402678755112
0	16430	10532.772611017309	0.570077706594
0	16435	10533.417145997627	0.642716727173
0	16445	10550.572865759595	0.483586241817
0	16452	10552.345300151597	3.002553401285
0	16455	10552.852855897698	0.661860045227
0	16460	10555.893499665476	0.599034298677
0	16467	10557.923548282522	0.497512229811
0	16472	10558.801901716485	1.250781948333
0	16480	10565.703147870706	0.744642032636
0	16485	10567.812054293542	0.847924031271
0	16497	10571.619820455289	2.298701610499
0	16512	10574.431621237226	3.356349018798
0	16520	10576.862745275816	0.783836225234
0	16527	10577.658265918541	3.832406750737
0	16535	10581.449186458596	0.865322121093
0	16562	10592.750651543453	0.73731809943
0	16567	10593.429894654877	1.031223726685
0	16570	10593.941433749726	4.151821088758
0	16575	10603.807014144581	0.787069001235
0	16580	10614.409998509341	0.878425323172
0	16630	10636.307131995736	0.792842410877
0	16635	10645.445036616957	0.755014556646
0	16640	10646.356325193679	0.494750258047
0	16645	10647.9886209713	0.722935055057
0	16655	10653.737379529053	0.579346445855
0	16675	10667.360593072283	0.713832811825
0	16680	10671.388056823306	0.46375164981
0	16685	10679.222498030439	0.790550741274
0	16695	10686.941145731001	0.464800950931
0	16700	10692.668523225474	0.783318939991
0	16725	10697.83411767336	4.709492722094
0	16740	10725.978068955117	0.513836845523
0	16750	10740.240395925117	0.624488892918
0	16755	10744.849763189412	0.699521264108
0	16780	10757.84351053102	1.530988010983
0	16785	10759.343824481285	0.401510843774
0	16795	10764.729017704736	1.6279599054
0	16827	10778.250258138909	0.562319344443
0	16830	10778.739845756621	4.079291793508
0	16850	10789.989555960636	0.781940358179
0	16885	10809.08981600966	0.495337859914
0	16895	10812.118668261179	0.727920151036
0	16905	10816.666036086546	1.556387579138
0	16912	10817.433485824857	0.73034545402
0	16915	10818.240208402518	0.861148094857
0	16920	10823.454154674141	0.725321569946
0	16935	10828.148186471209	2.122235505185
0	16950	10831.486230318722	2.594333617716
0	16955	10833.337396911498	3.879815076421
0	16965	10841.50117899784	0.818413049076
0	16970	10843.255250273529	0.421588216489
0	16975	10846.398744871475	0.826832049293
0	16980	10850.659061972996	0.948803729378
0	16985	10854.412976281407	0.53682186231
0	16990	10856.380797323655	0.884109727899
0	17000	10863.497412594354	0.501447702805
0	17010	10866.986646701299	0.960908579454
0	17015	10868.66193612478	0.422029222781
0	17030	10873.860512974736	0.994427926745
0	17045	10877.547382849667	1.220647403054
0	17050	10896.751808055001	0.802709023468
0	17055	10898.083979640518	0.52933999002
0	17065	10904.961154173387	0.790287058335
0	17070	10913.191631524961	0.504491483513
0	17080	10935.440091667086	0.465627114614
0	17090	10939.901477041891	0.95602457691
0	17095	10945.889406003254	0.875964783365
0	17112	10951.865770576028	1.174964977419
0	17124	10957.651186347685	0.812187487166
0	17160	10965.249496660446	6.319393946799
0	17175	10974.722182380527	0.632616906706
0	17187	10976.962001218796	1.533264097064
0	17205	10981.489277382443	1.833528294611
0	17220	10987.145323175777	0.501241614018
0	17230	10989.628029208685	0.720326048136
0	17240	10991.236148313303	0.97398069208
0	17245	10994.121396898377	6.07694749298
0	17250	11000.048541925055	0.796963764587
0	17272	11004.186880560293	1.430023460223
0	17275	11004.923838457073	3.950455231107
0	17290	11017.493370605994	0.421782625653
0	17315	11036.013715526517	0.776758524962
0	17330	11060.439140851209	0.706868303288
0	17345	11067.618216622907	0.709631160041
0	17370	11075.978079940879	2.609140233043
0	17375	11076.807608865978	2.798113521887
0	17380	11079.603550597365	0.700470227702
0	17400	11091.832494240226	1.37521292142
0	17405	11094.914022036683	0.856310485676
0	17415	11098.650174469487	0.41167792622
0	17420	11105.136208403661	0.792036565626
0	17430	11108.705610582752	0.77546415641
0	17435	11110.237225636611	0.524124694569
0	17447	11130.369842440892	0.834428400779
0	17485	11142.852861286997	0.450821798202
0	17495	11150.21891565912	1.829681433098
0	17500	11150.851898039442	0.534497133223
0	17522	11175.395624080392	0.557974120649
0	17529	11176.385003826579	1.275325382629
0	17550	11179.113908724438	0.530804578921
0	17555	11181.11241755486	0.499737320561
0	17572	11183.245828825936	2.09581738701
0	17582	11185.442091571823	3.649794435974
0	17587	11186.261012525534	0.927993878304
0	17600	11197.383582084092	0.401354165329
0	17617	11208.945563028631	1.575281816023
0	17622	11209.759691984457	1.219722449904
0	17645	11213.532550118695	3.981014048582
0	17650	11215.507733878996	0.859060398117
0	17655	11217.715576226134	0.916978643555
0	17667	11224.137877954296	2.35859507277
0	17670	11224.567410345967	0.767636565634
0	17685	11238.129756836563	0.942000804236
0	17695	11240.021401137084	1.414591898317
0	17712	11254.796588509897	3.889138009087
0	17720	11256.116154259056	1.550294503689
0	17725	11257.915038277549	0.702908050455
0	17730	11260.071537660702	0.622948286543
0	17752	11262.700882654348	0.565198458208
0	17767	11279.359984777416	0.818669924373
0	17770	11280.170448867478	2.326976334355
0	17775	11282.370585323987	0.629545779759
0	17780	11285.972094232803	0.442836828157
0	17805	11290.326108716749	0.497171169473
0	17810	11295.359728408955	0.472233011667
0	17825	11309.598216978634	0.693457800103
0	17830	11319.014435424765	0.645779948868
0	17835	11319.835549390389	0.724747101264
0	17840	11323.468671066174	0.755426677782
0	17845	11332.750020666205	0.971551796608
0	17860	11343.286263621877	0.812696830416
0	17865	11346.177812861607	0.638083528075
0	17875	11352.698905515723	0.901927325688
0	17885	11367.698770033219	4.813981516355
0	17895	11381.704281744925	0.76492207027
0	17900	11383.71404473822	0.603134066192
0	17907	11403.569136282989	0.484667790215
0	17910	11404.352297485621	0.797926736265
0	17927	11410.779337621935	1.226062067234
0	17935	11412.229026321592	0.955379746901
0	17940	11413.224204860808	0.530727950623
0	17950	11417.532464710671	1.560428512716
0	17960	11437.291528322496	1.536072807976
0	17974	11444.843838840203	0.531578679633
0	17977	11445.401833848415	1.034392488731
0	17980	11445.939904899003	2.353064496443
0	17990	11454.452397118639	0.603739864752
0	17995	11457.759604426656	0.857215200504
0	18000	11462.935767536442	0.422101697186
0	18010	11472.208283459766	0.658524840372
0	18035	11484.191781928376	0.770736213308
0	18040	11485.831598488926	0.997392527247
0	18050	11488.263795508747	0.662551842351
0	18055	11496.495824991509	0.569680180028
0	18062	11520.378634594987	0.740316984151
0	18075	11528.111125018195	1.414972359046
0	18080	11534.410400211124	0.463039388368
0	18090	11539.014597830899	0.751433845051
0	18102	11550.608205351019	0.744754424738
0	18107	11551.331545201009	2.639831382785
0	18120	11561.049405113128	0.890051334118
0	18125	11564.833965878426	0.588369650114
0	18135	11569.476457976559	1.724247835957
0	18170	11585.203944627036	5.046398614713
0	18175	11587.601262396002	0.694866024237
0	18185	11597.766697969036	0.554325790564
0	18190	11602.524792346158	0.427668456594
0	18200	11627.603761384465	0.899022774398
0	18207	11631.87308650645	0.937926093861
0	18230	11640.642311544806	1.371099262907
0	18237	11647.772128715664	0.403578938404
0	18245	11652.704937084948	0.613167785853
0	18267	11659.725727535995	0.987898925552
0	18305	11669.73934725736	0.76406937826
0	18310	11671.593783193543	0.433315601107
0	18327	11679.372021337511	1.544584126205
0	18340	11685.648550480741	0.636265911255
0	18345	11687.99797005052	0.535694722086
0	18367	11694.345800715802	5.935409264334
0	18370	11694.972401689622	0.884133009088
0	18375	11695.661730351154	0.556776768016
0	18402	11705.966589751141	1.976039655015
0	18415	11712.227694338501	1.735368457183
0	18425	11732.969251246744	2.196810913874
0	18435	11735.190178997119	2.046370585904
0	18440	11743.245599913675	0.998688014783
0	18450	11744.614624126024	0.728013116077
0	18460	11749.086668207884	0.855316130444
0	18465	11750.712019858339	0.667770043248
0	18470	11755.69615688246	0.430552586075
0	18477	11757.014787595984	0.407271549245
0	18480	11757.955240676631	1.290115961658
0	18485	11764.238091980782	0.505912004597
0	18497	11773.38668621658	1.928646219139
0	18505	11775.823645468676	0.906618029391
0	18515	11782.49137497792	0.401636036299
0	18527	11791.484334880982	0.796461378876
0	18537	11796.856522468732	0.874065007688
0	18540	11797.321017700502	0.635404955584
0	18545	11813.423906425922	0.693873729696
0	18552	11820.808615162243	0.712784555508
0	18555	11821.743462961512	1.436514262585
0	18570	11844.875312327447	0.574350638522
0	18580	11854.59404469339	0.966094540758
0	18587	11859.7882640588	0.728763963236
0	18600	11867.873526587679	0.651400782447
0	18639	11902.508470025458	1.2145718302
0	18642	11903.405223563998	1.830553953099
0	18647	11904.163674839805	4.347816787919
0	18657	11909.079765632503	0.430871752743
0	18660	11909.810088556526	0.768221498387
0	18665	11918.910636512307	0.849242508551
0	18670	11922.408277745653	0.713133887667
0	18675	11923.085582390164	0.518555970164
0	18680	11926.448314133408	0.840027308417
0	18692	11929.9272688991	0.925494495765
0	18695	11930.518142273564	1.947301280033
0	18700	11943.555363536729	0.537133017275
0	18705	11955.168963489418	0.470656677708
0	18725	11964.989619222676	0.767906925641
0	18739	11967.614073747499	0.964932712069
0	18742	11968.069352150671	0.88228599248
0	18745	11968.553011494279	2.255029817717
0	18775	11979.570473920459	0.576510568615
0	18785	11982.936907618841	0.907636444109
0	18805	12009.687437051473	0.633773696655
0	18810	12012.837750333645	0.77273747609
0	18827	12026.769430806749	0.95222040615
0	18830	12027.569768184964	1.094748501322
0	18835	12034.068080619816	0.51950818426
0	18852	12039.127660340671	1.505693122284
0	18855	12039.54723423677	2.903400563589
0	18860	12042.169452895063	0.930856304569
0	18870	12061.77326434798	0.88239636533
0	18875	12063.980613031023	0.575374941155
0	18905	12069.372560708389	1.871917907007
0	18912	12070.516822074573	0.863589949673
0	18922	12072.795334707262	0.885277833417
0	18927	12073.580115175262	0.913584578958
0	18930	12074.515194601161	1.054968612736
0	18945	12078.364359397414	2.887577738853
0	18955	12081.835247621841	0.567075759964
0	18960	12083.170377334999	0.887593094725
0	18982	12095.895250826214	0.768707655976
0	18990	12098.444858145421	0.764474473847
0	19000	12111.636331683628	0.994564251276
0	19017	12124.511127017234	3.375530113806
0	19020	12125.302574084867	1.134001030832
0	19027	12129.464467406481	0.949559712224
0	19060	12159.650931080028	0.889932355378
0	19075	12164.77986879603	1.577508599354
0	19090	12179.776879307655	0.960706750071
0	19100	12190.097404536074	0.531470180582
0	19115	12193.839838773011	2.866472285751
0	19125	12220.287031492725	0.632819923107
0	19140	12227.047369456189	2.023669640503
0	19150	12232.648960970311	1.97929113447
0	19165	12251.542720627767	0.579524100851
0	19177	12254.129401309462	0.79047452745
0	19187	12271.814124823334	0.961194684962
0	19190	12272.477040493647	1.061907612011
0	19195	12280.023942736283	0.437254357571
0	19210	12290.188592211447	0.574974010838
0	19220	12298.06127619142	0.760810556775
0	19235	12301.909762978013	3.285835878125
0	19247	12313.139368174262	1.156356109088
0	19250	12313.787713026572	2.104827074893
0	19265	12322.371029477198	2.224703705286
0	19280	12343.898574473422	0.619496262306
0	19290	12349.105938932068	2.327765901273
0	19295	12359.99310690235	0.635813148925
0	19300	12366.479580024197	0.951161209075
0	19315	12373.011354359512	0.944080496905
0	19324	12379.077816917737	0.862396572437
0	19327	12379.618366163493	1.142515081518
0	19330	12380.429975725002	1.417549653223
0	19335	12382.267860432877	0.578576520272
0	19340	12384.1847111274	0.632250418607
0	19350	12390.850702066406	0.481551111117
0	19355	12392.684867271206	0.692621082347
0	19360	12396.038265997724	0.506465804204
0	19365	12399.780431396834	0.87934264061
0	19377	12403.713854214282	0.916717728879
0	19380	12404.307845369506	0.740721139217
0	19385	12408.95975138419	0.700841337163
0	19405	12412.142903169365	2.896213216475
0	19410	12424.037468133148	0.908127919305
0	19415	12425.900259904128	0.480390405282
0	19425	12439.687427556059	0.465027535986
0	19430	12441.651685959612	0.868198903836
0	19442	12453.684566490943	0.638070403272
0	19454	12455.099238366479	1.383128235258
0	19459	12456.097206131866	2.213819629645
0	19470	12459.282720325742	4.399772634678
0	19480	12471.653398216261	0.693592293747
0	19494	12475.342752843714	1.606750029143
0	19510	12478.488974475619	0.995225704784
0	19537	12485.722285040133	3.483761005157
0	19542	12486.60549493203	3.338765673412
0	19545	12487.519532096144	1.640718617781
0	19565	12503.634501973861	0.672830179892
0	19577	12505.881202953553	1.165236866125
0	19580	12506.289627332717	0.486824733546
0	19585	12507.017154150619	2.477096864313
0	19602	12511.153485241143	2.466345777596
0	19607	12512.016909104941	1.549787253497
0	19612	12512.657317644015	3.5218200364
0	19615	12513.483178669523	1.444103669279
0	19620	12521.571757186121	0.423811908299
0	19625	12523.780400854974	0.968850247888
0	19635	12532.850383268118	0.63412883901
0	19640	12536.296704304733	0.834435693873
0	19645	12539.572703068583	0.9473897547
0	19650	12541.904417506446	0.611391306994
0	19667	12549.899195262587	3.894057435024
0	19675	12553.850766153356	0.567279705778
0	19689	12557.705544154846	1.119469733009
0	19715	12570.766720186384	0.617295581475
0	19720	12578.654725416449	0.645961331297
0	19740	12583.013979510566	0.589098369703
0	19755	12585.462453171012	2.240700116508
0	19772	12598.431804795657	0.831928061042
0	19782	12603.479301556013	0.754215771891
0	19785	12603.966215382795	1.148626819018
0	19800	12610.640637356148	2.559626786085
0	19805	12611.434315451401	2.847713352987
0	19815	12618.360584932834	0.89514923864
0	19820	12628.817603796642	0.963539762795
0	19830	12649.433241321441	0.68399121468
0	19849	12678.828094080871	0.763097070633
0	19852	12679.232814222656	1.087865753236
0	19857	12679.952635628812	3.143002854893
0	19860	12680.378865358548	3.317486011486
0	19875	12684.715475552898	4.333255573537
0	19880	12686.047773068386	0.646874036593
0	19900	12726.191390199906	0.577333133388
0	19905	12732.690924338143	0.525375510892
0	19920	12744.220605556777	1.568479624015
0	19927	12746.513915436256	0.682604222465
0	19935	12749.974627493609	0.802078871289
0	19952	12759.679589163864	0.646328144195
0	19959	12760.194230804944	0.793760540798
0	19967	12761.552000253534	1.8136499122
0	19975	12763.046923284399	1.134433778298
0	19985	12776.924747777732	0.78951199716
0	19990	12780.194619665801	0.452966141468
0	20012	12802.585682497906	3.316433678614
0	20015	12803.383823100837	3.400135457834
0	20020	12809.91118978884	0.575905432226
0	20040	12823.430950230456	0.476788318576
0	20055	12829.437563488733	4.6249997182
0	20060	12831.220214342463	0.76483298419
0	20072	12833.849149799363	1.716234391354
0	20075	12834.54264812988	1.414235191763
0	20087	12837.174587503651	0.490435042651
0	20097	12840.430345025359	0.694405010762
0	20105	12842.050994251378	0.686301643401
0	20114	12844.694136007723	0.806144676311
0	20117	12845.470450786209	1.301278453216
0	20120	12846.319492618447	2.065008864235
0	20144	12860.641967581799	0.677774544572
0	20147	12861.21903172818	0.852071738515
0	20150	12861.95758160891	1.525157733831
0	20160	12874.103986070312	0.858203542838
0	20167	12877.740055957002	0.509499490168
0	20175	12879.55736426829	2.078420607624
0	20192	12895.383442879724	0.621005960833
0	20207	12898.163636697841	2.632637146306
0	20235	12906.487186296398	2.220284689444
0	20255	12909.821158001102	0.88515040334
0	20275	12929.823468912897	5.725551153227
0	20290	12939.946108345934	0.444336537132
0	20295	12950.196165750429	0.655793968262
0	20300	12953.0585755837	0.490690284455
0	20310	12959.807637240798	0.78912943881
0	20322	12961.92572660823	1.635021696926
0	20327	12962.479539201824	1.46084854857
0	20337	12963.770308840508	3.497877877069
0	20340	12964.440645760997	2.036176668515
0	20372	12976.547728009574	0.858799243858
0	20375	12977.019004425226	0.91257316919
0	20380	12986.239450083822	0.771813186584
0	20390	12991.078578605893	0.464587148
0	20410	13018.533742383272	0.63130008583
0	20425	13024.165674512145	0.406325088907
0	20430	13029.479952320959	0.73183199279
0	20460	13055.063163451874	0.867313312879
0	20465	13055.921331896541	0.703217504453
0	20470	13058.189629197035	0.93474575351
0	20489	13068.586851965999	3.093137474404
0	20492	13069.513554692492	1.786506293879
0	20500	13071.127890242728	3.38375861559
0	20505	13072.819032266628	0.845373667497
0	20515	13078.94028409842	2.399816414977
0	20522	13080.616479425645	0.855258096103
0	20555	13096.557724316734	1.422074378208
0	20565	13099.297031394226	2.083072535614
0	20570	13101.682165252056	0.691583165945
0	20575	13104.519701303395	0.781088700797
0	20585	13108.187400215238	0.69383887928
0	20590	13116.439615463198	0.577322193328
0	20605	13123.861788952268	3.770930865052
0	20624	13126.997861647898	0.830101048807
0	20627	13127.785135540705	3.766661640765
0	20630	13128.421926925903	2.86277844137
0	20635	13143.534933111211	0.868107289774
0	20650	13183.304271232866	0.600726490095
0	20655	13186.8055258492	0.447613751329
0	20665	13198.077338665833	2.225042688099
0	20670	13202.084549166269	0.442691103043
0	20675	13205.956163796532	0.968219023105
0	20680	13207.142535591186	0.500607350655
0	20685	13209.206967696449	0.482064558286
0	20690	13209.745766562615	0.489398350427
0	20715	13232.737842516199	0.654215276334
0	20725	13236.198996729906	2.097972802715
0	20747	13246.134384937467	0.644034244027
0	20750	13246.966424599359	1.301666587966
0	20767	13266.134634093115	0.732346418547
0	20775	13269.157344485865	0.866909708036
0	20800	13288.171805658229	1.630111067484
0	20805	13298.048592455938	0.422415978601
0	20817	13303.430071849471	0.655590413604
0	20825	13314.208553221848	0.461366408691
0	20830	13316.360061937667	0.789833311969
0	20835	13320.572359359101	0.918778007664
0	20847	13324.841027928922	1.021337128413
0	20877	13340.97545781414	2.667318345933
0	20880	13341.385584408641	1.566420559656
0	20885	13342.320326440582	0.498751104297
0	20900	13355.647970491835	3.131081381276
0	20915	13368.665627436147	1.800249244268
0	20920	13375.099287282838	0.447468683077
0	20932	13378.283425715857	3.135227264401
0	20940	13379.618874898036	0.432597417152
0	20945	13380.454614144345	2.785134055705
0	20954	13392.081998029133	0.975612965319
0	20985	13403.508219208434	2.28570341948
0	20990	13408.097708562016	0.556107570278
0	21000	13414.954753797363	0.785098591819
0	21010	13418.478610007616	1.330895000276
0	21022	13420.544987880679	0.941993924497
0	21030	13423.668932581205	0.878134756535
0	21035	13427.360348351496	0.740930484002
0	21047	13450.828768013423	1.43911904691
0	21050	13451.501417621556	1.06891994537
0	21085	13474.139145312701	0.613293842552
0	21090	13475.887494407483	0.442652909365
0	21095	13477.801445110637	0.641562563833
0	21112	13489.909560481139	0.728747035144
0	21115	13490.486721141782	1.209485120838
0	21120	13501.485993352932	0.867434527073
0	21160	13521.092914150532	3.133465848471
0	21180	13539.198193446494	0.544968562433
0	21190	13548.795870336271	0.432478044322
0	21195	13565.605689326246	0.975572616514
0	21200	13566.915255657903	0.762602467416
0	21219	13572.178342036566	3.710849478203
0	21235	13578.540350197347	6.699381868027
0	21245	13589.627276076748	0.720033130515
0	21255	13596.085250037439	0.516723056929
0	21265	13600.20085246204	0.862452626694
0	21270	13609.261539561105	0.743601852842
0	21280	13615.65410301948	0.516812355909
0	21285	13616.871335760168	0.536064930912
0	21310	13624.614969444183	0.516607781453
0	21315	13635.076209631723	0.624230689229
0	21325	13640.669984983368	2.820972388239
0	21350	13651.990882125129	0.692714707647
0	21355	13653.158651328898	0.870500101149
0	21360	13658.232878834152	0.699672854738
0	21369	13660.19480701892	0.60641563898
0	21380	13664.751048899653	0.657567298878
0	21400	13679.984251204256	0.457811633777
0	21405	13681.306205171889	5.842030477369
0	21415	13686.235709793262	0.924136303831
0	21420	13690.359946968082	0.656166501809
0	21430	13699.350047071102	0.411062118271
0	21460	13728.186079871628	2.742186962296
0	21465	13732.665155287843	0.941754822899
0	21480	13744.810772129183	1.011822254176
0	21495	13750.544312102575	0.608347254014
0	21505	13761.589417173189	1.415288249157
0	21510	13762.770946298785	2.793148911396
0	21517	13766.678022938156	0.901032271562
0	21545	13775.955246455515	3.430565129793
0	21555	13779.173615927608	0.99998677168
0	21560	13784.045989757569	0.965651870938
0	21580	13790.813199096189	1.810417781258
0	21592	13794.555616419211	1.088255538874
0	21602	13796.138512332	1.208429111166
0	21607	13797.107966148861	3.735313066282
0	21610	13797.738145091579	0.707244378638
0	21615	13801.54821863858	0.911439059116
0	21625	13809.652535652053	0.834635272436
0	21630	13811.112170731884	0.664506176813
0	21652	13817.252658152362	0.878749982361
0	21660	13821.886142504098	0.506122106221
0	21665	13825.645129601191	0.891422600346
0	21670	13827.477009866554	0.410899051139
0	21690	13848.531359091592	0.759408273734
0	21702	13853.009547353326	0.890190243072
0	21707	13853.901211123098	2.214032213576
0	21715	13858.824610704267	0.94094205685
0	21734	13864.919849520648	2.938609995509
0	21740	13866.375636242941	2.329095207593
0	21750	13869.479815940007	1.239910859885
0	21755	13870.798570210417	0.417870180681
0	21760	13873.842329490163	0.556120761996
0	21767	13875.10026764934	0.905983401695
0	21770	13875.976634204984	1.336139810699
0	21780	13884.107983654555	0.558062949823
0	21792	13894.450020361185	0.844996657595
0	21810	13898.699863478216	2.531044602716
0	21815	13903.773237069096	0.445661018929
0	21820	13905.727713910199	0.838810325647
0	21840	13919.158792773367	0.616078475211
0	21847	13921.731354635108	0.609825878311
0	21850	13922.287144253256	1.026818279721
0	21855	13924.491737580917	0.492483903468
0	21860	13929.726606018915	0.577894581622
0	21867	13930.580943525088	0.690187215991
0	21870	13931.149862074823	1.20021548459
0	21875	13941.823071559432	0.906568666548
0	21885	13957.01544455613	0.448839751491
0	21895	13965.964828004787	0.433909374708
0	21900	13968.101958445304	0.734059646307
0	21910	13975.231613821757	2.425183038188
0	21915	13976.160700195473	0.850369100878
0	21945	13983.309454781682	1.028834557633
0	21955	13991.417637246736	0.804050105345
0	21965	13995.439850025365	0.616741484869
0	21975	14004.607289929302	0.874207460508
0	21985	14011.215229697513	1.855496484502
0	21990	14013.443686220934	0.947527199471
0	22012	14024.708865370362	1.41466488314
0	22022	14027.538828154512	4.253350100159
0	22025	14028.150247896834	1.255021397239
0	22035	14036.49561388813	1.886207403858
0	22069	14052.936517258101	3.015876745689
0	22074	14053.638267270681	1.868460963623
0	22089	14055.838280514275	0.853531684058
0	22100	14058.852177159765	0.670569587592
0	22112	14060.953323134301	9.547563866028
0	22120	14063.019653207843	10.435750706615
0	22125	14070.935002946659	0.43625577786
0	22130	14071.719245934063	0.766206915583
0	22145	14086.758950760979	0.561611648416
0	22160	14097.659620491932	0.696097303042
0	22165	14102.038739170968	0.75059233089
0	22177	14110.191394402148	1.203554775134
0	22180	14111.160158548193	2.488502284885
0	22185	14112.814909455962	0.503772278642
0	22190	14113.764402044943	0.728244742332
0	22197	14117.585391665425	0.494835655112
0	22200	14118.01205734032	0.762562020374
0	22210	14123.427295954076	0.524663020484
0	22230	14134.92277463095	1.556484382584
0	22249	14143.294161244545	2.455484257685
0	22259	14144.944219573836	2.916430602295
0	22265	14146.644870715976	1.815467592196
0	22272	14154.082208944939	0.472731773742
0	22280	14155.661763950081	2.011270106427
0	22310	14173.694304550537	0.531497748522
0	22327	14182.181555968693	2.034053760488
0	22335	14184.270506622108	3.378510216876
0	22340	14195.74250246893	0.993643462053
0	22345	14199.375907271889	0.929596801661
0	22350	14212.999068729645	0.93163770875
0	22369	14217.999545166062	0.826085155224
0	22400	14233.260861392448	1.599825932151
0	22410	14240.520450255261	0.862837412069
0	22420	14247.979831034878	0.720840464672
0	22475	14271.703925286918	2.027427163143
0	22480	14272.373866230355	0.488539903704
0	22509	14279.389622999378	2.016618332503
0	22515	14280.637319269333	1.667462646123
0	22535	14286.979413239835	2.536001403958
0	22542	14292.734927880063	0.616021187417
0	22547	14293.480394944686	1.354322680037
0	22550	14293.985669923385	0.902958432297
0	22575	14308.515900910226	0.713847601553
0	22580	14312.074088898109	0.460558759933
0	22595	14330.320926405113	0.947743121628
0	22602	14331.488849487311	0.546172097418
0	22610	14344.961736469819	0.666815109644
0	22620	14352.292492996592	0.891663501412
0	22625	14359.000074525014	0.95036430452
0	22642	14362.53655906328	3.421194645535
0	22645	14363.21138686304	1.982551727537
0	22650	14366.18773111705	0.845627120323
0	22655	14368.397881707549	0.76745916591
0	22660	14373.308128769401	0.584089246998
0	22675	14383.550019107194	0.493207178731
0	22680	14388.313609431388	0.829744979274
0	22685	14393.944302188334	0.865096951183
0	22697	14400.63147962423	0.40856027538
0	22705	14409.734279406134	0.830747822579
0	22720	14417.522926280176	1.092212405925
0	22725	14420.02465131151	0.968172729155
0	22735	14424.145935913938	0.68995222291
0	22752	14437.67743456653	0.706052383687
0	22762	14439.134152395471	1.41356151952
0	22767	14439.970473054058	4.245939051055
0	22787	14443.44506226347	3.787354680491
0	22797	14444.820880518641	0.944424256452
0	22800	14445.736985307021	2.583581104735
0	22812	14452.576570754985	1.486417544514
0	22820	14454.613196322087	0.691491935635
0	22837	14459.392026293935	0.673761117086
0	22840	14460.222967896616	4.494721295699
0	22855	14463.726500887723	3.114784437777
0	22867	14468.42151626631	1.679103699437
0	22870	14469.35468017015	1.514313052251
0	22875	14476.92741850077	0.994113171054
0	22890	14485.450084374312	0.629115523906
0	22900	14488.298753823176	4.395712904908
0	22915	14490.94988225923	2.356340890937
0	22925	14499.144679962115	0.819711531326
0	22935	14512.725282397396	1.319906945264
0	22955	14522.222629881058	0.677297208458
0	22960	14533.449452218042	0.484792442387
0	22965	14537.361453614307	0.711282031331
0	22975	14540.745742502703	0.757399895063
0	22982	14552.290565145281	0.973192840395
0	22987	14553.246769217853	1.106446530371
0	22990	14553.983585017067	0.775188822299
0	22995	14556.670233278782	0.771648180718
0	23002	14562.348648749638	0.469769272488
0	23010	14567.510711074763	0.963611530466
0	23030	14584.43151246958	0.478052687319
0	23037	14585.969642600473	0.787251025578
0	23047	14587.582728330428	1.42082773072
0	23060	14591.247256391399	0.632327713305
0	23077	14598.112875150986	1.9010468005
0	23087	14602.426721081766	0.905851689028
0	23095	14603.75808975523	1.927603089455
0	23129	14612.286937361539	5.145083417433
0	23132	14613.072126478471	3.777289782219
0	23137	14613.647809099734	1.801800636015
0	23144	14614.596910816247	1.212374105129
0	23182	14623.641255990046	0.955080787466
0	23195	14636.718863351457	0.405898434669
0	23220	14650.526165938899	0.698621451884
0	23225	14651.867547860262	2.897119682321
0	23235	14654.919499742441	0.893183063012
0	23240	14661.867007750401	0.838373202272
0	23250	14670.593261908571	0.494269679114
0	23262	14675.726061046253	1.522772970657
0	23285	14691.982017595007	0.632917832676
0	23290	14692.924367574903	0.475715494482
0	23295	14695.094903253232	0.862107864209
0	23302	14696.41160080571	0.532431802107
0	23310	14699.585751774306	0.905714645889
0	23315	14706.89351219549	0.706327982061
0	23327	14710.816383297078	1.354135308884
0	23337	14712.78925343072	0.775180120673
0	23345	14720.547533478092	0.490363772307
0	23350	14721.957080035843	0.741409886675
0	23375	14730.11127532203	3.596506410144
0	23395	14736.161973914245	5.098836269738
0	23405	14738.919034308061	1.879766133415
0	23410	14742.569204981348	0.955346175283
0	23425	14755.519729745959	0.441951497877
0	23437	14774.550335228875	1.01654278048
0	23495	14799.662789973119	0.88918870748
0	23507	14814.024333498998	0.812649124395
0	23520	14819.316182579733	0.92968325261
0	23525	14822.681757324598	0.576655548858
0	23537	14824.771445756577	0.664233784797
0	23545	14826.182387538659	0.815241343854
0	23565	14834.879327335245	1.725701347179
0	23595	14850.083088200321	0.969407382235
0	23610	14859.288524526243	0.453880260233
0	23625	14875.372249808702	2.437226812364
0	23640	14877.699943024696	0.534326255275
0	23660	14885.178707895181	2.027256745765
0	23670	14905.880170283835	0.979778255988
0	23675	14914.172527797558	0.505492957914
0	23680	14915.492396778803	0.606615128415
0	23690	14919.526385312793	1.664291471875
0	23695	14920.47839406105	0.585435927147
0	23700	14921.705299106969	0.635613559885
0	23705	14930.26627945525	0.738623753376
0	23715	14935.730366627664	2.007880980893
0	23720	14941.65771773621	0.905486628786
0	23745	14969.191891654462	3.873200213856
0	23750	14973.250964433822	0.916626332607
0	23760	14979.393606183535	0.560128218774
0	23765	14981.478324048424	0.646845081728
0	23770	14992.033481815895	0.443333206838
0	23782	14996.280364419226	1.5222929154
0	23785	14996.990648996536	2.519212009292
0	23812	15006.773007954833	1.095994414527
0	23845	15023.761945647718	0.507620136021
0	23882	15050.810235726221	2.076411747492
0	23887	15051.57716437815	2.230352190555
0	23890	15052.469484723213	0.915622086373
0	23895	15053.403495459596	0.814851648267
0	23915	15060.559544578931	0.825424204161
0	23922	15063.173598080764	0.694829765102
0	23930	15066.221340084027	3.223489207248
0	23945	15070.29048228919	0.728675131686
0	23950	15071.003507775224	0.698152546259
0	23965	15080.128615814638	0.59328795947
0	23985	15086.070278174728	3.916788581359
0	24000	15093.59510787837	1.281506204245
0	24017	15099.465848067903	2.380104472814
0	24030	15116.86379517536	1.480541101779
0	24046	15119.94817369427	0.813328743713
0	24060	15122.577886118371	0.569809615424
0	24080	15129.390834108518	0.5841254008
0	24085	15132.490404400573	0.487285687122
0	24102	15143.460164731392	0.679176376946
0	24117	15150.290008987183	2.623256312143
0	24120	15150.777740678866	1.2054004731
0	24125	15165.228837570656	0.405087455362
0	24147	15176.034194235018	0.872756390739
0	24162	15180.419087059055	3.11193972144
0	24177	15189.752984100186	0.900635396549
0	24180	15190.302133534967	0.873025525497
0	24185	15192.429795135278	0.67653131932
0	24197	15199.676193845284	1.020367374451
0	24205	15202.564100435088	3.952030290876
0	24212	15208.875153755489	0.486880399333
0	24225	15216.904598738222	3.262517726919
0	24230	15230.781428538353	0.713955466868
0	24235	15231.619927265188	0.532832994638
0	24247	15234.119771861821	0.868675900204
0	24250	15234.809878967912	2.11428502938
0	24260	15257.31586861375	0.886837384151
0	24277	15266.517831403574	0.426469808538
0	24300	15274.103561843338	0.449167841533
0	24310	15283.401750503907	0.987765673688
0	24315	15286.46265578283	0.459012834821
0	24320	15289.368406270184	0.70020813006
0	24345	15303.436926202607	0.854407551
0	24360	15312.884413742947	4.725474319243
0	24370	15329.682781072928	0.407377365604
0	24380	15342.088848952091	3.26883619284
0	24390	15348.184938248044	2.124113480802
0	24430	15365.168508157244	0.487405255111
0	24435	15365.839045169246	0.440116402134
0	24445	15376.069686639991	0.474963107193
0	24455	15379.257380541706	1.657085550314
0	24460	15394.886424949978	0.577300701709
0	24465	15399.340003877745	0.919172124751
0	24479	15404.225326780184	1.482340431667
0	24500	15415.017282881435	0.848160344083
0	24505	15423.546168950821	0.744299665699
0	24512	15428.642091582437	0.799186871061
0	24515	15429.319715890336	0.918632107582
0	24525	15443.5906845365	2.37892984045
0	24530	15446.449225320834	0.931500570197
0	24537	15447.327775125099	0.685560014145
0	24540	15448.245187630491	1.274991780023
0	24545	15457.061666769793	0.972175741987
0	24557	15471.60208478419	1.419014064081
0	24570	15480.056366783302	1.830698704487
0	24590	15485.953352286668	0.639536960822
0	24600	15489.541198369799	2.99945051509
0	24610	15497.748773020716	2.120641242235
0	24615	15498.987778925391	0.87934702225
0	24625	15514.618177188848	0.657994948747
0	24650	15534.253472649331	0.462844136963
0	24655	15539.09887875209	0.481676380755
0	24670	15548.065049995138	1.973038155512
0	24677	15549.087670957992	3.099296420734
0	24692	15552.193035965087	0.440383682866
0	24695	15552.79187030606	3.949497120659
0	24700	15553.935733522908	0.726398862852
0	24705	15560.304412115686	0.751941797044
0	24720	15588.3112765206	0.694830999337
0	24725	15590.349107253086	0.527021183027
0	24750	15593.895132745473	2.722692421748
0	24755	15596.250371028856	0.53308555563
0	24760	15597.51965443063	0.748191238474
0	24767	15600.854712300072	0.408844612725
0	24770	15601.720827538217	1.204114574369
0	24775	15605.506552300187	0.644458963582
0	24780	15610.021678401023	0.783950615302
0	24790	15613.878515275604	1.418620010689
0	24800	15619.207999107631	0.971389459679
0	24850	15631.375632207136	0.584463575948
0	24855	15637.996998397624	0.531953657838
0	24870	15643.568593328278	0.729332180414
0	24875	15647.148944351759	0.443909076275
0	24887	15651.76224861611	2.221531643842
0	24890	15652.577278778938	0.920131482461
0	24910	15660.504585029806	0.402754463535
0	24915	15667.114275141979	0.684734730422
0	24940	15690.839923497525	0.882520488184
0	24945	15691.522187754132	0.645311520621
0	24955	15695.341052413959	0.727636585318
0	24975	15699.190886445073	5.188519210383
0	24995	15712.401614835973	3.09717039033
0	25005	15717.523116620187	0.594766567461
0	25025	15746.2332637216	0.861012361338
0	25032	15751.9185429567	0.982858992508
0	25052	15754.566762508171	2.483227028335
0	25057	15755.101357584492	1.74373741564
0	25060	15755.727739208097	1.071352160539
0	25065	15757.644780893971	0.906352806138
0	25070	15758.514825664903	0.682989202719
0	25085	15765.651028485137	1.616711279641
0	25090	15766.948154459795	0.739175872412
0	25100	15768.748942014245	1.370129813126
0	25112	15780.245987525315	1.270887314482
0	25117	15781.083550827171	2.192005897919
0	25120	15781.654236213503	0.944883732973
0	25125	15788.726937882186	0.719144834019
0	25157	15803.748937525321	0.645208347216
0	25160	15804.258199801482	3.298756821092
0	25165	15813.076063868928	0.783669216651
0	25170	15816.489826328081	0.418881018227
0	25175	15818.582088090596	0.542659976892
0	25190	15825.531483960357	2.507680237513
0	25195	15830.271467003467	0.729562093224
0	25200	15832.427434258284	0.592799575767
0	25207	15834.196893359807	0.983811734943
0	25210	15834.64559937468	0.881096644141
0	25215	15843.715817544786	0.787519907532
0	25220	15848.345188489881	0.823896472948
0	25229	15856.237334315329	0.758409799216
0	25245	15863.716416984339	0.549099087762
0	25267	15874.314223742987	1.761717664317
0	25275	15877.310580395627	0.745500415238
0	25280	15879.100229537042	0.558480946673
0	25285	15882.614413088761	0.602569392882
0	25295	15893.853669805652	0.415157723613
0	25310	15899.974201750305	2.516374541691
0	25330	15911.802241313828	2.13213241286
0	25335	15913.118294101	0.888768974738
0	25345	15935.631422733364	4.353543873123
0	25350	15937.030227842378	0.530630723899
0	25360	15945.664114165775	0.621944341995
0	25365	15946.924492568327	0.485733783338
0	25382	15960.858616249311	0.949403454829
0	25390	15961.975704333746	1.098586211457
0	25422	15971.881425200371	0.969861042826
0	25425	15972.469000484809	0.910912004211
0	25430	15974.484824015877	0.740411346499
0	25455	15986.507602594471	5.037726943651
0	25462	15994.820804791307	0.966512124939
0	25475	16013.185266049306	0.90368319191
0	25480	16018.345788645862	0.727645030711
0	25485	16021.940424838925	0.941995047824
0	25495	16026.000196522289	0.462680017622
0	25504	16029.7732604125	0.956371178525
0	25527	16035.622859926488	1.568138255239
0	25530	16036.586910172332	1.381088016349
0	25540	16038.310855484671	0.672151165065
0	25545	16042.328766555338	0.919309618836
0	25550	16047.258948625475	0.741618054174
0	25569	16052.487043756735	0.689937397838
0	25572	16053.439717070083	1.413417045561
0	25575	16053.843672912358	1.554914902917
0	25580	16055.009728394044	0.639872925961
0	25585	16058.639449258757	0.78976003835
0	25590	16061.780071177368	0.856690452434
0	25605	16074.00500174879	1.669748743979
0	25615	16079.280629456643	1.31378695433
0	25630	16084.429709343077	0.839554821653
0	25637	16085.338581647418	0.56694802884
0	25640	16086.03087952749	3.409043634162
0	25665	16102.671396561185	1.334527358154
0	25672	16112.217801691619	0.987725963024
0	25675	16112.734528305828	0.668322640032
0	25695	16123.825676674971	4.209418948653
0	25700	16124.844121465698	0.701020069793
0	25705	16132.801119968111	0.840254046442
0	25710	16136.571405250523	0.519767792756
0	25732	16165.023703013581	0.912177700642
0	25745	16177.905521377539	0.878817863357
0	25750	16179.396506180744	2.856574766244
0	25765	16188.222325656833	0.940414412832
0	25772	16192.195996698285	0.61623970014
0	25775	16193.060850264704	1.243425222954
0	25785	16197.704947845746	1.939611976519
0	25790	16203.257011095714	0.621624333784
0	25795	16209.970444846643	0.575026973011
0	25805	16222.92935843468	0.957182053756
0	25810	16235.200869262636	0.761127939634
0	25830	16257.646281246356	0.829361193301
0	25850	16265.340476910265	0.718438475812
0	25855	16269.315257929612	0.443132622028
0	25865	16276.969242426458	0.625492595229
0	25880	16283.313407743157	1.072569631039
0	25885	16285.022254421863	0.626138482476
0	25890	16289.235037364871	0.950860648835
0	25900	16295.88859767728	0.534920339566
0	25925	16306.269233118909	3.965981768419
0	25937	16327.515599764884	0.903937385557
0	25940	16327.930408475968	1.261056275904
0	25955	16346.582717605271	1.252411820975
0	25970	16351.979023648811	2.701297356666
0	25980	16354.407276926735	1.927098202107
0	25990	16357.496274618503	0.456563898362
0	25995	16360.930344715255	0.843865254056
0	26010	16367.258582432744	4.405044514665
0	26015	16371.060161923472	0.729251225898
0	26020	16372.590136606531	0.538741109567
0	26030	16380.83191704292	0.687032782566
0	26035	16388.525359625555	0.674914975045
0	26040	16392.594558082435	0.403718624497
0	26045	16394.155161429514	0.81826209547
0	26050	16403.874631191706	0.444468127424
0	26065	16426.318786877295	0.812318610447
0	26070	16431.671297190976	0.794674566388
0	26077	16432.697495440446	0.915770473238
0	26092	16447.140582343351	0.6931036992
0	26095	16448.041752264343	1.438801952808
0	26100	16454.487433653093	0.439554674225
0	26120	16461.593349057865	1.029409327566
0	26125	16464.229348643925	0.481491070008
0	26135	16473.450107768642	0.59390357607
0	26140	16474.301912781948	0.437050715741
0	26145	16475.49767310254	0.702710550325
0	26170	16489.318057696299	0.982676185574
0	26175	16491.675917301787	0.764840897126
0	26197	16497.016458882422	0.548830722272
0	26205	16498.989385632691	0.979225949757
0	26215	16514.866317251825	0.615415638499
0	26220	16516.877895824764	0.801762170857
0	26225	16530.009504488145	0.806247817446
0	26235	16532.990717218691	0.553943817737
0	26247	16538.973334264548	1.834113791129
0	26267	16549.699699842158	0.676941252919
0	26280	16559.118990960072	0.499939481867
0	26295	16566.370663148964	2.35070702078
0	26302	16567.377964176343	0.984478336247
0	26312	16568.521087800817	0.821851514068
0	26315	16569.181826437743	3.937781968204
0	26320	16581.597141096863	0.452153407829
0	26330	16587.126187431484	0.539232881134
0	26335	16591.782369458134	0.908264376828
0	26347	16601.417738524719	0.562933702674
0	26355	16608.940365666791	0.683491499582
0	26360	16611.49344167458	0.906330027198
0	26365	16613.55883954376	0.848440211918
0	26370	16615.930987814595	0.535491410363
0	26375	16620.959966597672	0.432046427578
0	26380	16624.535225555298	0.470773795247
0	26392	16628.011747624725	1.175487251693
0	26397	16628.74201571783	1.040056220862
0	26400	16629.380306518217	2.553057861561
0	26410	16635.953018052614	0.848960790969
0	26415	16642.456377817435	0.633413884183
0	26422	16643.024829264856	0.407072642352
0	26425	16643.717747259219	0.946689425902
0	26430	16646.674825441064	0.51770325359
0	26477	16672.360273957004	0.590471303649
0	26480	16673.027482790345	3.813532393825
0	26501	16680.312143034609	1.690559131075
0	26509	16681.373043777123	2.573437637257
0	26522	16683.901132265181	0.966257777417
0	26525	16684.664820660679	5.677142439885
0	26554	16690.586048817354	3.896654495691
0	26557	16691.517207448928	2.967164283954
0	26560	16692.228173371589	2.198059474683
0	26570	16695.727535648387	0.417298442824
0	26575	16699.201080604782	0.785379959736
0	26585	16705.311427622477	3.419359735751
0	26590	16727.639287464332	0.726867235918
0	26601	16729.977522132049	0.997457325924
0	26630	16735.14389242169	1.799282543773
0	26650	16739.118486133919	3.243034698036
0	26655	16742.03174900478	0.451280686446
0	26660	16743.851081228542	0.572772385646
0	26690	16761.771667022803	1.566768468962
0	26705	16766.253043186069	1.868632845814
0	26710	16773.910249247919	0.476712381607
0	26740	16781.114003921869	0.710056959465
0	26747	16782.582594964042	0.823810442351
0	26752	16783.336698941182	1.326516705057
0	26760	16788.195764204452	0.475316345319
0	26772	16792.812035717355	0.568523418298
0	26780	16799.829788546975	0.662528064288
0	26790	16805.663384806467	0.632276788214
0	26795	16810.614157566002	0.986546460772
0	26804	16815.721895958943	0.955566120334
0	26812	16817.537320901867	2.473958810948
0	26822	16819.02476299172	2.550968610077
0	26827	16819.692492947539	1.261042121035
0	26835	16826.023260328519	0.88146575978
0	26850	16831.91057217692	4.616128132491
0	26860	16834.84829371366	1.223706633928
0	26865	16841.934324641286	0.763730350556
0	26870	16844.016747790683	0.698511523334
0	26880	16846.472745212602	1.711762610751
0	26885	16862.884184632704	0.825973888254
0	26890	16868.316692553894	0.451317666285
0	26910	16888.095599060128	0.892089399742
0	26915	16898.171207901865	0.551236228179
0	26935	16916.839806169389	0.740477768332
0	26940	16921.336392676406	0.44884885354
0	26945	16927.509917754414	0.563828932121
0	26970	16939.529764079022	2.654161344718
0	26975	16945.281985054944	0.405480836239
0	26995	16965.329460646767	0.83865876128
0	27015	16980.488952042166	0.508733667526
0	27025	16987.307204704001	0.485332618188
0	27030	16989.273812582348	0.44352140571
0	27040	17003.320001963928	0.417794614611
0	27055	17013.684243173223	0.996388792247
0	27070	17019.891999347693	0.797416154761
0	27075	17021.632968420348	0.875897197286
0	27090	17040.913055523028	0.50445587635
0	27125	17056.251062349247	0.734142282791
0	27130	17058.137504327283	0.417028716113
0	27155	17068.558891539231	0.990563427797
0	27165	17091.144533631631	0.824817823898
0	27182	17098.488188287452	0.893788873497
0	27185	17099.088686098553	0.766509604445
0	27195	17114.691759140288	0.537436303869
0	27205	17117.824883898783	0.844857166242
0	27210	17119.816257327692	0.79818952335
0	27220	17123.365631860488	0.460739597678
0	27230	17126.53184281052	2.493940521331
0	27240	17130.475142536851	0.495882956032
0	27247	17132.550809760818	0.919368764199
0	27260	17136.717555964967	0.803486255696
0	27265	17140.10784150966	0.852221581386
0	27270	17146.954658299333	0.724918068619
0	27285	17149.761846583321	0.651620444477
0	27290	17150.339561391499	3.375431692371
0	27305	17165.801611331291	1.474152771804
0	27310	17177.301635037225	0.824625138473
0	27319	17178.308398957894	0.606988687348
0	27325	17179.702284511662	1.788860327138
0	27330	17181.987979347465	0.924110909598
0	27335	17195.763195222451	0.56243798323
0	27352	17207.798159050143	1.928625388988
0	27360	17209.316761959082	0.456480798777
0	27370	17216.602284806683	0.503126729466
0	27375	17218.215908182563	0.9379669277
0	27382	17218.834426855982	0.488490704447
0	27385	17219.644011403748	1.168517787325
0	27395	17223.952577111239	0.789639169909
0	27410	17231.266181313697	1.828783557552
0	27420	17235.562364768656	1.262029436005
0	27430	17238.837447349897	0.405486176768
0	27435	17243.407032755915	0.574524803273
0	27457	17248.942258269076	3.016169704264
0	27465	17250.146904735242	0.533659511758
0	27475	17256.476133388286	2.077603189389
0	27480	17268.531303491574	0.709540093597
0	27485	17272.025152233072	0.869794238731
0	27495	17278.548095030754	0.598481408786
0	27500	17282.687557502797	0.426626395062
0	27505	17285.652297835739	0.965109378379
0	27510	17287.778060504983	0.891643298091
0	27515	17292.292244091738	0.751065047318
0	27540	17312.758610961328	0.831008657626
0	27555	17324.09862324855	0.45408016555
0	27565	17330.961961601718	0.769140497321
0	27572	17332.108825052541	0.443866855511
0	27582	17335.237509213853	5.437713530615
0	27585	17335.892018432216	0.805283742488
0	27590	17339.244849210769	0.662898959871
0	27600	17356.512580546452	0.763820970943
0	27617	17367.992445956688	1.968574064994
0	27627	17370.402122574412	0.818544167047
0	27630	17371.037271383471	0.949214906314
0	27635	17375.728278583293	0.792544194078
0	27655	17387.283150210208	2.283943130535
0	27667	17398.728264255872	1.562652652762
0	27675	17401.681618551512	0.660910504218
0	27685	17418.836956645517	0.86139023751
0	27697	17427.585671796285	0.995630361466
0	27700	17428.193102750702	1.092949341175
0	27710	17435.304246068809	3.794474840621
0	27725	17451.885587060936	0.838639568398
0	27730	17456.784644959029	0.733715929044
0	27770	17471.560814893107	0.420283081941
0	27780	17480.48623796387	1.441121513822
0	27785	17484.580693978363	0.782044369355
0	27800	17487.610196718787	2.93529914183
0	27805	17488.220081766042	0.477665983466
0	27819	17497.84175420665	2.657779305651
0	27825	17499.061905354548	1.562461352278
0	27850	17509.143624418425	3.693968961931
0	27855	17510.810030643363	0.961032077996
0	27885	17523.335287115686	1.941790065402
0	27890	17525.386511339755	0.96587766083
0	27895	17526.435860992588	0.562318345252
0	27912	17532.603317035994	0.578978464939
0	27930	17536.114614954364	2.345698651307
0	27935	17538.586411965324	0.878825930925
0	27940	17539.748246536511	0.963637449825
0	27955	17554.666696949944	0.880030971859
0	27960	17555.510014024883	0.478081647633
0	27967	17557.424467049783	0.796005628956
0	27975	17560.756304219093	0.469124768674
0	27980	17567.188825801786	0.980424337834
0	27985	17570.372997855624	0.923343736911
0	28005	17580.767979518735	0.93461225525
0	28010	17585.527064072102	0.946528574638
0	28020	17593.011686527448	0.610935062403
0	28025	17594.673465442741	0.810644492367
0	28030	17596.056206354693	0.702346099447
0	28040	17614.012268886208	0.427767216088
0	28050	17617.455555816648	1.994593806863
0	28060	17623.090099371131	2.030782408452
0	28065	17624.944213084116	0.739809057862
0	28080	17634.724193912187	2.637325750421
0	28090	17644.225437747276	1.476697159364
0	28097	17647.15957293306	0.928930362267
0	28110	17650.015545572669	3.688803332528
0	28120	17666.810244885686	0.538235751493
0	28135	17672.838502619083	0.785228926642
0	28145	17678.271090690859	2.010674048387
0	28150	17684.477182733998	0.488380912272
0	28157	17686.115697449764	0.508773746993
0	28160	17686.668706579406	0.954407059409
0	28175	17691.436048388768	3.097522742909
0	28185	17697.327229885924	0.651150985667
0	28200	17705.668813446036	0.914568539755
0	28215	17718.506786213514	2.072620508389
0	28222	17720.792576368473	0.819364374829
0	28225	17721.466636485647	1.397613461158
0	28232	17723.271435664321	0.569609232945
0	28242	17728.31018333402	0.997829018487
0	28250	17729.95065607502	1.840576857882
0	28267	17735.726290488829	0.466317403875
0	28270	17736.416093507017	2.369965212297
0	28280	17743.521555016872	1.173428997165
0	28285	17744.484436038351	0.771626551496
0	28310	17769.555626893852	0.679572258145
0	28320	17772.241931340677	0.558323550178
0	28365	17795.758531521187	0.94247202198
0	28400	17818.463948114534	3.573002672556
0	28420	17825.530829959301	0.575587159628
0	28450	17843.815215327854	0.898110452294
0	28460	17855.577731653948	0.854737460334
0	28465	17858.631446167675	0.616875477415
0	28472	17862.735909556471	0.932058374956
0	28497	17869.779287815039	7.170423541927
0	28500	17870.676546655494	2.103339896025
0	28510	17876.513237762183	1.726078928261
0	28517	17886.346845751648	0.905878804065
0	28520	17886.909187879293	1.30307876792
0	28535	17902.398945642135	1.828236107936
0	28542	17905.381449471157	0.493965342548
0	28545	17905.832062382692	0.932395333038
0	28550	17906.97584398079	0.411213963013
0	28565	17920.131826168686	3.279924422025
0	28585	17945.227438101442	3.6819864973
0	28595	17949.043673039853	2.5246208794
0	28600	17952.848354829915	0.419834421994
0	28615	17956.012095335945	0.912727492722
0	28620	17956.895015298319	3.991822716746
0	28625	17961.894822006675	0.408705950202
0	28630	17963.628006192631	0.900854400173
0	28640	17965.725715776497	1.173536740841
0	28647	17972.188663884776	0.706695002411
0	28652	17973.09119652916	1.082574480081
0	28657	17973.799832557526	1.203818627938
0	28665	17975.575925913014	0.416591025144
0	28670	17977.747234605697	0.663926060405
0	28680	17992.874890314623	0.977427544398
0	28695	18001.603877758771	3.470407530368
0	28702	18002.585409475105	0.571426243335
0	28707	18003.112517656978	0.79106211888
0	28710	18003.750352511029	0.879664483401
0	28715	18009.997202536209	0.906636344548
0	28727	18013.990004843093	0.927694090363
0	28740	18017.532683419851	0.507570112823
0	28760	18024.25321583225	0.693135498883
0	28775	18039.940833635539	0.742881369835
0	28780	18040.634152867335	0.467293018708
0	28785	18042.978160141339	0.66486722785
0	28810	18055.936642395521	3.607786406619
0	28815	18062.970196903527	0.780432583159
0	28825	18068.903250429744	1.134543552218
0	28835	18091.901720415046	0.629368987121
0	28840	18104.239494197607	0.663149903854
0	28847	18107.171375549116	0.898780204775
0	28850	18107.731672826406	0.698219007747
0	28860	18115.643619118144	0.935754100792
0	28865	18117.080301093247	0.825323532615
0	28880	18131.374497658354	0.412307470012
0	28885	18142.768563776792	0.50423454647
0	28890	18143.769938379201	0.987211891823
0	28900	18152.103401635771	0.869842281844
0	28905	18154.260995996266	0.577504216554
0	28915	18156.589677512993	2.116824562314
0	28922	18159.313204222581	0.434993275348
0	28925	18160.154026698683	1.275418336366
0	28935	18163.530304256397	0.578651033295
0	28940	18169.727459563749	0.485713303275
0	28947	18172.282122974608	0.682128538284
0	28955	18174.936728701436	0.440731487004
0	28965	18179.769361344421	2.895133690461
0	28975	18187.803159369058	0.902576038893
0	28985	18194.969337086664	0.832177766319
0	28992	18210.016497775606	0.830082685733
0	29005	18212.23600589971	2.72269238439
0	29054	18231.194240407405	5.221668924018
0	29065	18232.860772108512	4.003943901932
0	29080	18236.669869685207	0.819329087435
0	29094	18239.055682873949	1.314296007746
0	29100	18240.749587801229	2.609739987578
0	29117	18261.453588418556	2.352978018413
0	29130	18265.404689257752	0.84772567912
0	29140	18269.259104211932	1.649226208932
0	29145	18271.32676809667	0.54735003016
0	29155	18273.643906954411	1.862856551961
0	29167	18299.26128284522	0.570790976658
0	29172	18299.776818356762	1.07452074309
0	29175	18300.325432318827	0.87292513696
0	29182	18334.330570669259	0.923892742628
0	29197	18339.250633832207	1.628609796553
0	29205	18342.014315555646	0.506964844698
0	29220	18347.893963086326	2.484075269269
0	29232	18350.932827677396	0.69807987418
0	29245	18357.20912369611	0.975067695975
0	29250	18359.162487888879	0.876149884006
0	29255	18362.95132921479	0.441923629167
0	29260	18382.115810945562	0.825174759421
0	29265	18384.585410532936	0.717209402146
0	29282	18401.55682005651	0.877587407362
0	29292	18406.934743659662	0.585658915946
0	29295	18407.837045954538	1.37846868302
0	29300	18411.795862937276	0.843812662084
0	29310	18422.655227455703	0.916830790598
0	29315	18436.154183926505	0.477714263229
0	29320	18441.916626256046	0.636680068076
0	29325	18448.401158231753	0.438390661031
0	29345	18464.723407345233	0.902279413677
0	29355	18476.167187939461	0.946447548596
0	29370	18480.350568982749	0.998865161696
0	29385	18495.753232299797	0.570513911173
0	29400	18500.605811099412	1.129801276614
0	29410	18508.257550617759	4.638848895399
0	29427	18513.081256447241	2.925974626249
0	29435	18517.721419693565	0.52504828223
0	29440	18525.940387628636	0.791809006734
0	29475	18551.369789449318	0.629262206843
0	29485	18557.492373532931	0.721867508488
0	29490	18560.731569592124	0.983805837296
0	29515	18588.93149092335	0.568288215948
0	29522	18593.96382017998	0.672335095378
0	29530	18596.01100715789	0.739233328821
0	29537	18597.894953260024	0.948243546113
0	29547	18599.989379072171	6.500323160685
0	29555	18601.329606922418	0.719149758771
0	29560	18602.038546534917	0.413798214821
0	29565	18603.434932881094	0.671049230685
0	29572	18606.697791014378	0.710562062589
0	29592	18613.79373741226	5.758287937728
0	29595	18614.242703024174	0.818037150415
0	29600	18615.027409451012	0.758055281732
0	29605	18617.412631734	0.842203992838
0	29610	18621.266464709435	0.786213099398
0	29615	18625.19741131315	0.412335387897
0	29620	18632.312352061985	0.658156763762
0	29632	18646.395534005244	0.555899421079
0	29645	18654.753186029619	0.48648656318
0	29650	18663.151355346961	0.90230015344
0	29655	18676.924635521765	0.406068023201
0	29662	18689.7293417225	0.918871088978
0	29665	18690.603466783032	0.913790699716
0	29680	18701.39959859615	0.854310832499
0	29714	18708.234709604605	3.449796628172
0	29722	18709.938867465275	2.250509606201
0	29725	18710.586722694019	1.064622389484
0	29737	18716.457873446334	0.917154845549
0	29755	18723.964284127387	3.34939702005
0	29762	18732.738973851869	0.879563573888
0	29765	18733.340269206366	0.763883494147
0	29779	18736.725720355852	0.882962305425
0	29785	18738.139372657943	2.217986471946
0	29792	18746.422516633337	0.824536474701
0	29795	18746.824817935144	0.977255279423
0	29802	18762.653138309511	0.953381742584
0	29835	18774.823477845001	0.485209604958
0	29840	18780.447334189701	0.691015871754
0	29865	18785.329933091723	3.25370928817
0	29870	18788.876793798408	0.880210918747
0	29882	18791.157225000635	1.635135192464
0	29890	18795.936118157956	0.522410621215
0	29905	18807.71811901451	1.4808824193
0	29914	18810.602525850138	0.9882423345
0	29919	18811.047780128414	0.693876780218
0	29935	18815.56466264332	5.008646174478
0	29960	18841.429833059002	3.019641830578
0	29970	18845.641277385955	0.922431393346
0	29980	18847.345025050805	3.098771359671
0	30005	18864.646659198201	0.955923636025
0	30010	18871.015823534288	0.5515731839
0	30020	18880.026457327477	1.217133270436
0	30030	18883.471585835808	5.035922215739
0	30035	18888.181694275717	0.47668130612
0	30050	18901.670539259363	0.815632726951
0	30055	18907.233385004459	0.705179628637
0	30067	18910.804313330918	1.300371207211
0	30075	18917.420463973417	0.731039573951
0	30080	18921.455799505185	0.416179064102
0	30090	18931.040171696013	0.673318539467
0	30100	18936.28646302169	0.955228456622
0	30110	18939.886152413898	0.89152117921
0	30120	18943.69593591383	5.602409557181
0	30127	18946.224605120369	0.562592591066
0	30130	18946.873873336822	1.200346201239
0	30135	18949.952093746712	0.641844272194
0	30155	18960.803784212637	0.764546411531
0	30165	18969.970488026101	0.751110063167
0	30170	18971.436358619331	0.469137031538
0	30182	18977.1312109328	0.586835223995
0	30190	18978.646655637039	0.96019747164
0	30200	18990.440834941002	0.844489818159
0	30205	18999.578556500332	0.999688816816
0	30225	19009.323860737483	1.056058814943
0	30270	19028.421784187738	4.575377895807
0	30275	19029.257192943147	5.903091223903
0	30280	19033.49644984516	0.671645441186
0	30287	19035.769734837894	0.864722838765
0	30305	19057.001846891452	0.825339518161
0	30310	19059.528151614559	0.455813146383
0	30315	19060.004148743332	0.457706379145
0	30320	19060.640895956191	0.418741028989
0	30332	19068.545691771092	0.595000025397
0	30345	19070.84382215399	2.796681614182
0	30350	19073.182331806959	0.777848230349
0	30365	19079.000700055157	1.187011683577
0	30375	19086.966928271899	0.825233172346
0	30380	19091.120721494809	0.66107677673
0	30392	19097.785410493682	2.77535853655
0	30400	19099.666556795777	2.00212290919
0	30410	19107.234636126089	2.13195317426
0	30422	19132.146651846036	1.18206354838
0	30432	19135.218461707979	4.475287630497
0	30435	19136.05343970987	1.641755393309
0	30447	19144.755899589182	0.908908568136
0	30450	19145.516551636624	1.392185894695
0	30465	19151.439934725983	2.446874648043
0	30470	19156.948224671237	0.411277061421
0	30480	19166.081524893817	0.530561360996
0	30485	19171.385917775119	0.493526865495
0	30495	19173.155751557997	1.730799659863
0	30502	19179.874740178511	0.968809678638
0	30505	19180.683243648382	0.879497790367
0	30512	19188.340917707732	0.808287620917
0	30515	19188.852511397688	1.304130816258
0	30525	19190.473572316906	0.558514918387
0	30532	19192.109658508058	0.896254788898
0	30535	19192.521844654632	0.977141372199
0	30542	19201.875924405162	0.603146128589
0	30550	19205.129371788444	0.456171493279
0	30595	19217.765891068925	2.16252312498
0	30600	19221.537465657984	0.844816030655
0	30605	19222.664585658756	0.484537661308
0	30620	19227.001998930159	2.136648770065
0	30625	19244.1811612265	0.711823973479
0	30645	19256.92866005653	0.970835732017
0	30655	19263.285228552265	0.581385609647
0	30660	19266.155337909972	0.45491885487
0	30670	19283.16155795187	0.839777839649
0	30704	19298.504975698964	3.831991648678
0	30719	19300.093019374722	2.169798307963
0	30727	19301.331689826103	4.27092700298
0	30745	19312.484511472216	0.740154681308
0	30795	19342.182419770807	0.718466070015
0	30805	19347.237166403003	0.522886244068
0	30815	19357.044216200005	0.566256606486
0	30820	19361.223819019527	0.763054672489
0	30850	19376.917106743091	2.157187914237
0	30855	19385.852174187173	0.640903280908
0	30860	19392.602297122486	0.528117454937
0	30865	19393.434389129534	0.618567654025
0	30870	19399.721873374736	0.96255259742
0	30875	19404.275302653457	0.401016925462
0	30880	19407.64453327861	0.787345683109
0	30887	19409.458476513341	0.997772059683
0	30890	19410.08802705458	1.526090902143
0	30900	19416.932705060377	0.876167049864
0	30905	19421.692084570194	0.555142692523
0	30910	19423.60002732039	0.725235341815
0	30920	19434.3968923664	0.788251287397
0	30930	19440.63091051105	0.728411469981
0	30935	19447.702957799274	0.906873217551
0	30955	19468.576809696885	1.14261467961
0	30960	19469.047543471149	0.428582340945
0	30970	19474.195464676596	0.699926048843
0	30982	19489.553051094503	1.419142690919
0	30990	19491.058255552078	1.735357593229
0	31015	19512.324613299696	1.90601298391
0	31020	19531.132957713927	0.444234749535
0	31025	19534.922097056416	0.92821009024
0	31030	19549.9203757149	0.940672578663
0	31035	19565.706009528789	0.93787867967
0	31060	19573.268830224238	4.174989476807
0	31065	19575.265956777742	3.959828653705
0	31072	19579.442422964743	0.697313319659
0	31085	19585.759102231141	0.404471820919
0	31095	19589.741201573513	2.405791421213
0	31105	19595.818774828945	0.411077636946
0	31112	19600.587038961303	0.674602949759
0	31122	19601.818834714143	1.098527633956
0	31132	19603.229647394101	0.740069888037
0	31145	19617.267981825836	0.504965538532
0	31155	19627.574886380315	0.725512216333
0	31160	19633.226852343798	0.464068839885
0	31175	19653.395967919342	0.481432166742
0	31187	19658.980617788251	0.701127623707
0	31190	19659.691680629881	1.91986135114
0	31195	19667.322519035547	0.744493928039
0	31200	19678.587936947424	0.999304696824
0	31205	19681.461803600854	0.794845717866
0	31220	19690.351039656702	1.045804432574
0	31225	19692.126961483352	0.846053079842
0	31235	19703.85661451741	0.951913960418
0	31250	19723.291204179486	0.840747308452
0	31260	19747.42666718638	1.515678081713
0	31267	19748.184927278245	0.644785072561
0	31270	19749.089122026507	1.002657082595
0	31275	19751.891391974903	0.913577846996
0	31290	19756.459799933551	2.56900462069
0	31305	19795.542992892384	0.934359445982
0	31315	19797.208432143999	0.947943970885
0	31320	19807.935587011932	0.460392990755
0	31325	19813.019623033042	0.937488104217
0	31332	19825.773419060472	0.42362608905
0	31335	19826.225852328313	0.671029897282
0	31375	19849.306428331313	2.07817222979
0	31380	19853.343745113584	0.462646843446
0	31387	19853.933796025073	0.559282321855
0	31390	19854.353739350201	0.865412260044
0	31400	19865.065671508615	0.683843864035
0	31405	19875.120216480059	0.926842918852
0	31415	19879.44258389513	1.264902968086
0	31425	19889.797650994564	2.460507362322
0	31435	19899.058507602347	0.632925375132
0	31450	19908.849414170548	1.222658331433
0	31460	19911.527574708779	0.611451371573
0	31465	19923.286607731902	0.548591192486
0	31475	19925.06936066571	0.90062943049
0	31480	19926.208406036887	2.421455424154
0	31502	19941.499506113091	0.633654786926
0	31510	19943.185609673983	3.990917233961
0	31530	19960.130082657915	4.023599432161
0	31535	19961.888389278941	0.484039854072
0	31540	19968.127357190096	0.855217906274
0	31555	19976.805220761649	1.605295625016
0	31565	19989.690802671474	0.463134877803
0	31575	19996.726770731178	2.420461759826
0	31580	20000.026246868509	0.587128529977
0	31585	20008.866859680781	0.675919057894
0	31592	20010.536300158759	0.924995204015
0	31595	20011.014588095227	0.576006191596
0	31610	20017.350775189729	1.80526961653
0	31615	20018.305482598999	0.803847047733
0	31630	20028.119992883163	0.472585540405
0	31640	20037.633034643575	1.493500908536
0	31669	20051.055464765009	0.764285792876
0	31672	20051.874417310114	1.429843698651
0	31675	20052.345238850777	1.381315931327
0	31680	20059.300214230898	0.917980994005
0	31690	20073.702710732244	4.349626691294
0	31695	20078.358048049717	0.912071423559
0	31700	20088.280379494088	0.943219328998
0	31705	20091.906877246891	0.962566433288
0	31710	20093.913265162671	0.741980700986
0	31717	20105.767607266191	0.930797162699
0	31750	20112.326397774723	7.283558882203
0	31755	20116.144291003186	0.840565667581
0	31785	20134.411516054589	0.870761458529
0	31795	20139.37553311279	3.076061662419
0	31807	20142.028023116256	1.524217975766
0	31822	20144.038024085259	2.066058254582
0	31827	20144.913833493145	0.87887972112
0	31835	20148.03922710514	0.664281309489
0	31855	20151.227052183427	6.688423282756
0	31860	20157.768506947258	0.791581294872
0	31900	20182.287114233667	0.604556660959
0	31925	20207.406087116197	3.237689291504
0	31940	20221.363648793785	0.439182598609
0	31970	20234.631772224208	0.513147437479
0	31980	20243.41632206518	0.927848676825
0	31985	20251.051361572815	0.947459540749
0	31995	20257.700374976651	0.40001954576
0	32002	20266.200833999848	0.669090203056
0	32010	20268.227057083095	0.844876190368
0	32020	20271.495654589563	1.164026119874
0	32042	20274.645092232386	0.894473489152
0	32045	20275.330374019174	2.267219796543
0	32060	20287.152661488366	4.113897702013
0	32085	20301.12641572208	0.990110935783
0	32090	20317.936210701099	0.494291057438
0	32107	20325.239907336713	3.114779466739
0	32110	20325.663418535854	0.471212499012
0	32125	20336.33767143872	0.61112142913
0	32137	20342.771930031082	0.942116787005
0	32145	20354.123943318417	0.96947680451
0	32162	20361.033037445843	0.492803340871
0	32165	20361.721511391327	0.77556035603
0	32172	20362.871834878249	0.950307123177
0	32175	20363.424241463605	0.805597610397
0	32210	20383.803724999951	0.462785088271
0	32217	20385.612920699213	0.766125348629
0	32222	20386.235448308653	0.859931706025
0	32240	20395.149830853506	0.735429905169
0	32250	20412.014115635008	0.453295704769
0	32267	20430.679361733603	1.167903143087
0	32282	20435.272268618089	1.634529844159
0	32285	20435.919931431445	1.984789073111
0	32304	20445.961586528114	0.974167042319
0	32307	20446.483779575239	0.959569826553
0	32312	20447.316864851053	1.443818050402
0	32335	20461.121465117443	1.986019537102
0	32340	20464.494772039442	0.648825348122
0	32350	20472.585806105663	0.687922932301
0	32355	20490.226314237703	0.957824163698
0	32360	20497.043110432835	0.805046706647
0	32370	20503.12190920582	1.476966946455
0	32380	20508.020755890426	1.507946311211
0	32400	20534.853616219609	0.911637509614
0	32410	20549.442179698342	0.665387139563
0	32415	20550.762893497447	0.49792900444
0	32420	20552.971902465039	0.431251499336
0	32425	20556.054234950169	0.65299276486
0	32430	20569.906751092222	0.584527630592
0	32450	20579.955519976004	3.455341491636
0	32457	20582.936080167303	0.569414955936
0	32460	20583.516012435546	0.773323624015
0	32465	20588.600758913428	0.70170955942
0	32472	20590.227850968642	0.899073045002
0	32485	20593.026842865064	0.596877832245
0	32490	20594.54274138558	5.04328274931
0	32495	20596.971291209233	0.937461485947
0	32510	20602.795276012714	0.990010557882
0	32515	20604.631532929603	0.618198087951
0	32520	20615.373085483618	0.600464829849
0	32525	20619.869049609401	0.435010230821
0	32555	20629.588254362763	7.480873037555
0	32582	20639.289689893298	2.951075699618
0	32612	20649.152757004926	1.10183897322
0	32615	20650.144700085044	3.671819492222
0	32645	20666.190543167105	2.926023478197
0	32650	20669.468330676808	0.560425675055
0	32655	20671.250247227369	0.711831340054
0	32672	20675.114591789103	1.605577860337
0	32675	20675.563800730879	0.617276046028
0	32690	20678.132696977336	1.30569370287
0	32695	20683.985323164817	0.671918549994
0	32700	20684.794935488813	0.705312568834
0	32760	20707.078232213124	2.874135559173
0	32765	20709.900266573798	0.819160124753
0	32775	20714.608389275641	0.585030090762
0	32785	20716.63186573973	0.687552527059
0	32800	20722.369578398036	1.834157636387
0	32820	20736.176483288669	0.987404415896
0	32837	20763.128249802448	2.340282162084
0	32840	20763.58629904446	1.036424036922
0	32892	20828.793069623172	0.648783502728
0	32900	20831.105955576884	0.824609586829
0	32910	20837.389718988326	0.426229140768
0	32915	20839.311199637905	0.612115609739
0	32920	20841.243307370244	0.934856364597
0	32935	20850.415262530704	1.488070819257
0	32940	20858.655194378464	0.594059456559
0	32945	20863.099164436444	0.469201336522
0	32950	20872.353421166918	0.886075936863
0	32960	20880.000674858615	0.812659081118
0	32965	20883.534810594618	0.641635864135
0	32985	20893.865796905282	0.455566780176
0	32990	20896.342125920418	0.645065378491
0	33000	20900.866902496697	0.80180346081
0	33005	20902.370562571506	0.818791865837
0	33030	20923.342290335704	2.154353320534
0	33037	20926.09012595251	0.914363139821
0	33045	20942.537107139975	0.783025784185
0	33050	20943.508660415796	0.858860706259
0	33055	20947.770189731528	0.899531765189
0	33065	20956.069363374592	0.473626476806
0	33072	20964.241739278914	0.993929334683
0	33085	20966.99717137148	2.107286352449
0	33105	20982.105892248797	2.854904014817
0	33115	20992.415228945237	0.919195706537
0	33129	20997.996591232868	0.887603415083
0	33135	20999.504055067768	2.178779497245
0	33149	21002.40132782325	0.904775176477
0	33174	21005.754201232836	3.925601908766
0	33183	21006.67860291764	5.779942563005
0	33188	21007.194569878567	2.487876174247
0	33191	21007.889892635781	2.050140242524
0	33194	21008.447793823395	5.64982596781
0	33197	21009.234012455268	2.764928401505
0	33200	21010.000025101386	2.887623877611
0	33207	21016.865727392383	0.856582896411
0	33215	21018.420934279279	1.785929198232
0	33220	21023.216218102874	0.804089136934
0	33225	21024.252603302134	0.839745404897
0	33230	21037.437929013274	0.491437914316
0	33235	21041.669391090076	0.905506082904
0	33240	21042.647981856874	0.573566156765
0	33257	21057.625249966838	1.344012601823
0	33267	21059.074642219998	0.90237944899
0	33275	21060.579908935188	1.722026423556
0	33280	21066.942755146181	0.650739879999
0	33287	21068.768254109156	0.999937845953
0	33295	21070.572478475392	2.694153127815
0	33312	21079.29053767839	0.932631117944
0	33315	21079.725626173835	0.560840509362
0	33325	21089.845815683733	0.89585523014
0	33330	21094.326514190353	0.605962626729
0	33335	21095.39044452087	0.622729207622
0	33340	21102.233906654023	0.891273833718
0	33350	21109.19078817073	3.603515841224
0	33357	21112.129230218353	0.578726457292
0	33370	21120.848954701192	0.462728124438
0	33390	21142.561092413646	1.385429865522
0	33400	21145.575914854141	4.614473374135
0	33407	21146.180322126069	0.449284574902
0	33444	21163.445358427589	0.830334373191
0	33449	21164.260267439227	1.497757453949
0	33452	21164.79797018871	4.558834913354
0	33457	21165.623775457519	1.806067382786
0	33470	21180.565649968386	0.583631869731
0	33482	21183.578913855036	1.231685604379
0	33495	21185.31626772475	1.490695846518
0	33517	21194.041862529671	3.226469372511
0	33527	21197.862147064109	0.911761815613
0	33540	21213.033382347292	2.48015582996
0	33545	21223.87580724034	0.540541242575
0	33557	21228.379994000586	0.97548197615
0	33560	21229.320118744344	1.659906618285
0	33580	21259.966522126844	0.720397352148
0	33585	21263.904524486729	0.49362436044
0	33595	21273.504746019383	1.547121398351
0	33600	21274.085062627634	0.417351285135
0	33605	21276.302148093185	0.474453864107
0	33615	21278.101619720651	0.961417965243
0	33625	21286.239973151037	0.467598630581
0	33645	21290.135036776191	0.890894505801
0	33650	21292.01008459193	0.629235324403
0	33662	21293.543623885298	0.675321243845
0	33665	21293.973714275351	0.5350724861
0	33670	21296.360780017171	0.484851247864
0	33677	21309.602624759169	0.931523125339
0	33690	21318.911284820348	0.839952513203
0	33695	21321.096222900833	0.535005340446
0	33705	21331.958650431438	0.670665045036
0	33722	21343.266618594376	2.268355790573
0	33730	21344.383276097328	2.907847723588
0	33750	21355.680083191527	2.052005476064
0	33755	21356.820858611276	0.934238192253
0	33760	21364.922151658816	0.812519471021
0	33767	21371.460087137262	0.661083512986
0	33790	21386.888726051234	0.750586950965
0	33795	21392.50952006141	0.880578908464
0	33802	21393.906179382736	0.578343404597
0	33810	21395.305128222151	1.582234733032
0	33825	21410.108207414142	2.54439244587
0	33830	21421.112757403579	0.410847197054
0	33842	21424.708491650643	0.546836435888
0	33860	21442.917995544817	0.745027245767
0	33875	21454.49178365462	0.485010267096
0	33880	21457.167892757604	0.6382186512
0	33885	21461.90869634615	0.91723214807
0	33890	21468.108601723547	0.524403777439
0	33900	21474.956477723054	0.511682640528
0	33905	21477.063294287174	0.596382172313
0	33935	21484.704863081532	0.42437137519
0	33940	21487.364456081079	0.907872681972
0	33955	21497.530734959377	0.831821953364
0	33977	21501.000100710625	0.527397538442
0	33980	21501.768155507427	0.903123303402
0	33985	21504.00436535631	0.963230779301
0	33995	21515.396586495443	0.459445151873
0	34000	21521.685724773902	0.797754137125
0	34012	21533.41725400991	0.925134949898
0	34020	21535.963353634464	2.815209996319
0	34025	21541.831422515412	0.696551169828
0	34030	21543.137361458624	0.807150622178
0	34040	21545.8644139504	2.682645872659
0	34045	21549.88670653471	0.681622373173
0	34050	21553.094883355773	0.946154588507
0	34055	21574.8534206793	0.941292510787
0	34060	21577.377002360666	0.952232362097
0	34065	21581.291717830416	0.810956508713
0	34075	21585.033974723124	0.573703429149
0	34095	21598.731105047768	0.969667232269
0	34115	21622.762375022747	0.469104972295
0	34120	21630.216772384352	0.535552874021
0	34125	21640.166571648944	0.400589493103
0	34130	21646.895265397508	0.970965608908
0	34135	21657.275375718844	0.729241727665
0	34147	21669.080876470498	0.751161877299
0	34160	21673.446414287836	0.92465793984
0	34165	21678.49685621276	0.76980433818
0	34175	21683.2060246767	0.889362001931
0	34190	21688.567119365729	0.709129754733
0	34202	21708.898900602143	0.788827340957
0	34235	21716.736415293117	2.49659929746
0	34272	21742.410978384716	2.472909057239
0	34280	21743.325329251735	1.031245916879
0	34287	21745.446392198569	0.698327099113
0	34290	21746.234794225694	0.904693629285
0	34300	21749.289509170276	1.806093990128
0	34307	21753.163955582258	0.892480123276
0	34310	21754.065509423612	1.182843705955
0	34355	21775.002929160991	2.841342238829
0	34382	21783.814984719537	1.631129636321
0	34395	21792.455001045388	0.545743764006
0	34412	21801.404550132903	2.535269789012
0	34417	21802.204487162645	2.219129842473
0	34425	21803.604175313518	1.318696551582
0	34430	21804.822572085265	0.489306751871
0	34447	21815.152352278456	1.077091707664
0	34450	21816.102839600537	2.407703298843
0	34465	21825.712939544295	0.870782638481
0	34490	21833.305096146375	2.697794826147
0	34500	21840.955444349648	0.746386239491
0	34505	21853.492667686866	0.521731392574
0	34530	21871.24592461898	3.555937149535
0	34535	21884.312509577869	0.611732212827
0	34550	21887.087735163953	1.93854165269
0	34555	21888.69939489578	0.426101862546
0	34560	21892.063527069157	0.635411295341
0	34582	21906.776799217446	0.436298671132
0	34585	21907.428729290117	0.947414786785
0	34595	21912.650299259107	2.139605817962
0	34605	21929.164699814249	0.718053759728
0	34610	21935.381978592615	0.583836974483
0	34615	21942.822517372378	0.749759839708
0	34625	21947.340255482846	0.894073765306
0	34630	21951.865957851469	0.683953369269
0	34635	21955.050432732215	0.657949055312
0	34640	21956.475679813198	0.568964613741
0	34657	21963.21477575093	0.89357223399
0	34660	21964.10245008781	1.756629065394
0	34682	21981.480758539357	5.142531224143
0	34694	21990.368712835577	0.699504701048
0	34700	21991.558348074233	1.622170748894
0	34705	21995.312801287672	0.538009694358
0	34710	21996.839069197988	0.844743658509
0	34717	22005.595103276395	0.903009696631
0	34720	22006.48257801292	0.967827224867
0	34725	22009.821768432742	0.616997044208
0	34792	22026.498623138221	3.211166191124
0	34815	22038.095731285262	0.790714956028
0	34835	22049.530728515854	1.993382509662
0	34857	22062.245343644349	0.754775849404
0	34865	22064.258023762276	0.574970001634
0	34870	22065.362581224744	0.816696443409
0	34905	22085.762429649203	0.924266599398
0	34910	22086.66680036294	0.655751684215
0	34915	22087.418930782716	0.680504047638
0	34927	22097.480402146352	0.609799409239
0	34932	22097.988720240097	2.884620985972
0	34940	22100.386153889039	0.422701821476
0	34947	22103.043961361931	0.95273587713
0	34950	22103.505969031616	0.645670985675
0	34970	22120.910246060882	3.352561314642
0	34985	22124.004590297467	1.785835972005
0	34990	22126.015652626338	0.599472166505
0	35000	22130.191167256373	3.287052221232
0	35005	22131.68092632021	0.593529357761
0	35010	22132.400547531163	0.5434403311
0	35015	22134.020690784128	0.909682579897
0	35050	22146.108423286573	4.934382905527
0	35055	22147.328323512509	0.56426590546
0	35065	22150.988744367999	1.085230120478
0	35090	22173.803018560323	0.528221842879
0	35095	22183.550434333307	0.514924337529
0	35100	22187.767276890571	0.41738555315
0	35125	22207.277380750292	0.425600260962
0	35132	22215.683327631004	0.685031151259
0	35135	22216.255375376254	0.854082902286
0	35140	22226.342332404653	0.748820474232
0	35147	22237.540287873948	0.844937546877
0	35160	22249.790959057644	0.706306762714
0	35165	22256.896592623927	0.66726284367
0	35187	22275.12955773279	2.060975507105
[...]
7	37055	23364.806793457102	1
7	37056	23364.967178181119	0
7	37070	23389.458343879929	1
7	37071	23389.820759402574	0
7	37075	23389.836356097132	1
7	37076	23390.535882570394	0
7	37135	23427.37684775473	1
7	37136	23427.425332022679	0
7	37185	23450.933789603536	1
7	37186	23451.536036229483	0
7	37190	23451.934575971852	1
7	37191	23451.948669829988	0
7	37260	23507.281363461377	1
7	37261	23507.943718093707	0
7	37275	23519.259942053972	1
7	37276	23519.961248923152	0
7	37310	23533.409457219542	1
7	37311	23533.577311282856	0
7	37370	23571.306766680619	1
7	37371	23571.651078372232	0
7	37440	23640.670859552149	1
7	37441	23641.263783443143	0
7	37485	23673.838255185338	1
7	37486	23674.708095224057	0
7	37492	23675.054378541561	1
7	37496	23676.099107655738	0
7	37510	23680.406839757987	1
7	37511	23681.05927621713	0
7	37615	23747.520128523786	1
7	37616	23748.142984290468	0
7	37630	23756.419801046951	1
7	37631	23756.659655281269	0
7	37665	23777.228784744149	1
7	37666	23777.970594440056	0
7	37690	23789.686166893085	1
7	37692	23789.751309292661	2
7	37693	23790.123076854031	1
7	37697	23791.059827541212	2
7	37698	23791.083394816787	1
7	37702	23791.386466081198	2
7	37703	23791.993698873733	1
7	37706	23792.602776031139	0
7	37710	23792.844884904552	1
7	37711	23793.234210062016	0
7	37825	23851.427298582266	1
7	37826	23851.439461864482	0
7	37840	23866.479594048801	1
7	37841	23866.739683284346	0
7	37860	23877.772693650741	1
7	37861	23878.284309291805	0
7	37885	23894.574585360089	1
7	37886	23894.664797162511	0
7	37935	23923.553097867635	1
7	37936	23924.338333732233	0
7	37965	23943.266826512036	1
7	37966	23943.638508205246	0
7	38040	23969.360008435388	1
7	38041	23969.675082131431	0
7	38060	23978.488175661635	1
7	38061	23978.650531192322	0
7	38090	23987.920107755644	1
7	38091	23987.947300790201	0
7	38100	23988.970137628975	1
7	38101	23989.325980616597	0
7	38120	23994.270903487234	1
7	38121	23994.607178856137	0
7	38167	24008.589762337317	1
7	38171	24009.860616922628	0
7	38220	24036.271192072413	1
7	38221	24036.600380934205	0
7	38245	24044.310978231199	1
7	38246	24044.782268669687	0
7	38250	24044.886989610449	1
7	38262	24046.191010258579	2
7	38263	24046.733956379581	1
7	38266	24047.222000116247	0
7	38275	24053.184591003275	1
7	38277	24053.223783290988	2
7	38278	24053.322197436474	1
7	38281	24053.92716371713	0
7	38295	24056.071650063587	1
7	38296	24056.503066011256	0
7	38310	24058.68310719626	1
7	38311	24059.019765458926	0
7	38320	24062.915060929966	1
7	38321	24063.324935932496	0
7	38345	24089.993097661362	1
7	38346	24090.295919968513	0
7	38460	24156.786384945915	1
7	38461	24157.730302692854	0
7	38515	24183.531186493588	1
7	38516	24184.135908219324	0
7	38525	24185.276636324219	1
7	38526	24185.349693516002	0
7	38530	24185.697676819055	1
7	38531	24186.10703557866	0
7	38550	24207.454783815596	1
7	38554	24207.994427349017	2
7	38563	24209.344267134498	1
7	38567	24209.823176349673	2
7	38573	24210.727533952136	1
7	38581	24212.203348613612	0
7	38720	24325.539497730026	1
7	38721	24325.665996354962	0
7	38745	24350.90301036688	1
7	38746	24351.749004407191	0
7	38820	24408.522897570386	1
7	38826	24409.579750145663	0
7	38890	24468.929520495331	1
7	38891	24469.546167853108	0
7	38895	24470.124497356822	1
7	38896	24470.1810279158	0
7	38935	24485.164689673725	1
7	38937	24485.318815025121	2
7	38938	24485.48128216145	1
7	38942	24485.662039691888	2
7	38943	24486.017005903222	1
7	38946	24486.815980312735	0
7	38950	24486.927220453349	1
7	38951	24487.314804863319	0
7	39037	24545.659196367657	1
7	39041	24546.823187833569	0
7	39055	24557.081659624259	1
7	39056	24557.098145923175	0
7	39105	24593.964806984637	1
7	39106	24594.24309775313	0
7	39175	24655.257939722975	1
7	39176	24655.449894076485	0
7	39235	24709.546674631905	1
7	39236	24710.355961724822	0
7	39295	24747.410839251628	1
7	39296	24747.82878312978	0
7	39345	24799.155875617222	1
7	39346	24799.861916226415	0
7	39350	24800.146317335588	1
7	39351	24800.337414659221	0
7	39375	24820.80263024651	1
7	39376	24820.80626895714	0
7	39395	24823.628701171576	1
7	39397	24823.671653085997	2
7	39398	24824.169138956283	1
7	39406	24825.346055902148	0
7	39515	24883.739041343307	1
7	39516	24883.887231518699	0
7	39610	24960.188427249461	1
7	39611	24960.553025461404	0
7	39615	24960.970124807158	1
7	39616	24961.112404280618	0
7	39635	24973.465491861814	1
7	39636	24973.657473622636	0
7	39735	25020.242726413044	1
7	39736	25020.323045126386	0
7	39740	25020.457980816232	1
7	39741	25021.317249107119	0
7	39745	25021.694002385813	1
7	39746	25022.139160760204	0
7	39750	25022.529082663134	1
7	39751	25023.004295052766	0
7	39770	25029.623302264813	1
7	39771	25030.162533457731	0
7	39905	25120.427389719592	1
7	39906	25120.60413058199	0
7	39935	25133.478604905797	1
7	39941	25134.394367010937	0
7	39950	25136.397112698753	1
7	39951	25136.579222656141	0
7	39995	25202.272778510384	1
7	39999	25202.591452770858	2
7	40003	25203.368997336073	1
7	40006	25204.015418184396	0
7	40030	25212.365238500918	1
7	40031	25212.38399739539	0
7	40040	25213.622526399546	1
7	40041	25213.825089255197	0
7	40045	25214.156866724958	1
7	40046	25214.433762572089	0
7	40055	25216.800057482564	1
7	40056	25216.990496408164	0
7	40060	25217.244398252904	1
7	40061	25217.491138133283	0
7	40085	25231.873961185477	1
7	40086	25232.02584713503	0
7	40160	25293.842260236461	1
7	40161	25293.879416364066	0
7	40230	25355.198632777079	1
7	40231	25355.213848659087	0
7	40260	25379.338045284265	1
7	40261	25379.536155285784	0
7	40267	25379.88768038066	1
7	40271	25381.136705621941	0
7	40317	25397.627560358703	1
7	40321	25398.932233718594	0
7	40325	25399.800851270714	1
7	40326	25399.930402811987	0
7	40415	25496.751267199213	1
7	40416	25497.20118433147	0
7	40460	25526.269205280038	1
7	40461	25526.279076568423	0
7	40470	25527.536520460222	1
7	40471	25527.683659240481	0
7	40490	25535.337653012524	1
7	40491	25535.675618953862	0
7	40505	25542.832162242118	1
7	40507	25543.027472359955	2
7	40508	25543.398068725175	1
7	40511	25544.390061692844	0
7	40520	25546.51522465147	1
7	40522	25546.84126025719	2
7	40523	25547.113448103907	1
7	40526	25547.739435848052	0
7	40540	25550.883055523168	1
7	40541	25551.145478224645	0
7	40575	25567.669014940165	1
7	40576	25568.171606562484	0
7	40605	25580.449405789528	1
7	40606	25580.772812592346	0
7	40620	25587.497957815236	1
7	40621	25587.671603825539	0
7	40642	25592.693737669715	1
7	40647	25593.391946580839	2
7	40648	25593.434142297127	1
7	40651	25593.859774829254	0
7	40670	25616.211613499214	1
7	40671	25616.827789043051	0
7	40787	25684.653040929443	1
7	40789	25685.027743200746	2
7	40798	25686.293878598037	1
7	40801	25687.292077612729	0
7	40825	25697.297630207883	1
7	40826	25697.374962932497	0
7	40835	25698.798668293292	1
7	40836	25699.108111728531	0
7	40895	25747.4485588416	1
7	40896	25747.778060045124	0
7	40940	25767.808227556838	1
7	40941	25768.184820319295	0
7	40980	25782.891551262697	1
7	40981	25783.585857265647	0
7	40985	25783.828614195008	1
7	40986	25784.206260643359	0
7	41050	25824.975895427626	1
7	41051	25825.280693182152	0
7	41055	25825.510681128266	1
7	41056	25826.269858585334	0
7	41140	25884.007345669321	1
7	41141	25884.048901335215	0
7	41160	25886.672625654423	1
7	41166	25887.904766401487	0
7	41185	25904.322035456636	1
7	41186	25904.599705089774	0
7	41190	25905.239219945463	1
7	41191	25905.46001053034	0
7	41200	25906.315877821465	1
7	41202	25906.414382048483	2
7	41204	25906.506592036476	3
7	41205	25906.711125249142	2
7	41208	25907.277698862698	1
7	41211	25908.108051561663	0
7	41215	25908.52026706773	1
7	41217	25908.733762803201	2
7	41218	25908.917998781946	1
7	41221	25909.571158729034	0
7	41225	25909.907855488425	1
7	41226	25910.418268490123	0
7	41269	25931.979224784089	1
7	41276	25933.370341453243	0
7	41290	25952.530133628171	1
7	41291	25952.567500866593	0
7	41315	25962.06158439882	1
7	41316	25962.15149684771	0
7	41325	25963.988523327499	1
7	41326	25964.687808860156	0
7	41330	25965.377154761713	1
7	41331	25965.5958846735	0
7	41380	26026.694064288819	1
7	41381	26027.166749405449	0
7	41525	26119.665832716926	1
7	41536	26121.588155659353	0
7	41555	26125.234693824606	1
7	41557	26125.942948356006	2
7	41558	26126.209170447851	1
7	41561	26126.715366962042	0
7	41600	26152.09848050615	1
7	41601	26152.211391031986	0
7	41700	26188.144453410352	1
7	41701	26188.415579387365	0
7	41715	26191.618347647322	1
7	41716	26192.012413359914	0
7	41865	26309.977301955941	1
7	41866	26310.539078286321	0
7	41870	26310.587818878844	1
7	41871	26311.469038723719	0
7	41885	26317.602880347503	1
7	41886	26317.957879919405	0
7	41945	26346.966286450615	1
7	41946	26347.428624693487	0
7	41965	26350.533789636719	1
7	41966	26350.822528848811	0
7	41975	26352.600064674804	1
7	41976	26352.677917708121	0
7	41990	26358.760199180924	1
7	41991	26359.105343524176	0
7	42000	26360.725565251812	1
7	42001	26361.360307194386	0
7	42145	26481.58692580061	1
7	42151	26483.081585037482	0
7	42270	26563.021940512973	1
7	42271	26563.048881465735	0
7	42325	26606.791988058482	1
7	42326	26607.232316473633	0
7	42385	26649.363778821758	1
7	42386	26649.377281929886	0
7	42390	26649.615914588406	1
7	42391	26649.798281016348	0
7	42425	26696.866068644229	1
7	42426	26697.084513215395	0
7	42430	26697.200818814784	1
7	42431	26697.559012785741	0
7	42435	26697.888235157338	1
7	42436	26698.506850533048	0
7	42440	26699.086848009518	1
7	42441	26699.299927420123	0
7	42455	26707.066559889015	1
7	42456	26707.49609732199	0
7	42485	26718.048624797333	1
7	42486	26718.673151115568	0
7	42515	26729.216607035942	1
7	42516	26729.717827525695	0
7	42525	26744.533095905328	1
7	42526	26744.85872405324	0
7	42535	26747.627187290588	1
7	42536	26747.686323716505	0
7	42540	26747.789713276527	1
7	42541	26748.52356611608	0
7	42545	26748.909510968349	1
7	42546	26749.423449129951	0
7	42550	26749.593697170705	1
7	42551	26750.376992084053	0
7	42660	26848.161872807533	1
7	42661	26848.280219751788	0
7	42730	26900.746606134743	1
7	42731	26901.433318802636	0
7	42740	26904.765632087133	1
7	42742	26905.025685089608	2
7	42744	26905.034826652852	3
7	42745	26905.254284552198	2
7	42758	26907.358436138175	1
7	42761	26907.932694231525	0
7	42775	26923.76058287208	1
7	42776	26924.067825652834	0
7	42840	26961.418767741339	1
7	42842	26961.503330546282	2
7	42843	26961.901294222163	1
7	42846	26962.778979714975	0
7	42860	26970.207326931876	1
7	42861	26970.344748642726	0
7	42890	26979.45671044811	1
7	42891	26979.912408130084	0
7	42900	26983.088634414236	1
7	42901	26983.210487769855	0
7	42950	27020.165569988893	1
7	42951	27020.211261098362	0
7	43015	27060.341134660448	1
7	43016	27060.913838211102	0
7	43045	27090.009587368788	1
7	43046	27090.203357154351	0
7	43077	27097.585331406608	1
7	43086	27098.856117141882	0
7	43100	27101.98570806246	1
7	43101	27102.73867227051	0
7	43295	27216.958972759015	1
7	43296	27217.185828253673	0
7	43305	27221.159817062434	1
7	43306	27221.618874431153	0
7	43330	27229.725911487483	1
7	43331	27229.968056075447	0
7	43365	27247.72087055208	1
7	43366	27248.438931153105	0
7	43370	27248.604634429539	1
7	43371	27249.034940011516	0
7	43440	27272.807379178676	1
7	43441	27273.545711356251	0
7	43450	27275.282360013197	1
7	43451	27275.422254058288	0
7	43470	27285.497597851911	1
7	43471	27285.838015457352	0
7	43545	27345.764945778658	1
7	43546	27346.120138471024	0
7	43625	27411.089834698067	1
7	43626	27411.313027274594	0
7	43640	27414.708205503187	1
7	43641	27415.228873135608	0
7	43650	27419.107894367968	1
7	43651	27419.345181959531	0
7	43660	27420.611260429409	1
7	43661	27421.245236571507	0
7	43665	27422.077813544904	1
7	43666	27422.169186214825	0
7	43790	27522.210829857701	1
7	43791	27523.12218545166	0
7	43800	27525.632228377366	1
7	43802	27525.997940586653	2
7	43803	27526.251020392362	1
7	43806	27527.207210026687	0
7	43820	27530.904584813179	1
7	43821	27531.139333418275	0
7	43837	27534.842517631963	1
7	43841	27535.567305223579	0
7	43855	27538.673090080159	1
7	43856	27538.798848114323	0
7	43895	27564.25201018642	1
7	43896	27564.985252644186	0
7	43900	27565.072013819503	1
7	43901	27565.824740563304	0
7	43925	27582.900523775179	1
7	43926	27583.356054734286	0
7	43990	27617.67975448415	1
7	43991	27617.918126605571	0
7	44015	27639.141586528966	1
7	44016	27639.541436828048	0
7	44027	27641.068923337151	1
7	44032	27641.751039885528	2
7	44043	27644.361183268623	1
7	44046	27644.809450732125	0
7	44102	27693.332765049506	1
7	44107	27693.797003827988	2
7	44108	27694.257085791849	1
7	44111	27695.036661830558	0
7	44140	27723.620710514792	1
7	44141	27724.228583359071	0
7	44170	27735.899141812849	1
7	44171	27736.608900231408	0
7	44195	27748.157255339256	1
7	44196	27748.214729279507	0
7	44245	27790.882510567309	1
7	44246	27791.508378379026	0
7	44255	27792.755337047679	1
7	44256	27793.10021553112	0
7	44290	27798.611297838267	1
7	44291	27799.468229951177	0
7	44305	27819.958769051131	1
7	44306	27820.384631313248	0
7	44320	27823.827978129163	1
7	44321	27824.012124161828	0
7	44427	27882.337824483723	1
7	44434	27883.17527880913	2
7	44438	27884.013452849596	1
7	44441	27884.718294216053	0
7	44470	27902.170295938128	1
7	44471	27902.821738400091	0
7	44555	27956.962985650035	1
7	44556	27957.774432528953	0
7	44595	27978.40070919095	1
7	44596	27979.06550656088	0
7	44615	27988.338615736311	1
7	44616	27988.705658859173	0
7	44670	28047.283124870753	1
7	44671	28047.932473118228	0
7	44685	28058.24459063264	1
7	44686	28058.827347328788	0
7	44690	28059.228477947245	1
7	44691	28059.689777206997	0
7	44720	28093.2228210702	1
7	44721	28093.660714159083	0
7	44725	28093.72916611692	1
7	44726	28094.116826244086	0
7	44730	28094.402971372155	1
7	44731	28094.629819690777	0
7	44767	28110.343985198024	1
7	44771	28111.301406977291	0
7	44785	28113.059778729786	1
7	44786	28113.224281063966	0
7	44800	28116.855188615392	1
7	44801	28117.292313263268	0
7	44815	28119.841545751617	1
7	44816	28120.464121349924	0
7	44825	28121.702224454803	1
7	44826	28122.102673394116	0
7	44830	28122.583382288172	1
7	44831	28122.602488129516	0
7	44835	28122.626017590506	1
7	44837	28123.230629884933	2
7	44838	28123.543679092429	1
7	44841	28124.37491172331	0
7	44870	28156.604111672498	1
7	44871	28157.03679354119	0
7	44875	28157.302160475315	1
7	44876	28157.770898890801	0
7	44895	28170.261754531937	1
7	44896	28170.753165710346	0
7	44965	28200.753291013452	1
7	44966	28201.540623182574	0
7	45090	28256.795426389877	1
7	45091	28257.576901496486	0
7	45125	28274.075299506664	1
7	45127	28274.289632772293	2
7	45128	28274.805527735075	1
7	45131	28275.700867093999	0
7	45140	28288.740632801858	1
7	45141	28289.077537421273	0
7	45150	28293.081816570489	1
7	45151	28293.646011044156	0
7	45245	28376.090843188547	1
7	45247	28376.707819939988	2
7	45248	28376.722076504873	1
7	45251	28377.423743952773	0
7	45275	28386.238700995639	1
7	45276	28386.647071108265	0
7	45325	28440.30073753711	1
7	45326	28440.743803856895	0
7	45335	28443.637192067673	1
7	45336	28444.509586516209	0
7	45355	28459.624528946095	1
7	45356	28460.093342188074	0
7	45360	28460.474052740812	1
7	45361	28460.725634722671	0
7	45365	28461.27592884718	1
7	45366	28461.408078735115	0
7	45380	28465.537327645618	1
7	45387	28466.561766327403	2
7	45388	28466.770421784004	1
7	45391	28467.503985279199	0
7	45445	28519.528068273726	1
7	45446	28519.997018500623	0
7	45495	28557.132023872812	1
7	45506	28558.875782700817	0
7	45540	28575.329263958726	1
7	45541	28575.802590474854	0
7	45630	28629.873268548755	1
7	45631	28630.332305165572	0
7	45665	28641.563257847076	1
7	45666	28642.250770263262	0
7	45670	28642.541993949366	1
7	45671	28642.921441390766	0
7	45675	28643.312765124666	1
7	45676	28643.819711435335	0
7	45735	28665.24567792757	1
7	45736	28665.246459189072	0
7	45740	28665.468084383416	1
7	45741	28665.897385737547	0
7	45775	28712.633757456528	1
7	45776	28713.19498963345	0
7	45805	28726.312842202363	1
7	45806	28726.57085536331	0
7	45810	28726.818791817063	1
7	45811	28727.057072168207	0
7	45900	28812.490327710666	1
7	45901	28812.514902068785	0
7	45950	28833.735492497273	1
7	45951	28833.984119217066	0
7	46000	28868.970154673148	1
7	46001	28869.498185871387	0
7	46020	28874.332134473107	1
7	46022	28874.465010194852	2
7	46023	28874.925237121643	1
7	46026	28875.597229669453	0
7	46060	28914.884303830934	1
7	46061	28915.103822774806	0
7	46065	28915.257547905004	1
7	46066	28915.76266534854	0
7	46070	28915.770118290817	1
7	46071	28916.188319232727	0
7	46150	28968.906841899617	1
7	46151	28969.132779841874	0
7	46175	28983.536992638058	1
7	46176	28983.881352460671	0
7	46245	29014.148524380724	1
7	46246	29014.217132690277	0
7	46250	29014.217519918381	1
7	46252	29014.223017408401	2
7	46253	29014.783271819361	1
7	46256	29015.640076422839	0
7	46265	29017.557687750459	1
7	46266	29017.926170037166	0
7	46290	29041.50676464357	1
7	46291	29041.929414444951	0
7	46320	29054.939390295314	1
7	46321	29055.201116729291	0
7	46330	29056.535316998105	1
7	46331	29056.588821622306	0
7	46365	29079.578993564544	1
7	46366	29079.803789401902	0
7	46475	29163.510684441419	1
7	46476	29163.515433461814	0
7	46535	29187.354434937026	1
7	46536	29188.153751087814	0
7	46590	29201.221525311747	1
7	46591	29201.661939893454	0
7	46630	29233.02130194077	1
7	46631	29233.373474205006	0
7	46660	29239.377166912745	1
7	46662	29239.7184658632	2
7	46663	29239.783556782352	1
7	46666	29240.441479321793	0
7	46685	29266.316908358885	1
7	46686	29266.466588431675	0
7	46735	29306.62613526472	1
7	46736	29307.146174044608	0
7	46750	29313.143360643662	1
7	46757	29314.496609445079	2
7	46758	29314.613360760337	1
7	46761	29315.027355609298	0
7	46795	29329.662213860899	1
7	46796	29329.916216998927	0
7	46840	29347.26944914837	1
7	46841	29347.897054820333	0
7	47005	29458.200045357698	1
7	47006	29458.392396379912	0
7	47010	29458.607571802428	1
7	47011	29459.31419148729	0
7	47015	29459.999915782037	1
7	47016	29460.189549384544	0
7	47020	29460.23143834381	1
7	47026	29461.507308218999	0
7	47097	29488.200351264886	1
7	47101	29489.378640507691	0
7	47115	29490.928951933669	1
7	47116	29491.290465791167	0
7	47145	29505.897465172267	1
7	47151	29506.951496374115	0
7	47205	29557.354017890566	1
7	47206	29557.509651001367	0
7	47315	29656.830328763347	1
7	47317	29656.889812755539	2
7	47318	29657.709494984241	1
7	47321	29658.64411115716	0
7	47352	29675.361848424203	1
7	47356	29675.949299172997	0
7	47415	29763.254067046501	1
7	47416	29763.615397750916	0
7	47427	29767.487281596102	1
7	47431	29768.298310495855	0
7	47470	29784.628725246689	1
7	47471	29784.89770723742	0
7	47480	29786.659999981426	1
7	47481	29787.106099986036	0
7	47570	29855.611886355931	1
7	47572	29856.383312909268	2
7	47573	29856.563662555329	1
7	47576	29857.395181558821	0
7	47580	29857.709393218398	1
7	47581	29858.023402287513	0
7	47585	29858.071639440953	1
7	47586	29858.871549145533	0
7	47595	29861.776490028489	1
7	47596	29862.392337770777	0
7	47645	29895.397165728237	1
7	47646	29895.85461147039	0
7	47655	29896.915237543767	1
7	47656	29897.344570241149	0
7	47670	29899.798017776315	1
7	47671	29900.256497437457	0
7	47705	29921.870413144739	1
7	47706	29922.454360547428	0
7	47730	29933.661445245941	1
7	47731	29933.907866996969	0
7	47750	29947.658336645654	1
7	47751	29948.178058362895	0
7	47785	29968.439788908364	1
7	47786	29968.913670350275	0
8	19844	12678.250223031722	1
8	19846	12678.295961513134	0
8	20330	12963.091835580017	1
8	20331	12963.351006307267	0
8	20615	13126.105494617922	1
8	20619	13126.17737530363	0
8	22082	14055.285058755587	1
8	22084	14055.398700127759	0
8	22095	14057.33242825444	1
8	22101	14059.296399632986	0
8	22105	14059.742513523628	1
8	22106	14060.165307631098	0
8	26290	16565.664039989756	1
8	26291	16565.964606043332	0
8	30265	19026.575689762415	1
8	30266	19027.859659920704	0
8	31055	19572.677101774574	1
8	31056	19572.848976358184	0
8	35395	22419.77011874663	1
8	35396	22420.106059551659	0
8	39930	25132.144887144339	1
8	39931	25133.243985252733	0
8	40840	25699.723373690982	1
8	40841	25702.492420238531	0
8	41212	25908.108051561663	1
8	41214	25908.52026706773	0
8	44020	27640.139988992251	1
8	44021	27641.004769763722	0
8	46260	29016.137027582441	1
8	46261	29017.188568017809	0
9	44950	28194.926153631034	1
9	44951	28195.152683369789	0

