version 2
run Second_exit_2-13-20191114-11:42:31-8890
attr configname Second_exit_2
attr datetime 20191114-11:42:31
attr experiment Second_exit_2
attr inifile omnetpp.ini
attr iterationvars ""
attr iterationvarsf ""
attr measurement ""
attr network ResponseTimeNetwork
attr processid 8890
attr repetition 13
attr replication #13
attr resultdir results
attr runnumber 13
attr seedset 13
param **.Source.interArrivalTime exponential(5s)
param **.jobPriority bernoulli(0.6)
param **.PS.serviceTimeU1 "uniform(0.8s, 1.2s)"
param **.PS.serviceTimeU2 "uniform(1.8s, 2.2s)"
param **.SS1.serviceTime exponential(1s)
param **.SS2.serviceTime exponential(1.2s)
param **.PS.exitProbability bernoulli(0.2)

vector 0 ResponseTimeNetwork.QueueU1 queueLength:vector ETV
attr interpolationmode sample-hold
attr title "queue length, vector"
vector 1 ResponseTimeNetwork.sink lifeTimeU1:vector ETV
attr interpolationmode none
attr title "lifetime of arrived jobs U1, vector"
attr unit s
vector 2 ResponseTimeNetwork.sink totalServiceTimeU1:vector ETV
attr interpolationmode none
attr title "the total time spent  by arrived jobs U1, vector"
attr unit s
vector 3 ResponseTimeNetwork.sink lifeTime:vector ETV
attr interpolationmode none
attr title "lifetime of arrived jobs, vector"
attr unit s
vector 4 ResponseTimeNetwork.sink totalServiceTime:vector ETV
attr interpolationmode none
attr title "the total time spent  by arrived jobs, vector"
attr unit s
vector 5 ResponseTimeNetwork.sink lifeTimeU2:vector ETV
attr interpolationmode none
attr title "lifetime of arrived jobs U2, vector"
attr unit s
vector 6 ResponseTimeNetwork.sink totalServiceTimeU2:vector ETV
attr interpolationmode none
attr title "the total time spent  by arrived jobs U2, vector"
attr unit s
vector 7 ResponseTimeNetwork.QueueU2 queueLength:vector ETV
attr interpolationmode sample-hold
attr title "queue length, vector"
vector 8 ResponseTimeNetwork.SS1 queueLength:vector ETV
attr interpolationmode sample-hold
attr title "queue length, vector"
vector 9 ResponseTimeNetwork.SS2 queueLength:vector ETV
attr interpolationmode sample-hold
attr title "queue length, vector"
0	12535	10013.642534630064	1
0	12536	10014.243513298726	0
0	12605	10082.933024513529	1
0	12606	10083.416980558473	0
0	12680	10147.023674608162	1
0	12681	10147.459945389167	0
0	12740	10184.761869177816	1
0	12741	10185.571050354512	0
0	12760	10192.833870823488	1
0	12761	10193.146067656033	0
0	12775	10197.13377435763	1
0	12776	10198.123531597568	0
0	12780	10198.976634570593	1
0	12781	10199.02985195219	0
0	12825	10225.344322467827	1
0	12826	10226.342950100668	0
0	12830	10227.096418992132	1
0	12831	10227.423551920552	0
0	12840	10228.780957211268	1
0	12841	10229.697638154433	0
0	12880	10283.093035044781	1
0	12881	10283.193989581011	0
0	12900	10293.058725854845	1
0	12901	10293.721427815477	0
0	12970	10361.789098974152	1
0	12971	10362.064839135357	0
0	13065	10456.342874780965	1
0	13066	10457.31416129901	0
0	13095	10484.770152080462	1
0	13096	10485.624045099802	0
0	13125	10507.094366757818	1
0	13126	10508.068945893491	0
0	13140	10512.106385344067	1
0	13141	10512.902672826606	0
0	13160	10557.881203801073	1
0	13161	10558.239672018159	0
0	13165	10558.834721840392	1
0	13166	10559.240972526409	0
0	13180	10564.609502590757	1
0	13181	10565.280690108538	0
0	13220	10625.44378775547	1
0	13221	10625.676350979483	0
0	13230	10627.639224242732	1
0	13231	10628.286933116918	0
0	13345	10731.586713140598	1
0	13346	10731.984205842694	0
0	13362	10765.013949738816	1
0	13363	10765.108232736659	0
0	13367	10765.66087669912	1
0	13368	10766.031748739981	0
0	13375	10767.545658110962	1
0	13376	10768.080143193134	0
0	13390	10783.11833527645	1
0	13391	10783.926045226294	0
0	13450	10815.389809249738	1
0	13451	10815.813006190565	0
0	13465	10824.779824707785	1
0	13466	10825.177000766458	0
0	13475	10830.033830812239	1
0	13476	10830.252685204822	0
0	13520	10878.592800408365	1
0	13521	10878.81855451796	0
0	13575	10923.038567883765	1
0	13576	10923.069891028749	0
0	13595	10936.250947961374	1
0	13596	10937.122254305056	0
0	13610	10952.372832233814	1
0	13611	10953.29748516859	0
0	13725	11044.051572748777	1
0	13726	11044.398860137426	0
0	13850	11144.104997045355	1
0	13851	11144.624132628622	0
0	13890	11174.519516144273	1
0	13892	11174.620885762964	2
0	13893	11175.472647138224	1
0	13896	11176.586046222136	0
0	13930	11217.588262254459	1
0	13931	11217.697512149266	0
0	13935	11218.057456252987	1
0	13936	11218.738778158012	0
0	13992	11253.685467668463	1
0	13995	11254.458168417556	0
0	13999	11254.487434371934	1
0	14000	11255.336244096948	0
0	14004	11256.094615046419	1
0	14005	11256.415666081259	0
0	14009	11257.31021841283	1
0	14010	11257.331174958652	0
0	14014	11257.437393754852	1
0	14015	11258.140710161967	0
0	14022	11259.88633624154	1
0	14023	11260.257911475902	0
0	14065	11299.892522997155	1
0	14066	11300.004622764034	0
0	14070	11301.156556545287	1
0	14071	11301.181715275893	0
0	14075	11301.743386816183	1
0	14076	11302.32222940967	0
0	14080	11303.007033209646	1
0	14081	11303.150897729942	0
0	14085	11303.182603813766	1
0	14086	11304.148352976223	0
0	14200	11451.37171513467	1
0	14201	11451.908266291478	0
0	14210	11455.855090842986	1
0	14211	11456.790258675918	0
0	14225	11479.493272955293	1
0	14226	11480.0488709795	0
0	14240	11498.466222742534	1
0	14241	11499.001863178012	0
0	14245	11499.722663656655	1
0	14246	11499.934864405409	0
0	14260	11503.403485778147	1
0	14261	11504.063008621262	0
0	14265	11504.804541820847	1
0	14266	11504.954074795192	0
0	14280	11523.13928093139	1
0	14281	11523.6427436153	0
0	14340	11573.345336203799	1
0	14341	11573.741980166222	0
0	14360	11595.783190300575	1
0	14361	11596.377081889152	0
0	14630	11905.107239804621	1
0	14631	11905.816918806278	0
0	14635	11906.004034635019	1
0	14636	11906.709841076669	0
0	14640	11907.475231534664	1
0	14641	11907.527617334121	0
0	14725	11975.988661531102	1
0	14726	11976.12576398651	0
0	14735	11993.176390895431	1
0	14736	11993.838170392582	0
0	14775	12015.639123925233	1
0	14776	12016.169265010982	0
0	14800	12034.793086731895	1
0	14801	12034.816000734273	0
0	14854	12068.292241788211	1
0	14855	12068.552876741966	0
0	14859	12068.636354852556	1
0	14860	12069.674886517754	0
0	14890	12081.515920806093	1
0	14891	12081.979704755784	0
0	14955	12128.620532152719	1
0	14956	12128.999302006738	0
0	14965	12132.918081868214	1
0	14966	12132.980593639975	0
0	14970	12134.060616800556	1
0	14971	12134.101377625754	0
0	15070	12221.164989913088	1
0	15071	12221.939713998004	0
0	15075	12221.968630728579	1
0	15076	12222.758156793243	0
0	15090	12225.238347982508	1
0	15091	12225.876786097791	0
0	15125	12252.839261925585	1
0	15127	12252.895745881166	2
0	15128	12253.731726761568	1
0	15131	12254.729621587168	0
0	15165	12268.097735704848	1
0	15166	12269.056146272673	0
0	15170	12269.174577199117	1
0	15173	12270.047586147981	0
0	15245	12359.997335108276	1
0	15246	12360.86048906355	0
0	15290	12396.554501005175	1
0	15291	12397.135840891567	0
0	15320	12409.358702927697	1
0	15321	12409.769554843061	0
0	15470	12547.206569564976	1
0	15471	12548.069569151895	0
0	15530	12626.089707163321	1
0	15531	12626.367914705261	0
0	15700	12769.680874025601	1
0	15701	12770.446391445537	0
0	15740	12799.91713233278	1
0	15741	12800.663427911434	0
0	15755	12805.194983653312	1
0	15756	12805.928749156485	0
0	15780	12812.173466177249	1
0	15781	12812.33745037389	0
0	15785	12812.687403488317	1
0	15786	12813.405795695139	0
0	15790	12813.545848777346	1
0	15791	12814.341243540281	0
0	15805	12822.839606207777	1
0	15806	12823.703416391934	0
0	15815	12824.87245765537	1
0	15818	12825.648290107018	0
0	15822	12826.330816121046	1
0	15823	12826.675299982252	0
0	15827	12827.612600800657	1
0	15828	12827.636050841203	0
0	15865	12850.797553589752	1
0	15866	12851.474806104776	0
0	15890	12896.243544156298	1
0	15891	12896.528692596225	0
0	15932	12919.186351026699	1
0	15933	12919.21381708936	0
0	15937	12919.509046848087	1
0	15938	12920.140551642079	0
0	15950	12922.391251427749	1
0	15951	12923.103259112878	0
0	15960	12925.63149079839	1
0	15961	12926.628544787205	0
0	15965	12927.141154692338	1
0	15966	12927.552733759004	0
0	15995	12951.355479341724	1
0	15996	12951.747379798314	0
0	16005	12953.530102087055	1
0	16006	12953.703838389672	0
0	16040	12971.120554665937	1
0	16041	12971.838396800264	0
0	16080	13014.481815390902	1
0	16081	13015.159988390167	0
0	16100	13027.747840573736	1
0	16101	13028.371577175728	0
0	16125	13053.600297736231	1
0	16126	13053.614326073931	0
0	16135	13055.901513986507	1
0	16136	13056.188476861022	0
0	16155	13065.960454656928	1
0	16158	13066.76048219777	0
0	16175	13074.159787339963	1
0	16176	13074.934900985276	0
0	16200	13089.522906578291	1
0	16201	13089.659034593939	0
0	16210	13090.890330257408	1
0	16213	13091.408808709379	0
0	16235	13116.188807269071	1
0	16236	13116.729547190166	0
0	16260	13133.199839947775	1
0	16261	13133.922685243684	0
0	16335	13221.965994286653	1
0	16337	13222.622245552748	2
0	16338	13222.630546071703	1
0	16341	13223.585964170328	0
0	16360	13236.13742015406	1
0	16361	13236.886497812986	0
0	16375	13247.787830476921	1
0	16376	13248.639550922272	0
0	16385	13253.933988420382	1
0	16386	13254.738465183996	0
0	16395	13256.491994401508	1
0	16396	13257.30791086767	0
0	16480	13322.816616002969	1
0	16481	13323.070670034438	0
0	16490	13324.80187280208	1
0	16491	13325.320544894207	0
0	16520	13355.364126415784	1
0	16521	13356.113164835226	0
0	16600	13425.998481106434	1
0	16601	13426.916661403396	0
0	16610	13432.237093067805	1
0	16611	13432.980590572208	0
0	16615	13433.677705303718	1
0	16616	13433.790353163238	0
0	16620	13434.556508935503	1
0	16621	13434.699456718191	0
0	16670	13462.994463965722	1
0	16671	13463.169469772109	0
0	16690	13478.940504873182	1
0	16691	13479.791434823462	0
0	16725	13530.938466899037	1
0	16726	13530.942264017674	0
0	16740	13539.202404441296	1
0	16741	13539.308741830433	0
0	16790	13594.053145723768	1
0	16793	13594.812768461236	0
0	16797	13594.945649597368	1
0	16798	13595.898094598257	0
0	16807	13598.02919912652	1
0	16808	13598.042105798104	0
0	16830	13613.932573659564	1
0	16831	13614.140666001943	0
0	16840	13616.768229228362	1
0	16841	13616.848760438914	0
0	16875	13639.480105806311	1
0	16878	13640.15301516622	0
0	16945	13680.132685364892	1
0	16946	13680.999389127843	0
0	16980	13693.003630777275	1
0	16981	13693.031089283217	0
0	17040	13738.755863618598	1
0	17041	13739.65668091462	0
0	17090	13760.786786872542	1
0	17091	13761.623600197634	0
0	17105	13772.204479241185	1
0	17106	13772.922874073321	0
0	17120	13781.681427906305	1
0	17121	13782.214877773264	0
0	17125	13782.278437609227	1
0	17127	13782.655802502985	2
0	17128	13783.253568671738	1
0	17131	13784.202033328732	0
0	17135	13784.534664943157	1
0	17137	13784.741096890489	2
0	17138	13785.1392620679	1
0	17142	13785.439643055248	2
0	17143	13786.207044196875	1
0	17147	13786.330678680579	2
0	17148	13787.377052835097	1
0	17151	13788.429228779954	0
0	17180	13837.283528632841	1
0	17182	13837.513912524456	2
0	17183	13837.848131627404	1
0	17188	13839.005945945811	0
0	17255	13895.921177946528	1
0	17256	13896.483298966363	0
0	17280	13915.621906999309	1
0	17281	13916.485827756998	0
0	17290	13925.942445400298	1
0	17293	13926.386896837983	0
0	17370	13997.993142653714	1
0	17371	13998.328888645415	0
0	17375	13998.697197826277	1
0	17376	13999.268953015861	0
0	17385	14002.727405161824	1
0	17386	14003.142822292057	0
0	17420	14024.655061055511	1
0	17421	14025.745409844726	0
0	17430	14027.343115148244	1
0	17432	14027.805382854676	2
0	17433	14027.936882614907	1
0	17436	14028.919669222463	0
0	17440	14029.252474730912	1
0	17441	14029.727389831938	0
0	17450	14032.723139318881	1
0	17451	14033.032136035022	0
0	17465	14040.326984785235	1
0	17466	14040.334083648013	0
0	17490	14068.078632965928	1
0	17491	14068.379089521766	0
0	17505	14075.545202359061	1
0	17506	14075.821848481547	0
0	17580	14131.11548581317	1
0	17582	14131.405996307599	2
0	17583	14131.587189794657	1
0	17588	14132.666753564262	0
0	17635	14149.105278322699	1
0	17636	14149.303177059659	0
0	17650	14151.05292863103	1
0	17653	14152.003744512969	0
0	17730	14196.784671408029	1
0	17731	14197.766153212403	0
0	17735	14197.880320479747	1
0	17736	14198.96408314458	0
0	17775	14243.303976790374	1
0	17776	14243.423348739268	0
0	17785	14251.530466126842	1
0	17786	14252.56038386561	0
0	17845	14307.67295762419	1
0	17846	14307.713817365844	0
0	17875	14335.737815041656	1
0	17876	14336.52794678591	0
0	17885	14343.980256180049	1
0	17886	14344.084555691904	0
0	17905	14367.291690899248	1
0	17906	14368.190512451659	0
0	17975	14445.088906369697	1
0	17976	14446.159839831208	0
0	17980	14446.303843929256	1
0	17981	14447.16071779021	0
0	18000	14451.22717578243	1
0	18001	14451.23736578824	0
0	18065	14517.012843085545	1
0	18066	14517.319244880018	0
0	18070	14517.474840034348	1
0	18071	14518.148764951409	0
0	18085	14522.39656936553	1
0	18086	14522.945458532121	0
0	18090	14523.044928119401	1
0	18093	14524.03051068531	0
0	18097	14524.835042657479	1
0	18098	14524.939835027509	0
0	18110	14527.623215121355	1
0	18111	14528.385958896262	0
0	18120	14529.701683830573	1
0	18121	14530.358192589005	0
0	18130	14531.768695577268	1
0	18131	14532.64690188578	0
0	18255	14646.827559466371	1
0	18256	14647.431558576697	0
0	18355	14742.880674287945	1
0	18356	14743.4811742642	0
0	18380	14763.217849256436	1
0	18381	14763.677894494831	0
0	18390	14771.469321423186	1
0	18391	14771.499685433149	0
0	18395	14771.726313675438	1
0	18396	14772.422032427802	0
0	18422	14788.682695891994	1
0	18423	14788.696436182691	0
0	18442	14796.791987606844	1
0	18443	14797.321579416878	0
0	18480	14860.184627289363	1
0	18481	14861.134369472097	0
0	18515	14893.713052742759	1
0	18516	14894.679620505253	0
0	18635	15068.197872212101	1
0	18636	15068.367021653629	0
0	18655	15087.488038858527	1
0	18656	15087.821268438747	0
0	18660	15087.887491589154	1
0	18663	15088.931201791031	0
0	18670	15090.758816034373	1
0	18671	15090.838470687543	0
0	18715	15130.649872170074	1
0	18716	15130.833828488186	0
0	18720	15131.655850891517	1
0	18721	15131.711475005008	0
0	18760	15149.716769875361	1
0	18761	15149.935347350683	0
0	18830	15192.36172201787	1
0	18831	15192.640148532826	0
0	18840	15193.857743924515	1
0	18842	15194.338503389499	2
0	18843	15194.597624240525	1
0	18846	15195.404315754108	0
0	18850	15195.979125143194	1
0	18851	15196.304190530803	0
0	18880	15206.806570437458	1
0	18881	15206.994663727197	0
0	18920	15233.495367385086	1
0	18921	15233.996837891365	0
0	18940	15240.504669654075	1
0	18941	15241.342261556211	0
0	18955	15244.499517961198	1
0	18956	15244.916469573047	0
0	19035	15342.378390427149	1
0	19036	15342.943457624756	0
0	19065	15352.720561219362	1
0	19066	15353.251299243966	0
0	19090	15383.506647999957	1
0	19091	15384.477007066114	0
0	19100	15388.774213442785	1
0	19101	15389.037070608666	0
0	19110	15391.021336554352	1
0	19111	15391.116114777536	0
0	19115	15391.229284925417	1
0	19116	15392.052966677421	0
0	19165	15429.420394650248	1
0	19166	15429.532187817446	0
0	19195	15459.671251007099	1
0	19196	15459.734586920116	0
0	19240	15476.342561980564	1
0	19241	15476.670137606994	0
0	19285	15504.110616592337	1
0	19286	15504.160769040477	0
0	19315	15520.973876614926	1
0	19316	15521.728751963257	0
0	19460	15657.59710026059	1
0	19461	15658.263129387223	0
0	19550	15723.181332562274	1
0	19551	15723.951676445626	0
0	19560	15725.12930147376	1
0	19562	15725.378621384879	2
0	19563	15726.040475866579	1
0	19566	15726.933089178063	0
0	19590	15750.423753074681	1
0	19591	15750.465558257144	0
0	19615	15789.034870471522	1
0	19616	15789.568554319118	0
0	19620	15789.85686115241	1
0	19621	15790.610523926702	0
0	19625	15790.982726807223	1
0	19626	15791.760770636101	0
0	19630	15792.579525114365	1
0	19631	15792.714009799205	0
0	19635	15792.80249386656	1
0	19636	15793.700753912099	0
0	19650	15828.791660746804	1
0	19651	15828.898480422994	0
0	19665	15834.323015452562	1
0	19666	15835.063006678853	0
0	19735	15913.440716887491	1
0	19736	15913.98538705714	0
0	19755	15931.07871673884	1
0	19756	15931.892424242927	0
0	19765	15934.391492818502	1
0	19766	15935.113331298241	0
0	19875	16033.863435353322	1
0	19876	16033.886669966348	0
0	19910	16055.498509773793	1
0	19911	16055.954131650461	0
0	19985	16107.486412477767	1
0	19987	16107.633980993125	2
0	19989	16107.677458499015	3
0	19990	16108.010885497499	2
0	19993	16108.969291824978	1
0	19996	16109.922062334921	0
0	20035	16148.341322584521	1
0	20036	16149.220373427853	0
0	20080	16182.742851380185	1
0	20081	16182.8150299996	0
0	20120	16221.12955299681	1
0	20121	16221.85167311424	0
0	20260	16362.675618423504	1
0	20261	16362.915163275819	0
0	20295	16381.05101446787	1
0	20296	16381.86699844265	0
0	20300	16381.996381015201	1
0	20301	16383.062084984049	0
0	20320	16395.54783578728	1
0	20321	16396.267287070635	0
0	20380	16441.835212784489	1
0	20381	16442.05458926803	0
0	20420	16462.100164056654	1
0	20421	16462.701629286881	0
0	20437	16478.573533168644	1
0	20438	16479.280890734126	0
0	20445	16480.254634601682	1
0	20446	16481.313535892689	0
0	20490	16519.646065828573	1
0	20491	16520.408281572908	0
0	20535	16578.629732049927	1
0	20536	16579.586258708183	0
0	20560	16584.846916431717	1
0	20561	16585.388921008683	0
0	20600	16622.128067111571	1
0	20601	16622.974702553567	0
0	20620	16626.583978125466	1
0	20623	16627.374046909558	0
0	20680	16664.229827158063	1
0	20681	16664.403158674365	0
0	20700	16670.326813679851	1
0	20701	16670.867174106734	0
0	20755	16715.480426616409	1
0	20757	16715.628530432356	2
0	20758	16716.256368636958	1
0	20761	16717.10654452179	0
0	20775	16719.793725349825	1
0	20776	16720.698577833257	0
0	20785	16724.580679088263	1
0	20786	16724.805793339061	0
0	20795	16726.251259979701	1
0	20797	16726.684392904277	2
0	20798	16726.843120507198	1
0	20801	16727.815069083358	0
0	20810	16729.370016813662	1
0	20811	16729.767262093956	0
0	20830	16749.320960736358	1
0	20831	16750.342270955753	0
0	20835	16750.511417637027	1
0	20837	16750.686781902992	2
0	20838	16751.518875427295	1
0	20843	16752.709046703235	0
0	20850	16754.345274273941	1
0	20853	16754.852556861316	0
0	20890	16777.989270273681	1
0	20891	16778.875002041701	0
0	20970	16870.157060050971	1
0	20971	16870.912216442819	0
0	21040	16929.262294958983	1
0	21041	16930.054170450424	0
0	21060	16946.349978362273	1
0	21061	16947.364456756056	0
0	21170	17036.470535965475	1
0	21171	17036.5971273398	0
0	21265	17152.359251448965	1
0	21266	17152.430247481084	0
0	21285	17170.481847821152	1
0	21286	17171.155200717234	0
0	21295	17172.517648063424	1
0	21296	17172.861213455265	0
0	21300	17173.260989278025	1
0	21301	17173.667563409833	0
0	21365	17241.574760275827	1
0	21366	17241.781518135035	0
0	21420	17270.968700437246	1
0	21421	17271.850169080316	0
0	21430	17273.502829079753	1
0	21433	17274.122496048129	0
0	21480	17318.638906301674	1
0	21481	17318.789005588867	0
0	21485	17319.129349374526	1
0	21486	17319.776438093685	0
0	21650	17447.334513312776	1
0	21651	17447.805667203251	0
0	21660	17449.626357548752	1
0	21661	17450.446217573427	0
0	21700	17483.405962744475	1
0	21701	17484.434416121116	0
0	21755	17558.004353123301	1
0	21756	17558.580192307342	0
0	21760	17558.687354244872	1
0	21762	17558.700170838466	2
0	21763	17559.753185230453	1
0	21766	17560.76573723979	0
0	21772	17561.260155231449	1
0	21773	17561.746040869743	0
0	21777	17561.799714790581	1
0	21779	17562.752139310544	2
0	21780	17562.930838966236	1
0	21784	17563.409199821359	2
0	21785	17563.925470537	1
0	21788	17564.845875997615	0
0	21870	17625.74345254077	1
0	21871	17626.308221502269	0
0	21887	17638.809113249305	1
0	21888	17638.924369783168	0
0	21970	17752.297447761219	1
0	21971	17753.26399187613	0
0	22005	17776.129697251184	1
0	22006	17776.29217478232	0
0	22030	17785.133189171509	1
0	22031	17786.099887347677	0
0	22042	17788.062043299934	1
0	22043	17788.125469611389	0
0	22047	17788.728219308094	1
0	22048	17789.144504939475	0
0	22054	17790.013627509644	1
0	22055	17790.166147917126	0
0	22065	17792.402474535341	1
0	22066	17793.378635258217	0
0	22070	17793.478503850585	1
0	22071	17794.341251517356	0
0	22135	17850.022824715271	1
0	22136	17850.339047656214	0
0	22190	17890.315207542794	1
0	22191	17891.291640895561	0
0	22225	17938.294920170956	1
0	22226	17938.321331556729	0
0	22230	17938.747044188563	1
0	22231	17939.49293851222	0
0	22250	17949.316463018892	1
0	22251	17949.990438792704	0
0	22270	17954.831732571431	1
0	22271	17955.139797521262	0
0	22305	17986.375562432995	1
0	22307	17986.686730170808	2
0	22308	17987.11216824638	1
0	22313	17988.31143387059	0
0	22350	18000.566454497935	1
0	22351	18001.386493981404	0
0	22365	18008.326261821502	1
0	22366	18008.63085182393	0
0	22405	18036.254861792769	1
0	22406	18036.667330203672	0
0	22420	18041.802841688637	1
0	22421	18042.363146232711	0
0	22425	18042.876774856987	1
0	22426	18043.553441922264	0
0	22455	18069.229052366695	1
0	22456	18069.729894044986	0
0	22515	18125.664035102227	1
0	22516	18125.709895850705	0
0	22540	18150.945876467807	1
0	22541	18151.853993703869	0
0	22655	18255.406577702764	1
0	22656	18256.29009561347	0
0	22665	18257.948991553883	1
0	22666	18258.185582221245	0
0	22690	18264.393507833972	1
0	22692	18265.271736650978	2
0	22693	18265.412634020291	1
0	22696	18266.611880213294	0
0	22702	18267.70552813857	1
0	22703	18267.739113405432	0
0	22730	18299.649575837065	1
0	22731	18300.293226968371	0
0	22900	18484.139738339455	1
0	22901	18484.658972311208	0
0	22985	18563.535407048731	1
0	22986	18564.567244509795	0
0	23020	18598.913354426906	1
0	23021	18599.282753002225	0
0	23080	18658.251332307641	1
0	23082	18658.341384728163	2
0	23083	18659.107777730725	1
0	23086	18660.252083518706	0
0	23145	18716.541463015483	1
0	23146	18717.451588532196	0
0	23150	18718.103326870842	1
0	23153	18718.366376147752	0
0	23162	18720.301371487602	1
0	23164	18720.508161064734	2
0	23165	18720.554838178361	1
0	23168	18721.426945573611	0
0	23172	18722.18850294059	1
0	23173	18722.587441591507	0
0	23220	18749.866409992354	1
0	23221	18750.233526500007	0
0	23280	18777.26766300288	1
0	23281	18777.548448335999	0
0	23305	18793.932059401559	1
0	23306	18794.289726669675	0
0	23315	18800.724971682527	1
0	23316	18801.680586399104	0
0	23370	18844.39466720037	1
0	23371	18845.293375857269	0
0	23400	18864.646763527083	1
0	23401	18865.011447175895	0
0	23405	18865.398507072525	1
0	23406	18866.028811386717	0
0	23427	18885.185612685269	1
0	23428	18885.640204787351	0
0	23470	18925.977555425014	1
0	23471	18926.218395880311	0
0	23495	18935.733996120616	1
0	23496	18936.036128961577	0
0	23535	18957.839499176822	1
0	23536	18958.302373011427	0
0	23545	18960.916499839947	1
0	23546	18961.341982010939	0
0	23650	19072.66253967715	1
0	23651	19073.560818774176	0
0	23680	19080.429135423102	1
0	23681	19080.590657218156	0
0	23770	19162.596251182345	1
0	23771	19162.73664328716	0
0	23775	19162.817577564252	1
0	23776	19163.639338671409	0
0	23780	19164.052179245095	1
0	23781	19164.468457715299	0
0	23840	19224.597232633938	1
0	23842	19224.951960206062	2
0	23843	19225.377381064864	1
0	23847	19226.152780222524	2
0	23849	19226.321330726085	3
0	23850	19226.449775645165	2
0	23853	19227.581601757677	1
0	23856	19228.515260176761	0
0	23860	19228.526930664312	1
0	23861	19229.505509105166	0
0	23875	19246.626205214749	1
0	23876	19246.626635845813	0
0	23895	19268.222113953068	1
0	23896	19268.800521156026	0
0	23925	19299.224089854293	1
0	23926	19299.764565217931	0
0	23935	19301.566575937136	1
0	23936	19301.64490344689	0
0	23955	19314.361249049395	1
0	23956	19314.598634446922	0
0	24000	19343.412915435576	1
0	24001	19344.100031062802	0
0	24170	19539.854128959868	1
0	24171	19540.000808050375	0
0	24220	19575.788424172154	1
0	24221	19576.236628685843	0
0	24290	19657.372494888186	1
0	24291	19657.948506864036	0
0	24415	19772.053279778271	1
0	24417	19772.182527257461	2
0	24418	19772.40740068635	1
0	24422	19772.465074092602	2
0	24425	19773.426355092936	1
0	24428	19774.565289239363	0
0	24445	19778.277232529504	1
0	24446	19778.650876600231	0
0	24485	19798.906171826488	1
0	24486	19799.955048988692	0
0	24575	19922.27501014458	1
0	24576	19922.554091586947	0
0	24590	19933.076130706883	1
0	24591	19933.691563974568	0
0	24595	19934.060035139354	1
0	24596	19934.753866920495	0
0	24640	19989.41287494994	1
0	24641	19989.775518779147	0
0	24660	20013.80211286649	1
0	24661	20014.389171087732	0
0	24665	20015.146050537481	1
0	24666	20015.370930861579	0
0	24670	20015.732592757816	1
0	24671	20016.267749508368	0
0	24675	20016.723182805992	1
0	24676	20017.10456580705	0
0	24695	20029.912168779789	1
0	24696	20029.969591264519	0
0	24780	20099.010596162893	1
0	24781	20099.111769365813	0
0	24795	20119.684588631032	1
0	24796	20120.251443920013	0
0	24815	20129.436265900297	1
0	24816	20129.730301705937	0
0	24850	20150.782662429585	1
0	24851	20150.800662065471	0
0	24960	20238.959981537594	1
0	24961	20239.805287264754	0
0	24965	20240.283890176608	1
0	24967	20240.468110291345	2
0	24968	20240.757075108495	1
0	24971	20241.677743119281	0
0	25005	20259.091104738187	1
0	25006	20259.333706655118	0
0	25095	20355.450336463017	1
0	25096	20355.760898355592	0
0	25115	20369.261552981045	1
0	25116	20369.360014431005	0
0	25232	20464.509711447612	1
0	25233	20464.912543077107	0
0	25260	20481.808256069544	1
0	25261	20482.882986072064	0
0	25275	20503.903046338275	1
0	25276	20504.476307232967	0
0	25285	20506.075478445404	1
0	25286	20507.12481276267	0
0	25335	20554.324767188726	1
0	25338	20555.124537978366	0
0	25344	20555.639329703201	1
0	25345	20556.284435558829	0
0	25425	20629.208749275545	1
0	25427	20630.071058993932	2
0	25428	20630.123448767068	1
0	25431	20631.063609657271	0
0	25595	20801.055578662785	1
0	25596	20801.746736802812	0
0	25610	20814.252265311316	1
0	25611	20814.570441830483	0
0	25640	20838.800552964827	1
0	25641	20839.84485945883	0
0	25665	20856.660089806487	1
0	25666	20857.353277884517	0
0	25762	20932.877294337247	1
0	25763	20932.99408243659	0
0	25767	20933.21375121559	1
0	25769	20933.801871660824	2
0	25772	20934.179463596801	1
0	25775	20935.231130820672	0
0	25779	20935.881236231642	1
0	25780	20936.123807278528	0
0	25815	20967.020474759788	1
0	25817	20967.123021127236	2
0	25818	20967.660293550367	1
0	25821	20968.811225187915	0
0	25892	21049.327828032108	1
0	25893	21049.705690328495	0
0	25935	21080.62429293521	1
0	25936	21081.40904102679	0
0	25942	21081.616244763046	1
0	25943	21082.48180459011	0
0	25950	21083.814530684613	1
0	25951	21084.525423447598	0
0	25960	21086.264718834407	1
0	25961	21086.288443507436	0
0	25995	21115.176221565117	1
0	25996	21115.429524080125	0
0	26015	21130.028054174731	1
0	26016	21130.807658735459	0
0	26060	21156.372933818279	1
0	26061	21156.928789200466	0
0	26147	21247.634037222461	1
0	26149	21247.865822372637	2
0	26150	21247.987057402405	1
0	26155	21248.972203145689	0
0	26175	21255.542012038259	1
0	26176	21256.068397199077	0
0	26190	21258.220225041266	1
0	26192	21258.694622057254	2
0	26193	21259.242603508847	1
0	26196	21260.266405524125	0
0	26200	21260.697356029854	1
0	26201	21261.399657196736	0
0	26205	21262.298177176458	1
0	26206	21262.33865632247	0
0	26250	21298.021215096579	1
0	26251	21298.537071842535	0
0	26280	21314.604177921253	1
0	26281	21314.657818919909	0
0	26525	21586.202945848033	1
0	26526	21586.388264065036	0
0	26535	21595.017952225686	1
0	26536	21595.970205541579	0
0	26550	21600.485551999316	1
0	26551	21601.301595644504	0
0	26625	21653.771031521906	1
0	26627	21654.539733332779	2
0	26628	21654.566788141548	1
0	26631	21655.493328023262	0
0	26670	21686.65953605377	1
0	26671	21687.318491260801	0
0	26710	21715.22914152883	1
0	26711	21715.911123664442	0
0	26815	21786.454168705284	1
0	26816	21787.522726427156	0
0	26820	21788.001630906438	1
0	26821	21788.585061957731	0
0	26855	21813.859439337128	1
0	26856	21814.537966214582	0
0	27030	21980.365171668206	1
0	27031	21980.946178528196	0
0	27070	22003.295109761826	1
0	27071	22003.956255653998	0
0	27120	22075.448873646706	1
0	27121	22076.310084196905	0
0	27135	22078.874212880029	1
0	27138	22079.492525487154	0
0	27155	22088.700039765089	1
0	27158	22089.401790788104	0
0	27185	22108.23766740084	1
0	27186	22108.409823483352	0
0	27205	22114.254000232033	1
0	27206	22114.357865665521	0
0	27230	22126.442383207899	1
0	27231	22126.522233365636	0
0	27235	22127.231354763221	1
0	27236	22127.418196197573	0
0	27250	22139.975542819742	1
0	27251	22140.261773720678	0
0	27275	22165.200168288124	1
0	27276	22165.385805395329	0
0	27340	22228.967690461016	1
0	27341	22229.243178071964	0
0	27345	22229.627239342637	1
0	27346	22230.243785887908	0
0	27360	22248.122726523308	1
0	27361	22248.886182242227	0
0	27435	22289.619138186449	1
0	27436	22289.702839548768	0
0	27490	22331.03299073288	1
0	27491	22331.625903656427	0
0	27495	22332.13905795752	1
0	27496	22332.581652619597	0
0	27507	22334.50245625864	1
0	27508	22334.592953401718	0
0	27515	22336.47476852067	1
0	27516	22336.747324207712	0
0	27555	22359.80432328149	1
0	27556	22360.058853393087	0
0	27570	22372.754060749424	1
0	27571	22373.197474105112	0
0	27685	22460.118609560965	1
0	27688	22460.861154666972	0
0	27700	22463.45119502977	1
0	27703	22464.000753466236	0
0	27707	22464.118767495462	1
0	27708	22464.926389925378	0
0	27720	22467.182971027055	1
0	27721	22467.937783090967	0
0	27815	22604.182702529585	1
0	27816	22604.819026428203	0
0	27855	22632.479886885534	1
0	27856	22633.095569852623	0
0	27860	22633.218322261869	1
0	27861	22634.200749430316	0
0	27870	22636.346535767334	1
0	27871	22637.285879708889	0
0	27882	22639.431400169843	1
0	27883	22639.549663349303	0
0	27910	22646.001847473841	1
0	27911	22646.662916325824	0
0	27970	22683.848904921821	1
0	27973	22684.751292907763	0
0	28035	22737.634249066867	1
0	28036	22737.992547198674	0
0	28040	22738.024615694074	1
0	28041	22738.844986195313	0
0	28115	22820.696715243651	1
0	28116	22821.16603024519	0
0	28165	22859.21035966123	1
0	28166	22860.342263640906	0
0	28230	22903.41300392788	1
0	28231	22904.064288478201	0
0	28265	22925.535863442051	1
0	28266	22925.783711015796	0
0	28275	22927.480597779459	1
0	28276	22928.365508616721	0
0	28285	22934.897435990858	1
0	28286	22935.551869103029	0
0	28370	22999.135519432022	1
0	28371	23000.041374066757	0
0	28420	23017.991818870988	1
0	28421	23018.449466358437	0
0	28440	23028.002223903221	1
0	28441	23029.185665525358	0
0	28450	23032.200237309312	1
0	28451	23032.90535852968	0
0	28475	23056.538354926236	1
0	28476	23056.617658650515	0
0	28520	23112.455247103139	1
0	28522	23113.157320630837	2
0	28523	23113.271383333363	1
0	28526	23114.282037907903	0
0	28550	23121.167020178443	1
0	28551	23121.716408891121	0
0	28570	23124.762670069902	1
0	28572	23125.098764421016	2
0	28573	23125.687515739521	1
0	28576	23126.827106955631	0
0	28605	23166.432944175627	1
0	28606	23167.086302680206	0
0	28610	23167.803828094319	1
0	28611	23168.24550917564	0
0	28630	23183.688270678714	1
0	28631	23184.144743141162	0
0	28665	23209.706335129701	1
0	28666	23209.855711914271	0
0	28695	23241.500654723169	1
0	28696	23241.648204792581	0
0	28780	23322.093200501546	1
0	28781	23322.718127177934	0
0	28785	23322.978397219508	1
0	28786	23323.747881490084	0
0	28865	23400.635157836681	1
0	28866	23401.361012646446	0
0	28910	23442.245613181715	1
0	28911	23442.275809018751	0
0	28960	23518.067441698264	1
0	28961	23518.686934554734	0
0	28980	23538.195058640385	1
0	28981	23538.266946024105	0
0	29010	23556.394240655119	1
0	29011	23556.587084063245	0
0	29130	23692.139923084314	1
0	29131	23692.36540931275	0
0	29172	23723.420207177277	1
0	29173	23723.690837764232	0
0	29185	23734.005852281133	1
0	29187	23734.056457950815	2
0	29188	23734.997841948435	1
0	29191	23735.859591677204	0
0	29310	23869.640633886077	1
0	29311	23870.047815531045	0
0	29360	23924.937674266196	1
0	29361	23925.066770051639	0
0	29372	23927.038399655223	1
0	29373	23927.416008881281	0
0	29377	23927.427690591951	1
0	29378	23928.594949690427	0
0	29410	23949.587085094644	1
0	29411	23950.46229560987	0
0	29415	23950.551052785925	1
0	29417	23951.098271450898	2
0	29418	23951.264197461744	1
0	29421	23952.265537139372	0
0	29445	23961.684688716041	1
0	29446	23962.469738484063	0
0	29455	23963.848510017291	1
0	29457	23964.435246914311	2
0	29458	23964.496252282691	1
0	29461	23965.31814500101	0
0	29485	23981.460705673432	1
0	29486	23982.340102973366	0
0	29510	24000.841374273066	1
0	29511	24001.601229893082	0
0	29580	24052.591679927621	1
0	29581	24052.68176379576	0
0	29635	24140.234646410001	1
0	29638	24141.164625795638	0
0	29645	24142.388575314559	1
0	29646	24143.009604709955	0
0	29705	24197.63324754926	1
0	29706	24197.697199694275	0
0	29710	24197.95240060906	1
0	29711	24198.675984419159	0
0	29730	24219.288486776547	1
0	29731	24219.959133614232	0
0	29760	24247.372421722522	1
0	29761	24247.566192798324	0
0	29765	24248.663984840787	1
0	29766	24248.731914831892	0
0	29775	24249.741087042512	1
0	29776	24250.56124154358	0
0	29780	24250.965820170104	1
0	29781	24251.683169583984	0
0	29885	24306.135422915822	1
0	29886	24306.732101590028	0
0	29905	24309.804371045604	1
0	29906	24310.856698140412	0
0	29985	24381.241618883738	1
0	29986	24382.113594442044	0
0	29990	24382.134642324707	1
0	29991	24383.120243199166	0
0	30000	24386.367789045841	1
0	30001	24386.728191530415	0
0	30005	24387.052832407308	1
0	30006	24387.927698755813	0
0	30110	24475.558170612502	1
0	30111	24476.480068105772	0
0	30115	24476.588840624855	1
0	30116	24477.462486617301	0
0	30125	24478.832660417682	1
0	30126	24479.277382636756	0
0	30130	24479.478478376652	1
0	30131	24480.394577437301	0
0	30270	24627.28541949395	1
0	30271	24628.069099425459	0
0	30285	24633.002117272205	1
0	30286	24633.054830586699	0
0	30340	24660.887235144169	1
0	30341	24661.731058012633	0
0	30370	24685.693408280482	1
0	30371	24685.748307397539	0
0	30397	24707.290764874399	1
0	30398	24707.41890233238	0
0	30402	24707.563412674232	1
0	30403	24708.267266700089	0
0	30430	24715.620029288217	1
0	30431	24716.228846275609	0
0	30465	24740.083530634052	1
0	30466	24740.727080063281	0
0	30475	24743.533140501923	1
0	30476	24744.279861295829	0
0	30500	24776.404406441763	1
0	30503	24777.232587501646	0
0	30510	24778.756833684372	1
0	30511	24779.081918077503	0
0	30535	24789.911639410216	1
0	30536	24790.968182115858	0
0	30540	24791.400407172522	1
0	30541	24792.028722802406	0
0	30725	24993.679543301607	1
0	30726	24993.952294567716	0
0	30825	25089.683682968306	1
0	30826	25090.010844660491	0
0	30855	25114.134855332363	1
0	30856	25114.743968786287	0
0	30910	25155.731039584028	1
0	30911	25156.152390064219	0
0	30940	25189.746237942528	1
0	30941	25190.068563445042	0
0	30965	25207.389446361804	1
0	30966	25208.264449991942	0
0	30982	25215.230978218665	1
0	30983	25215.959797482508	0
0	31050	25288.213459568838	1
0	31051	25288.971415034629	0
0	31055	25289.342745428461	1
0	31056	25290.15604204344	0
0	31120	25377.056829668983	1
0	31121	25377.259795353979	0
0	31125	25377.773458094091	1
0	31126	25378.286692396969	0
0	31170	25421.05099034686	1
0	31172	25421.084329748113	2
0	31173	25421.865403642513	1
0	31176	25422.967249420293	0
0	31265	25550.957292041097	1
0	31266	25551.182218646946	0
0	31275	25554.896480094523	1
0	31276	25555.667158819277	0
0	31340	25658.298652527115	1
0	31341	25659.311469387286	0
0	31375	25683.767070429049	1
0	31376	25683.816044819534	0
0	31420	25704.21816471194	1
0	31421	25704.562895241337	0
0	31460	25735.345031993493	1
0	31461	25735.856248063602	0
0	31480	25749.578206055548	1
0	31481	25750.353280468383	0
0	31515	25774.22924207671	1
0	31516	25775.164637691786	0
0	31525	25778.551385888966	1
0	31526	25779.262870379357	0
0	31535	25785.113772626144	1
0	31536	25785.332097267872	0
0	31545	25791.111991916943	1
0	31546	25791.726057457804	0
0	31575	25816.168586788439	1
0	31576	25816.987405621705	0
0	31610	25829.819547661424	1
0	31612	25829.938793648802	2
0	31613	25830.005656523927	1
0	31617	25830.621067587672	2
0	31618	25830.986335805542	1
0	31622	25831.133446311592	2
0	31623	25831.884306931793	1
0	31626	25832.707706241886	0
0	31630	25833.375784495148	1
0	31631	25833.649444893672	0
0	31635	25834.213636144234	1
0	31636	25834.452283433749	0
0	31685	25878.359795885742	1
0	31686	25879.233453171052	0
0	31700	25886.647970992489	1
0	31701	25886.766789847143	0
0	31780	25976.334735942341	1
0	31781	25976.700489464218	0
0	31785	25977.00654147393	1
0	31786	25977.822919496337	0
0	31790	25978.113438017191	1
0	31791	25978.930067466294	0
0	31870	26063.851622828266	1
0	31872	26064.175724182039	2
0	31873	26064.331731037834	1
0	31876	26065.51480600549	0
0	31885	26067.683190841268	1
0	31886	26067.941681397814	0
0	31890	26068.816087247219	1
0	31891	26069.040897344906	0
0	31940	26096.819413067324	1
0	31941	26096.923038852135	0
0	31970	26127.121684269003	1
0	31971	26127.653292577307	0
0	31975	26128.013001541003	1
0	31976	26128.689728635236	0
0	32120	26239.309611488308	1
0	32121	26239.823278660371	0
0	32145	26245.574193321418	1
0	32146	26246.258936308289	0
0	32200	26307.784085871661	1
0	32201	26308.56128582819	0
0	32230	26316.841827841564	1
0	32231	26317.479425367528	0
0	32265	26339.15024040235	1
0	32268	26339.980216412593	0
0	32285	26349.719172744611	1
0	32286	26350.436861887811	0
0	32295	26355.997267300397	1
0	32296	26356.842690148987	0
0	32340	26377.455011538221	1
0	32341	26378.198803875106	0
0	32350	26381.624397649361	1
0	32351	26381.86920491515	0
0	32410	26433.678685542613	1
0	32411	26434.148279163201	0
0	32445	26449.884557507062	1
0	32446	26449.982903419416	0
0	32480	26469.209188925714	1
0	32482	26469.328371132836	2
0	32483	26469.932326770451	1
0	32488	26471.069691617664	0
0	32497	26472.544147214173	1
0	32498	26472.814420339529	0
0	32680	26604.034169861888	1
0	32683	26604.887872006324	0
0	32687	26605.39751151708	1
0	32690	26605.828358923317	0
0	32767	26663.365410452293	1
0	32770	26664.180416714062	0
0	32840	26710.698882335897	1
0	32841	26710.884780058413	0
0	32845	26711.465331563128	1
0	32846	26711.910477215293	0
0	32875	26749.93490364956	1
0	32878	26750.9406132438	0
0	32905	26779.343414327432	1
0	32907	26780.036591118875	2
0	32908	26780.171176776676	1
0	32914	26780.947451923872	2
0	32915	26781.204056881195	1
0	32918	26782.1033669877	0
0	32922	26782.109887041061	1
0	32923	26783.195016728634	0
0	32935	26786.316207573747	1
0	32936	26787.050364133348	0
0	32995	26847.847628349017	1
0	32996	26848.991018593197	0
0	33000	26849.373456240112	1
0	33001	26849.801383390163	0
0	33025	26875.57172086735	1
0	33026	26875.854287291438	0
0	33030	26876.596919228146	1
0	33031	26877.038035892908	0
0	33035	26877.757303814768	1
0	33036	26878.09566674319	0
0	33085	26916.524840152838	1
0	33086	26917.192409311366	0
0	33195	27031.899836843119	1
0	33196	27032.234407259983	0
0	33210	27043.820699473618	1
0	33211	27044.841700934006	0
0	33230	27051.113410110278	1
0	33231	27051.861455669696	0
0	33245	27062.061119193333	1
0	33246	27062.075147037659	0
0	33357	27138.914007985537	1
0	33358	27139.442995279776	0
0	33380	27145.010260895155	1
0	33381	27145.321584857131	0
0	33480	27227.602715288988	1
0	33481	27228.200793697924	0
0	33555	27289.408455392589	1
0	33558	27290.446432982506	0
0	33585	27298.231053682389	1
0	33586	27299.130359023149	0
0	33605	27315.817144323235	1
0	33606	27316.287881449248	0
0	33635	27336.041249632181	1
0	33636	27336.713449947023	0
0	33680	27357.230750874998	1
0	33681	27357.67435584283	0
0	33755	27419.605382707913	1
0	33756	27420.464959677047	0
0	33850	27512.194822780761	1
0	33852	27512.46571178685	2
0	33853	27512.906325176207	1
0	33858	27514.097264171427	0
0	33862	27514.232684134235	1
0	33863	27515.080949245522	0
0	33867	27515.939303381748	1
0	33868	27516.018357707782	0
0	33875	27517.559606791511	1
0	33876	27517.847270903586	0
0	33900	27534.529631501406	1
0	33901	27535.661023863645	0
0	33920	27539.353036746944	1
0	33921	27540.268978642876	0
0	33975	27560.833865881858	1
0	33976	27561.779871057155	0
0	33990	27569.195377483707	1
0	33993	27569.941728825272	0
0	34000	27570.97065968346	1
0	34002	27571.153640959383	2
0	34003	27571.900622427334	1
0	34006	27572.990203516521	0
0	34015	27574.578545036381	1
0	34016	27575.437268605818	0
0	34020	27576.274422206782	1
0	34021	27576.338704415121	0
0	34055	27592.42984758957	1
0	34057	27593.008623944211	2
0	34059	27593.177695285171	3
0	34060	27593.509146307064	2
0	34063	27594.687696785508	1
0	34066	27595.556871044478	0
0	34070	27595.584359268488	1
0	34071	27596.739300989574	0
0	34090	27630.662730635025	1
0	34091	27631.513955123123	0
0	34125	27673.006118075519	1
0	34126	27673.246185569446	0
0	34135	27677.952105768273	1
0	34136	27678.188490262667	0
0	34170	27693.461287173675	1
0	34171	27693.932939702546	0
0	34180	27695.192153507265	1
0	34181	27696.056121954221	0
0	34240	27741.554294302335	1
0	34241	27742.227603904596	0
0	34325	27805.844266567361	1
0	34326	27806.136728570467	0
0	34350	27825.739672408506	1
0	34351	27826.055903089575	0
0	34375	27837.258904357504	1
0	34376	27837.383572396515	0
0	34390	27855.882440487354	1
0	34391	27856.016145226113	0
0	34400	27857.348097570403	1
0	34401	27858.190812524627	0
0	34405	27858.518013988017	1
0	34406	27859.162027931339	0
0	34412	27859.510737035505	1
0	34413	27860.214125124956	0
0	34422	27861.474316671752	1
0	34423	27862.310627520954	0
0	34430	27863.790274067446	1
0	34433	27864.485213692146	0
0	34440	27865.880544324804	1
0	34441	27866.593344367421	0
0	34470	27886.265746446504	1
0	34471	27886.588416471744	0
0	34510	27918.969877082874	1
0	34513	27919.417172658382	0
0	34580	27985.18479682801	1
0	34581	27985.206005861959	0
0	34660	28059.198885568686	1
0	34661	28060.016758838112	0
0	34880	28271.829977597059	1
0	34881	28272.170663773944	0
0	34935	28315.145533172575	1
0	34936	28315.999684041112	0
0	34960	28331.41305269188	1
0	34961	28331.949873348583	0
0	35000	28354.262547933447	1
0	35001	28354.620277909921	0
0	35040	28384.352852095484	1
0	35041	28384.883352477785	0
0	35045	28384.968944812555	1
0	35048	28385.928326048452	0
0	35080	28398.18178877814	1
0	35082	28398.340750891351	2
0	35083	28398.353754635644	1
0	35086	28399.310031124786	0
0	35090	28399.624388819113	1
0	35091	28400.360785447084	0
0	35115	28416.115535013731	1
0	35116	28416.480850294146	0
0	35120	28417.284457741198	1
0	35121	28417.621162608831	0
0	35125	28418.04371272359	1
0	35128	28418.714523597254	0
0	35210	28477.033082059742	1
0	35213	28477.544714945526	0
0	35280	28538.69330896022	1
0	35281	28539.270539353043	0
0	35290	28541.264519952089	1
0	35291	28541.43936591633	0
0	35350	28575.293349796147	1
0	35351	28575.911468381263	0
0	35365	28598.592370008333	1
0	35366	28599.616078889769	0
0	35375	28603.991295666189	1
0	35376	28604.863362835763	0
0	35410	28632.63387743831	1
0	35411	28633.248482089574	0
0	35435	28658.863988536691	1
0	35436	28659.347929753826	0
0	35490	28730.41394721238	1
0	35491	28730.556722421124	0
0	35545	28776.772205805751	1
0	35546	28777.355784769836	0
0	35575	28795.264986766652	1
0	35576	28795.817142113551	0
0	35590	28800.656716492281	1
0	35591	28800.785989229645	0
0	35615	28827.128811727695	1
0	35616	28827.380597334539	0
0	35630	28831.521310669668	1
0	35631	28832.673592707611	0
0	35740	28912.426045013506	1
0	35741	28912.615442532737	0
0	35752	28914.261407906416	1
0	35753	28914.54657110811	0
0	35840	28975.467011145816	1
0	35841	28976.54890466674	0
0	35855	28980.934106514146	1
0	35856	28981.065521606953	0
0	35890	29000.270927051088	1
0	35891	29001.234064214942	0
0	36005	29128.081478192362	1
0	36006	29128.362568893952	0
0	36025	29142.155805987418	1
0	36028	29142.900191717314	0
0	36034	29143.085449530942	1
0	36035	29144.076588293257	0
0	36039	29144.384798197811	1
0	36040	29145.161016948986	0
0	36044	29145.516084845451	1
0	36046	29145.521381078303	2
0	36047	29146.091766544058	1
0	36050	29147.021569743007	0
0	36054	29147.763242232699	1
0	36056	29147.946678773521	2
0	36057	29148.091225438378	1
0	36060	29148.98460124107	0
0	36067	29150.505151148976	1
0	36069	29150.753213209071	2
0	36070	29150.894379697088	1
0	36073	29151.973369472287	0
0	36085	29157.649730670713	1
0	36086	29158.021272000497	0
0	36090	29158.469978464418	1
0	36091	29159.081705281244	0
0	36130	29180.334044533457	1
0	36133	29180.831032944919	0
0	36180	29213.276648095929	1
0	36181	29213.654929890311	0
0	36185	29214.092223660819	1
0	36186	29214.817742892741	0
0	36200	29217.669984856118	1
0	36201	29218.120434430748	0
0	36255	29279.066557121409	1
0	36256	29279.471048246199	0
0	36292	29322.360382397655	1
0	36293	29322.366788410473	0
0	36340	29373.302210794839	1
0	36341	29373.716000800434	0
0	36365	29397.377892724194	1
0	36366	29397.625401797294	0
0	36375	29407.487811735743	1
0	36376	29407.711180850759	0
0	36380	29407.899396788922	1
0	36381	29408.55457928608	0
0	36405	29419.152702039983	1
0	36406	29419.536092752479	0
0	36525	29477.818944443112	1
0	36526	29478.366171075036	0
0	36832	29744.781721236801	1
0	36833	29744.981831821573	0
0	36850	29756.362963594889	1
0	36851	29756.637168317585	0
0	36860	29757.922379901153	1
0	36861	29758.740185339756	0
0	36885	29775.39460916439	1
0	36886	29776.21756282183	0
0	36915	29789.613651156373	1
0	36916	29789.971315692529	0
0	36957	29814.774407504456	1
0	36958	29814.786112665848	0
0	36980	29832.685205830358	1
0	36981	29833.142183309833	0
0	37010	29863.27250418212	1
0	37011	29864.21205392401	0
0	37020	29871.501987879251	1
0	37021	29872.188035882493	0
0	37045	29890.437189897633	1
0	37046	29890.571439996875	0
0	37110	29928.806118775342	1
0	37111	29928.941800520322	0
0	37160	29952.532783461074	1
0	37161	29952.872840778303	0
0	37190	29976.842373745621	1
0	37191	29977.114837174512	0
0	37195	29978.05704518674	1
0	37196	29978.299545923736	0
0	37200	29978.418597717877	1
0	37201	29979.195109425414	0
1	12537	10014.243513298726	1.08512278311
1	12540	10015.239792360964	1.5972577309
1	12545	10019.205181570348	0.848296023067
1	12555	10023.782869299826	1.15267819846
1	12565	10026.176725838018	2.133117175846
1	12570	10037.225567822503	0.885725583788
1	12575	10046.007809104742	1.162076448556
1	12595	10068.726808689913	1.118387487996
1	12600	10079.087125193587	1.08781757718
1	12607	10083.416980558473	1.101590934861
1	12615	10086.735352888381	3.802328374852
1	12630	10104.350994199383	1.044001128059
1	12640	10122.266116568863	1.068303936813
1	12645	10123.570399296847	0.873740451131
1	12655	10127.336828985273	2.402116330951
1	12662	10135.660810356494	0.90236112643
1	12685	10148.307731084344	1.284056476182
1	12745	10186.587316156597	1.825446978781
1	12750	10190.169073769851	0.97824194897
1	12762	10193.146067656033	1.141380789876
1	12765	10193.959643702131	1.125772878643
1	12782	10199.02985195219	1.89607759456
1	12787	10200.130532860471	1.153898289878
1	12800	10205.374344558536	1.04911514977
1	12805	10210.894600477776	1.052399539296
1	12810	10213.748642988944	0.848970164824
1	12815	10217.054876295544	1.012814702373
1	12827	10226.342950100668	2.725092849169
1	12832	10227.423551920552	2.079229452725
1	12837	10228.512808292762	1.41638930063
1	12847	10230.650650482283	1.869693271015
1	12855	10236.839071148643	1.119328622892
1	12865	10249.899382242545	0.937084924895
1	12870	10256.571934494588	0.883177898824
1	12875	10278.780529412493	1.140504324622
1	12882	10283.193989581011	1.127458611783
1	12885	10284.078224053096	0.985189008315
1	12905	10294.689126417017	1.630400562172
1	12940	10320.991300124657	2.597452842089
1	12947	10323.066169764016	1.044825734757
1	12965	10347.928685971025	0.906146805733
1	12972	10362.064839135357	0.802688094415
1	12977	10363.057985506174	1.268886532022
1	12995	10378.225769778183	1.031385313626
1	13000	10383.914700131055	1.165280980244
1	13005	10385.290002880208	0.975421363488
1	13010	10387.902044382636	0.821161368769
1	13015	10391.244939424534	0.979499719385
1	13025	10399.98561868616	2.552233570381
1	13032	10420.230381051213	1.19712593006
1	13070	10458.351173804541	2.008299023576
1	13075	10459.891468872014	0.817470017169
1	13080	10464.733108380634	0.838395276014
1	13085	10473.63099166192	0.897707316279
1	13100	10486.442764592934	1.672612512472
1	13110	10497.620857140828	0.984949422255
1	13120	10504.88015599325	1.017908423953
1	13127	10508.068945893491	1.094328309316
1	13130	10509.008618818069	1.914252060251
1	13145	10514.073959348272	1.967574004205
1	13155	10552.520523382302	1.05306372568
1	13167	10559.240972526409	1.359768725336
1	13170	10560.050806599893	2.875484288298
1	13175	10562.603695580581	0.816763073858
1	13185	10566.135880673323	1.526378082566
1	13205	10592.396434344308	2.811556815733
1	13210	10593.570162412201	5.212066028395
1	13215	10617.51508094324	1.105727599934
1	13225	10626.56821790242	1.12443014695
1	13235	10629.257622557623	1.618398314891
1	13245	10632.60476193209	0.988821807597
1	13250	10634.127203578709	0.929795514047
1	13270	10650.588718010585	0.900542251114
1	13275	10653.385791400201	0.84120620219
1	13280	10662.734703462761	1.109989906382
1	13295	10678.926214840085	0.81597270593
1	13305	10683.812710213523	2.107254706295
1	13310	10693.35043272233	1.058741560113
1	13315	10696.808646624846	1.175840662792
1	13322	10701.458449689417	1.11616625879
1	13350	10732.886626097491	3.35524701673
1	13372	10766.925769325976	2.912723483331
1	13380	10769.168246166293	4.154296427477
1	13397	10784.870719204366	1.752383927916
1	13405	10786.930318705273	0.962003424671
1	13417	10799.10535123165	0.846507753991
1	13430	10803.338906392654	1.199455526844
1	13455	10816.878601712622	1.488792462884
1	13467	10825.177000766458	2.969010174433
1	13470	10826.10233675216	1.322512044375
1	13480	10831.440988600742	1.407157788503
1	13485	10835.234064990434	0.825239399169
1	13490	10845.756596319904	1.007489338052
1	13495	10852.195472558428	1.080658941902
1	13515	10875.732940881306	1.101989276521
1	13522	10878.81855451796	0.852077951375
1	13525	10879.675398908702	1.082598500337
1	13530	10887.281339709434	1.154289188422
1	13545	10904.193971369116	4.817080454282
1	13555	10908.447720305991	0.885899050068
1	13580	10924.261957940543	4.94050875064
1	13597	10937.122254305056	1.072797011584
1	13600	10938.20019395361	1.949245992236
1	13605	10943.469042168799	0.904032249935
1	13615	10954.395235421168	2.022403187354
1	13625	10958.358803693737	1.130835162196
1	13635	10971.752650098523	0.932236959413
1	13640	10974.773905472309	0.883320373949
1	13645	10978.504222206649	1.111215709243
1	13650	10983.310347646034	0.802035664115
1	13660	10988.887867611473	0.832303217426
1	13675	11004.897050015718	0.981918038614
1	13695	11019.387698713644	1.112922692299
1	13700	11022.79555786449	1.1422043317
1	13707	11025.955268356347	1.096586150024
1	13720	11036.848487375241	3.551602473002
1	13727	11044.398860137426	0.947449232079
1	13737	11048.052541717239	4.000968968462
1	13750	11054.283632446108	0.907997675799
1	13757	11055.525947260398	0.81612354489
1	13770	11070.158650897812	0.892258219235
1	13780	11075.547640480794	0.929849871527
1	13800	11088.169868339987	0.844931564387
1	13805	11089.322115638231	0.8253289463
1	13815	11102.250769572293	2.502254524699
1	13825	11107.604377531632	0.840244090464
1	13837	11124.072305335299	0.875650225021
1	13855	11145.752402817993	1.647405772638
1	13860	11149.065752164023	6.954400291064
1	13865	11156.394975272608	0.934041132499
1	13875	11162.344730664685	1.008584184665
1	13880	11172.047938017018	1.066188484151
1	13885	11174.19103423366	0.828154885676
1	13894	11175.472647138224	1.196071298048
1	13897	11176.586046222136	2.066530077863
1	13900	11177.552484507397	2.931598744433
1	13905	11179.362795543789	0.916723760962
1	13910	11194.249684400383	0.858886800706
1	13915	11204.968862247568	0.824652379379
1	13920	11212.568370375509	1.000211281423
1	13925	11214.401361584865	0.985892690718
1	13937	11218.738778158012	1.150515903553
1	13940	11219.713455314017	1.65599906103
1	13945	11230.100302476565	1.161013103649
1	13952	11233.051805659185	0.934673954546
1	13996	11254.458168417556	1.18576132711
1	14001	11255.336244096948	1.650776428485
1	14011	11257.331174958652	1.236559912233
1	14016	11258.140710161967	0.830491749137
1	14027	11261.176921611713	6.689487239779
1	14035	11264.114765382214	0.800654538255
1	14055	11286.179083259285	0.883392395731
1	14067	11300.004622764034	0.813539155014
1	14072	11301.181715275893	1.289192278738
1	14087	11304.148352976223	2.991796430936
1	14090	11305.149250855749	3.405864039566
1	14130	11343.810912253888	1.043036809005
1	14135	11349.344924195993	1.012540164497
1	14150	11354.582813905056	1.12152100848
1	14155	11356.359221776543	1.013553938363
1	14170	11397.474208495472	0.937290490046
1	14175	11408.304159315509	1.12194556389
1	14180	11425.295057394424	0.942921221163
1	14190	11439.228733479979	0.892073912174
1	14202	11451.908266291478	1.180422488414
1	14205	11452.734771838588	1.363056703918
1	14215	11457.629708051786	1.7746172088
1	14220	11473.05149804327	0.893157599028
1	14235	11482.408130078507	2.914857123214
1	14250	11500.831303589751	1.108639933096
1	14267	11504.954074795192	6.487852052658
1	14270	11505.768073971683	0.963532150836
1	14275	11511.042341054452	0.874868160766
1	14282	11523.6427436153	0.945398136508
1	14285	11524.683801789728	1.544520858338
1	14295	11529.933796090381	0.868121821433
1	14320	11560.720628666282	1.026107212342
1	14342	11573.741980166222	3.342486156655
1	14345	11574.927647857416	1.582311653617
1	14350	11579.148824585906	0.915955850203
1	14362	11596.377081889152	0.814130554162
1	14365	11597.545481116097	1.762290815522
1	14375	11608.887437428781	1.010348746646
1	14380	11611.70627415472	0.95279407762
1	14390	11614.324502924055	0.887321688235
1	14395	11615.635985171699	3.207579606189
1	14400	11625.551925519285	0.935461166222
1	14410	11644.055349568836	0.948213655967
1	14420	11653.254512458756	1.020000658091
1	14425	11655.762561167814	0.961044749897
1	14430	11658.401160274685	0.863421351742
1	14440	11686.354956191675	1.125535408407
1	14445	11694.502857289274	0.835763970949
1	14460	11705.686799417628	0.855372379255
1	14465	11712.471149374088	0.828234776482
1	14475	11727.610682772836	0.88688024655
1	14485	11731.654274201578	2.161060196977
1	14510	11752.460299492923	6.839116298054
1	14515	11790.043932074932	1.11476452956
1	14565	11829.58580542348	0.824650722835
1	14580	11836.814312090301	2.43314606
1	14585	11839.080556042775	1.019296642207
1	14590	11840.29710467859	1.089191754162
1	14595	11849.271129041821	0.938247419801
1	14600	11853.79760873858	0.914727665856
1	14605	11877.242419116608	0.956934155151
1	14637	11906.709841076669	1.602601272048
1	14642	11907.527617334121	1.523582699102
1	14647	11908.42878406226	3.461500514672
1	14665	11915.740838195627	0.971818971168
1	14700	11938.908431949036	1.157258582115
1	14707	11956.611749489016	1.157610625215
1	14715	11967.623000791301	1.019629068207
1	14720	11972.737699496684	0.952136242855
1	14727	11976.12576398651	1.027038850728
1	14730	11977.147749081318	1.159087550216
1	14737	11993.838170392582	1.183760022931
1	14740	11994.99815997654	1.821769081109
1	14755	12008.660387386715	1.178302009497
1	14780	12016.987346095062	2.703954127524
1	14807	12035.721102955661	0.928016223766
1	14815	12040.741311602844	0.910873286519
1	14820	12042.200202977702	1.184220020566
1	14830	12046.633464970302	0.863686822355
1	14861	12069.674886517754	1.382644729543
1	14864	12070.811715168288	3.400967777986
1	14892	12081.979704755784	1.094676406682
1	14897	12082.910283820105	1.394363014012
1	14922	12091.581128288732	1.157169074286
1	14947	12126.728157639029	1.106372379791
1	14960	12129.863624111695	1.243091958976
1	14972	12134.101377625754	1.18329575754
1	14975	12135.25551141751	3.295946683549
1	14985	12141.98841069622	1.164066240564
1	15005	12171.490109726707	1.072706844099
1	15025	12182.377030443446	3.991940839559
1	15045	12198.853354411568	1.181514044944
1	15050	12205.846968574718	1.059216573462
1	15055	12210.176745861662	1.085900428612
1	15062	12218.914367145076	0.881616266537
1	15077	12222.758156793243	1.593166880155
1	15100	12227.971073059178	7.033049698401
1	15110	12237.43373553455	0.932815492526
1	15129	12253.731726761568	0.935081212036
1	15132	12254.729621587168	1.890359661583
1	15135	12255.615197840087	2.719451958921
1	15145	12259.927808300141	0.963228875771
1	15174	12270.047586147981	1.949850443133
1	15179	12270.875225135526	7.297142706818
1	15200	12306.342785538743	1.079241118766
1	15210	12314.938593909857	1.116070925724
1	15230	12340.732625936462	0.804748561792
1	15247	12360.86048906355	1.129901685845
1	15250	12361.709375520263	1.712040411987
1	15267	12379.196855556363	0.871909007058
1	15275	12382.764008243023	0.827084433846
1	15292	12397.135840891567	5.408714893548
1	15295	12397.937925573983	1.383424568808
1	15327	12410.845392046176	1.486689118479
1	15355	12458.989799308971	1.173195752967
1	15360	12465.721486120881	1.134106388222
1	15380	12486.229864784668	1.096498832386
1	15387	12488.510213370017	1.054685181752
1	15405	12497.967610279073	1.047370512877
1	15410	12499.696579980964	1.170603884105
1	15425	12506.322901856864	3.568343612738
1	15435	12515.928788597519	1.001034990884
1	15455	12529.39591269566	3.746792493683
1	15460	12536.420261451934	0.980246904213
1	15475	12549.091445870371	1.884876305395
1	15485	12555.839845514113	0.934822131041
1	15490	12570.03075533079	0.888500948437
1	15500	12582.962002212023	1.02574094804
1	15505	12586.737486106487	1.100121904816
1	15520	12601.185768657708	1.073387812916
1	15525	12604.552261304078	1.101396647654
1	15535	12627.284248494546	1.194541331225
1	15540	12630.400427059233	0.97458068952
1	15552	12636.447539971789	2.206598529091
1	15567	12642.315998903991	1.15251086494
1	15580	12658.816704399967	2.144796860612
1	15590	12668.415089113378	3.34782392683
1	15595	12676.05181158095	1.135210484825
1	15605	12681.135573190089	1.025841185078
1	15610	12685.984494476882	1.184763744753
1	15615	12691.151237236553	1.147423433419
1	15625	12710.803329145422	0.842981348094
1	15630	12713.614936474716	1.134589811321
1	15640	12718.58595906664	2.533492973654
1	15650	12726.775885183105	0.920428122208
1	15662	12731.011479844083	2.433387366105
1	15670	12742.359670283476	1.196699552611
1	15675	12750.923734724223	1.12949538324
1	15680	12752.12963988394	1.165882940497
1	15685	12756.480114919731	0.989841780532
1	15690	12758.550814927915	1.055377438292
1	15710	12776.708823490984	9.743005796333
1	15717	12779.753990607152	0.897650616709
1	15735	12793.190625515667	0.997758358344
1	15742	12800.663427911434	0.905102871638
1	15745	12801.766544750627	1.849412417847
1	15762	12807.08134056276	3.01083762208
1	15770	12809.266777419998	0.821100352239
1	15775	12810.483326308557	0.906459194236
1	15792	12814.341243540281	3.045576056186
1	15795	12815.338886410435	3.165420233186
1	15819	12825.648290107018	0.932026281301
1	15824	12826.675299982252	1.802842326882
1	15829	12827.636050841203	4.796444633426
1	15832	12828.657292382782	1.044691582125
1	15867	12851.474806104776	1.057983088866
1	15870	12852.423347407755	1.625793818003
1	15875	12862.685126672325	1.030711071007
1	15880	12885.961591287684	1.023553366587
1	15885	12892.655025086317	0.884744245652
1	15892	12896.528692596225	1.123605758138
1	15905	12900.047208205545	3.803664049247
1	15920	12912.134163165851	1.169921474997
1	15942	12921.062855611026	2.970145059563
1	15955	12923.930455985019	4.74410495832
1	15970	12928.6762136502	1.535058957862
1	15982	12933.100187324995	7.468696526605
1	15990	12940.797198778188	0.828033565264
1	15997	12951.747379798314	1.002927904204
1	16007	12953.703838389672	2.348359047948
1	16010	12954.629935389038	1.099833301983
1	16015	12958.170350865039	1.00470616119
1	16020	12959.892094771435	1.112500579655
1	16027	12964.06600419838	0.958058502898
1	16035	12970.753345150466	1.087974845432
1	16045	12972.727744857735	1.607190191798
1	16062	13000.043626076665	0.901050197799
1	16082	13015.159988390167	0.931739072688
1	16087	13016.330651042589	1.848835651687
1	16095	13025.920853790655	1.157481806539
1	16105	13029.467221351827	1.719380778091
1	16110	13041.523160520614	0.816204861738
1	16130	13054.446463979924	0.846166243693
1	16140	13057.377651298638	1.476137312131
1	16145	13059.474321366529	1.124831706285
1	16150	13063.207129757747	1.18149745753
1	16159	13066.76048219777	0.921679350641
1	16162	13067.904305626036	1.943850969108
1	16180	13076.047075347779	1.887288007816
1	16185	13081.035742773715	0.826733317692
1	16190	13084.127477697736	0.977212755941
1	16202	13089.659034593939	1.129944668617
1	16217	13092.338672297053	2.815765718762
1	16237	13116.729547190166	1.156452091783
1	16240	13117.810910825117	1.622103556046
1	16265	13135.045003789785	1.84516384201
1	16280	13158.16761909958	1.092965758685
1	16285	13161.863643907913	1.116287635081
1	16290	13167.868753802387	0.911609713919
1	16300	13173.362129996392	0.804071395285
1	16305	13174.400551571163	0.982274862751
1	16312	13176.11077698477	0.837873253971
1	16320	13186.546745602333	0.959063926991
1	16342	13223.585964170328	1.619969883675
1	16345	13224.424748561947	1.802503009199
1	16362	13236.886497812986	6.155669370717
1	16365	13237.734489700839	1.597069546779
1	16387	13254.738465183996	0.807638379
1	16390	13255.859681560308	9.278981365266
1	16397	13257.30791086767	0.985360054579
1	16405	13260.308673531743	3.816679130235
1	16420	13267.845571355227	1.124980935641
1	16425	13272.639375676884	1.184007540997
1	16450	13297.493130857713	0.822610364109
1	16455	13302.927275051747	0.802145522926
1	16465	13307.924897650152	0.926253117714
1	16470	13317.466631108527	1.013225901313
1	16482	13323.070670034438	3.698505518353
1	16495	13326.275946473311	3.459330470342
1	16525	13356.953674851533	1.589548435749
1	16530	13360.480781615807	1.175109854341
1	16540	13374.176190895116	0.888996040262
1	16545	13375.296166505285	1.080800645053
1	16550	13381.988292373264	0.880268243887
1	16555	13383.306175000892	0.98949984936
1	16564	13401.176058482017	1.098135754187
1	16575	13410.440314889205	1.038036568929
1	16605	13427.846874845655	1.848393739221
1	16617	13433.790353163238	1.553260095433
1	16622	13434.699456718191	1.021751414473
1	16625	13435.713247459568	1.156738524065
1	16637	13442.908757008148	3.174886544655
1	16650	13451.01571167124	1.196480952948
1	16655	13454.129122812187	0.869017723668
1	16675	13464.183891861436	1.189427895714
1	16695	13480.986969380566	2.046464507384
1	16705	13490.613939824927	0.919900748972
1	16720	13527.499178712161	1.039403550979
1	16730	13531.853759683321	0.915292784284
1	16735	13534.764776011403	1.020906891581
1	16742	13539.308741830433	1.078250376787
1	16745	13540.502492472207	1.300088030911
1	16765	13561.935823676098	0.885449040029
1	16770	13564.007770828295	0.814395925403
1	16780	13584.055667400515	1.113506202493
1	16785	13593.359249908954	1.102558820508
1	16794	13594.812768461236	1.041626954451
1	16799	13595.898094598257	1.844948874489
1	16814	13599.166680216749	4.221030619381
1	16832	13614.140666001943	1.033788907528
1	16835	13615.088453151194	1.15587949163
1	16845	13617.777890220209	1.009660991847
1	16860	13625.303178170829	4.353459491418
1	16865	13633.909056805521	0.942518664151
1	16879	13640.15301516622	0.888885594159
1	16882	13641.251890060936	1.771784254625
1	16895	13646.745409751585	2.729974644497
1	16910	13654.451045176047	0.953633354325
1	16915	13661.178177162755	0.962683462724
1	16920	13667.904240546548	0.922238063626
1	16930	13674.746486324665	1.003196056839
1	16935	13676.034062059637	4.339263950295
1	16965	13686.540552536009	0.950280206092
1	16970	13689.256097898413	9.123412533521
1	16987	13694.106253851082	1.102623073807
1	17000	13702.805780400023	0.899689656775
1	17020	13724.053487842468	0.948027294502
1	17030	13736.067793220692	4.097575300745
1	17037	13738.70643292726	0.968920172565
1	17045	13740.554584068572	1.798720449974
1	17057	13747.686484469733	0.878060185164
1	17067	13753.024524892575	1.106778524164
1	17080	13756.737067340509	1.056931863818
1	17092	13761.623600197634	2.165931702014
1	17095	13762.552573963305	1.765787090763
1	17139	13785.1392620679	2.483459564915
1	17144	13786.207044196875	1.672379253718
1	17149	13787.377052835097	15.172573593912
1	17152	13788.429228779954	7.287812738865
1	17155	13789.454308842869	3.12363016229
1	17160	13792.788620565479	0.965615458321
1	17170	13812.944251768776	4.759124341297
1	17189	13839.005945945811	1.72241731297
1	17192	13840.066383115389	2.552470590933
1	17205	13850.740134751454	2.080437058474
1	17210	13854.137703352032	0.984217580501
1	17215	13857.691234000215	1.05399066722
1	17222	13862.82415624711	0.959069958609
1	17230	13876.397847251334	0.944480232801
1	17240	13890.155648489948	0.989415408205
1	17245	13892.988219971281	1.167030574474
1	17252	13895.567833096795	1.162210577913
1	17260	13897.614580638129	1.693402691601
1	17285	13917.661413059802	2.039506060493
1	17297	13927.467229497168	1.52478409687
1	17320	13943.178987042829	1.05460899137
1	17330	13965.678520968248	0.988343818486
1	17335	13975.529228342541	0.984677850734
1	17360	13989.458715719292	2.98987808428
1	17365	13992.715183543829	1.000490061939
1	17377	13999.268953015861	1.275810362147
1	17380	14000.328507586309	2.97799964957
1	17392	14004.020770833251	1.293365671427
1	17410	14021.12893393964	1.159577358421
1	17427	14026.87990808925	3.270534956993
1	17442	14029.727389831938	1.922006977262
1	17455	14034.122804470044	6.7796893218
1	17470	14041.343474082356	1.016489297121
1	17480	14051.769740176897	5.504584896055
1	17492	14068.379089521766	1.040700367838
1	17495	14069.400698367749	3.713719133749
1	17500	14073.356163719531	0.932207721099
1	17510	14076.693853213943	1.148650854882
1	17515	14078.86319873792	0.838913432043
1	17530	14087.428531037277	1.153875525203
1	17535	14089.140980205676	1.118962143455
1	17540	14096.235649987246	0.89690370094
1	17550	14107.519247239052	1.074359866139
1	17555	14112.82225247802	1.196712038666
1	17565	14115.616409622436	2.180972922402
1	17589	14132.666753564262	1.551267751092
1	17592	14133.791924506937	2.385928199338
1	17600	14136.021853064698	1.020761243906
1	17627	14144.125243579665	0.82053313544
1	17637	14149.303177059659	1.069642584585
1	17657	14153.042793984698	3.937515661999
1	17675	14159.366307058844	2.333448857258
1	17680	14167.12688407643	1.100988004822
1	17695	14182.947534882466	0.860110781807
1	17700	14184.290319499605	3.336549598177
1	17710	14188.902816052675	1.86413947842
1	17725	14195.590782783838	0.988375013694
1	17732	14197.766153212403	1.03744238941
1	17737	14198.96408314458	2.179411736551
1	17740	14199.830233110347	1.9499126306
1	17745	14202.28839045048	1.052615102008
1	17755	14222.146781626857	1.081764790602
1	17760	14227.223307329015	0.979634515289
1	17777	14243.423348739268	1.100557877775
1	17780	14244.295126649355	3.88883210374
1	17787	14252.56038386561	1.131382788904
1	17790	14253.397932003532	1.86746587669
1	17802	14273.352582474362	0.963418630697
1	17810	14278.278135605085	0.816243294626
1	17825	14282.634170085949	3.858154898547
1	17830	14288.577797077315	1.024428506102
1	17840	14298.912578821562	1.116644216795
1	17847	14307.713817365844	0.920497967489
1	17850	14308.786031241067	1.113073616877
1	17855	14328.817511517183	1.175776899327
1	17870	14334.950114432646	0.825531524792
1	17880	14337.628077732006	4.747355860287
1	17890	14344.963671536608	0.983415356559
1	17900	14355.889577801617	0.854364214092
1	17915	14373.251183377282	5.959492478034
1	17930	14399.182832132216	0.857657990139
1	17935	14401.043038079023	0.832190843578
1	17950	14410.370856225346	0.974830300361
1	17955	14428.126068860412	0.936531843711
1	17960	14435.812080918753	1.122046945617
1	17970	14443.65201893688	0.847166769393
1	17982	14447.16071779021	2.071811420513
1	17987	14448.22642614088	7.139503043231
1	18005	14452.08971361259	0.86253783016
1	18010	14454.154974164731	0.968886944186
1	18015	14456.90745434699	1.029411658179
1	18025	14461.752899894786	2.710159984701
1	18030	14472.381121428759	1.190270270966
1	18035	14477.965701160522	1.07649418721
1	18045	14491.808945333331	1.17161093941
1	18050	14500.383957673808	0.919678061642
1	18072	14518.148764951409	1.135921865864
1	18075	14519.036763642424	2.822458917461
1	18094	14524.03051068531	1.63394131978
1	18099	14524.939835027509	1.894906908108
1	18102	14526.122674489484	1.287631832005
1	18125	14531.391755743289	3.768540621934
1	18132	14532.64690188578	1.063039629534
1	18145	14536.352420932902	4.583725355634
1	18150	14548.273288995078	1.184448758513
1	18155	14560.742993803118	0.874191873148
1	18180	14588.714518096824	1.133530679625
1	18195	14599.524955006959	1.072639827803
1	18200	14605.299595383017	1.095985765941
1	18210	14610.481885684605	0.912776688579
1	18215	14620.27868548144	0.892265848722
1	18230	14635.123845022335	2.64804513324
1	18257	14647.431558576697	1.088586861175
1	18265	14649.764836772945	2.937277306574
1	18270	14651.036167102268	0.940007254668
1	18280	14655.191181762252	0.937671054527
1	18295	14664.778039785215	1.071778453421
1	18305	14679.887873196921	0.887582894787
1	18315	14703.914358218381	1.113502887357
1	18320	14714.617404341549	0.963295060024
1	18347	14733.319296999174	1.130729819648
1	18357	14743.4811742642	1.097959749587
1	18362	14744.648921425644	1.768247137699
1	18372	14759.955761670337	1.100168816838
1	18382	14763.677894494831	1.149749964755
1	18385	14764.78891708577	1.571067829334
1	18392	14771.499685433149	0.853536849376
1	18397	14772.422032427802	0.952711004616
1	18400	14773.489732800718	1.76341912528
1	18405	14776.985929459433	0.963602330815
1	18417	14787.504551595731	2.589911319448
1	18427	14789.640915163981	0.958219271987
1	18439	14796.510941052287	0.978700388595
1	18447	14798.180636998396	1.388649391552
1	18465	14823.688381693658	0.897249864414
1	18470	14854.519490344512	0.849360402673
1	18475	14859.886055077936	0.958437572513
1	18485	14862.097371645513	1.91274435615
1	18490	14866.412806165579	1.065472250432
1	18500	14874.258932185623	0.860430249572
1	18510	14879.758435377096	3.515235990148
1	18517	14894.679620505253	1.177283640206
1	18520	14895.809397244023	2.096344501264
1	18525	14898.60498283944	0.891898803972
1	18530	14903.719708982705	0.823596168216
1	18540	14920.468691510668	0.961287348904
1	18555	14940.579885002362	0.952896658145
1	18565	14944.144956054984	2.002746723258
1	18570	14955.284163882388	1.054371532891
1	18585	15012.157277411637	1.15368999429
1	18610	15053.012435601853	1.095590103697
1	18620	15056.821471721838	3.660144432581
1	18625	15064.2208915582	0.808781300671
1	18637	15068.367021653629	2.716502449488
1	18640	15069.488844380728	1.290972168627
1	18650	15072.577882673957	2.588034310774
1	18664	15088.931201791031	1.443162932504
1	18687	15094.594694988107	7.812011486981
1	18700	15120.671259315344	0.86125083128
1	18722	15131.711475005008	1.061602834934
1	18725	15132.881354381151	2.991867821291
1	18742	15141.615087068994	7.253309178864
1	18767	15151.093918287191	1.37714841183
1	18790	15164.535553010653	0.844924081396
1	18802	15169.498886173816	1.135451407079
1	18810	15172.681605161856	1.195232517831
1	18815	15180.12801908356	1.071704509947
1	18820	15184.484806934464	1.070519698597
1	18852	15196.304190530803	1.965687141304
1	18855	15197.268962918583	4.907240900713
1	18877	15206.124847706321	5.185773682483
1	18885	15208.052030860267	1.245460422809
1	18890	15210.13990226406	1.150238030311
1	18895	15211.33037112514	1.01882021483
1	18900	15215.818206207027	1.115974799916
1	18927	15234.929436236347	1.434068851261
1	18947	15242.524356295402	3.525020567629
1	18957	15244.916469573047	0.889800418261
1	18960	15245.730851873107	5.511607153483
1	18965	15247.943112082756	1.191820936464
1	18980	15272.274045434689	1.002264572214
1	18990	15275.554368655289	2.274257513924
1	19005	15295.637892627968	0.8015249677
1	19010	15300.158131895549	0.930683459714
1	19020	15320.945760180986	0.934360435791
1	19025	15326.584680066363	1.016917609982
1	19042	15343.895115440127	2.86322813537
1	19055	15350.396109583709	1.114067948796
1	19060	15351.580033848691	1.118192198221
1	19072	15354.079077721001	1.358516501639
1	19085	15373.259807101381	2.501859637856
1	19102	15389.037070608666	5.530422608709
1	19105	15389.964163045274	1.189949602489
1	19117	15392.052966677421	1.031630123069
1	19120	15393.16278198876	1.933497063343
1	19125	15394.296665638559	1.052332206909
1	19137	15401.68704399382	3.058770311159
1	19155	15415.988333687926	0.912260816619
1	19172	15430.637251905273	1.216857255025
1	19185	15442.722140342161	1.189264438301
1	19197	15459.734586920116	1.087128346134
1	19202	15460.733261516403	1.062010509304
1	19210	15462.899257518831	1.197213944793
1	19220	15466.409144447995	1.032782371249
1	19230	15469.668428597082	2.166884036289
1	19235	15472.623814742578	0.871685499605
1	19242	15476.670137606994	1.166629745718
1	19247	15477.69070331749	1.348141336926
1	19270	15493.185055442619	2.807471409987
1	19280	15500.247733100609	0.892915384471
1	19292	15505.304416099158	1.193799506821
1	19300	15509.295237865119	0.822411120497
1	19305	15514.68047639972	1.093667817861
1	19320	15522.847007407221	2.909941012599
1	19340	15537.302298389137	1.064033361152
1	19345	15542.612002744117	1.007118369825
1	19365	15580.953338911061	1.194590195175
1	19370	15582.227107402042	1.005073971394
1	19380	15589.64243986906	0.814866732713
1	19387	15593.257695806105	1.004605550691
1	19395	15602.943299376032	0.978799525648
1	19405	15621.719184598802	1.142915711831
1	19410	15623.768880325418	1.020066929981
1	19415	15625.806726519091	1.162278572842
1	19425	15628.876150779341	2.56179718194
1	19440	15648.665578228877	0.887433089502
1	19445	15650.063477709387	1.127431181539
1	19450	15651.10048404489	0.806116010621
1	19455	15652.612364342798	0.907193636708
1	19465	15659.358901252677	1.761800992087
1	19475	15664.765637025463	0.922868652269
1	19500	15689.218522125877	3.778661874583
1	19515	15700.309729791044	0.861558873858
1	19520	15703.033269800089	0.881484278478
1	19525	15706.816321387395	1.00461127935
1	19530	15708.175753080401	0.861895637866
1	19567	15726.933089178063	1.803787704303
1	19570	15727.743627344172	4.562294781898
1	19595	15751.533679688074	1.109926613393
1	19622	15790.610523926702	1.57565345518
1	19632	15792.714009799205	1.731282991982
1	19637	15793.700753912099	1.121228797734
1	19640	15794.682994970262	7.505243203381
1	19645	15796.943993366879	1.066315884888
1	19655	15829.813103803353	1.021443056549
1	19672	15836.206578841969	1.883563389407
1	19682	15854.695491600446	1.019244278315
1	19690	15859.889453744306	1.122435387876
1	19695	15879.076313873934	1.154858849663
1	19700	15884.993924984294	1.089177830424
1	19710	15888.557633958999	0.817593265884
1	19737	15913.98538705714	7.49919293573
1	19740	15914.887914185579	1.447197298088
1	19745	15922.292783880678	1.122296972852
1	19750	15928.336571978683	0.941591270361
1	19760	15932.975891404303	1.897174665463
1	19770	15936.038849451383	1.647356632881
1	19775	15937.609013179983	3.301250209683
1	19787	15949.660875959014	0.973414498381
1	19797	15952.081517516231	1.014394512679
1	19807	15957.629663603401	0.974988978449
1	19825	15970.048377738986	1.114330713637
1	19835	15980.554899265533	1.197001039423
1	19865	16020.968107417572	0.815159225371
1	19877	16033.886669966348	1.193006316945
1	19880	16034.693122780186	0.829687426864
1	19885	16037.845847355925	0.821187129524
1	19890	16040.287317945131	0.948706300464
1	19895	16048.282921686061	1.035911526345
1	19907	16054.798923548592	1.088108737208
1	19915	16056.777835036816	1.279325263023
1	19940	16067.70225337618	5.112585674779
1	19950	16083.604532638302	1.023325910047
1	19955	16085.320879790778	1.062466696184
1	19965	16097.417097295404	0.91181717189
1	19970	16104.227713833873	0.851530543808
1	19994	16108.969291824978	1.482879347211
1	19997	16109.922062334921	3.939662803616
1	20000	16110.916813443173	3.239354944158
1	20025	16129.11732185951	0.89176350506
1	20030	16131.380561776128	1.198225854523
1	20040	16150.327106698588	1.985784114067
1	20070	16172.965401488959	2.215369058793
1	20085	16183.924362104093	1.181510723908
1	20122	16221.85167311424	1.191468871292
1	20130	16224.272912460389	3.143359463579
1	20140	16230.204146105609	0.885096652154
1	20155	16239.081315656186	0.882156051975
1	20160	16244.089796650738	1.056750106905
1	20165	16255.490432476146	1.056204470061
1	20180	16263.539696358809	1.876056154486
1	20185	16272.922615812121	1.158405043837
1	20190	16281.477277651826	1.161589750368
1	20195	16282.778617121849	0.996527318284
1	20210	16293.50533911235	2.663987748779
1	20215	16308.540413809121	0.908935563359
1	20220	16318.049091647808	0.830243885051
1	20230	16324.027656910031	1.084109391365
1	20235	16337.953966476514	1.116502806731
1	20250	16348.655241638255	0.819250148442
1	20255	16357.423439485697	0.984414074291
1	20267	16363.958127280544	1.28250885704
1	20290	16380.464607030082	1.078170301486
1	20302	16383.062084984049	2.011070516179
1	20305	16384.172962843641	3.189808593038
1	20310	16389.287075429227	0.839212332293
1	20315	16392.513661481338	0.966110132635
1	20322	16396.267287070635	1.014631523751
1	20325	16397.328272701758	1.780436914478
1	20340	16407.440908415983	1.059194156807
1	20345	16408.836855607825	3.831830777522
1	20360	16424.531676467866	0.948714474123
1	20375	16435.674251842661	3.253639269769
1	20385	16443.214576050477	1.379363265988
1	20395	16446.711905709007	2.604454768052
1	20405	16452.033654290996	0.883690947201
1	20415	16457.409080681341	1.039353378955
1	20427	16463.586577215854	1.4864131592
1	20442	16480.140267304336	1.566734135692
1	20450	16482.387011391581	2.132376789899
1	20460	16489.436903170849	3.543966991846
1	20470	16502.847951220057	0.894624456111
1	20480	16515.782433920097	2.427705882091
1	20492	16520.408281572908	0.905007835291
1	20497	16521.565331197809	1.919265369236
1	20510	16549.405026327016	1.183509699162
1	20515	16564.960708446189	1.118397243973
1	20520	16566.229007131037	1.09297983693
1	20530	16574.634845401035	0.881585860811
1	20545	16581.826133337635	3.196401287708
1	20555	16584.178227288176	2.284756408993
1	20565	16586.503019071608	1.656102639891
1	20570	16587.425661444196	0.920958456583
1	20580	16596.888874708121	1.051377666183
1	20585	16598.792887129757	1.15962803578
1	20614	16625.045465875539	2.917398763968
1	20627	16628.516185238147	1.932207112681
1	20660	16646.078206005496	1.103294119891
1	20670	16652.765711221828	2.083982286984
1	20685	16665.473409321973	1.24358216391
1	20705	16672.039424710153	1.712611030302
1	20730	16698.926968592949	1.180612672865
1	20745	16713.429239977174	1.019189472683
1	20750	16714.716113980459	0.971893245727
1	20762	16717.10654452179	1.626117905381
1	20765	16717.986562470313	2.358032037957
1	20780	16721.854762815486	3.308914277237
1	20802	16727.815069083358	3.234389995095
1	20820	16732.023026608055	5.338633703778
1	20825	16737.028165337216	1.173899068218
1	20839	16751.518875427295	2.197914690937
1	20844	16752.709046703235	3.481400998403
1	20847	16753.83833573771	3.151553834718
1	20857	16755.71312114171	1.367846867769
1	20885	16775.171000609926	0.899565746635
1	20895	16779.750273451917	1.761003178236
1	20900	16783.619727496948	0.820212290343
1	20915	16812.346275092083	1.150793533493
1	20920	16835.237292536429	0.827325100265
1	20930	16840.4098683627	2.754359851075
1	20947	16862.962781777756	0.83714827178
1	20975	16871.885997366901	1.72893731593
1	21010	16905.264619323664	1.174481643457
1	21015	16911.455102830586	1.114007548895
1	21025	16918.110987924078	0.957342364267
1	21045	16931.192823326443	3.461996235698
1	21055	16936.695923848396	0.975087634381
1	21065	16948.169619929434	1.819641567161
1	21090	16959.847100447269	0.974467576947
1	21095	16961.767846070671	1.127160965931
1	21100	16965.552318003071	1.023166850954
1	21130	16995.745216620612	0.996143077035
1	21150	17017.67832761499	1.106655923929
1	21155	17022.186123833859	1.099837366585
1	21167	17035.411885418647	1.091202716064
1	21175	17037.408023442884	0.937487477409
1	21195	17064.408980007052	0.830843416695
1	21200	17070.667910747333	1.069890232943
1	21205	17078.399002815119	0.886928595416
1	21215	17089.655268575379	1.054836445954
1	21230	17099.949019724916	1.127525106817
1	21245	17139.769200381484	1.03894006582
1	21260	17149.729407992152	0.826699171495
1	21267	17152.430247481084	0.862309504021
1	21270	17153.25966098412	0.900409535155
1	21275	17155.964261371605	1.08679601131
1	21282	17170.077753811245	1.136904623732
1	21292	17172.031336636198	1.549488815046
1	21302	17173.667563409833	1.149915346409
1	21305	17174.716185417315	1.45519613929
1	21315	17179.359755286648	3.79246078577
1	21320	17183.801991501434	1.159801699314
1	21325	17188.226728025386	1.049115959741
1	21340	17217.267212671913	1.127285774425
1	21350	17228.578231062237	1.058338691574
1	21360	17238.029603560929	3.83978022308
1	21385	17248.09644489294	6.521684617113
1	21395	17253.852860375296	4.451277322809
1	21400	17258.265819144517	1.005006223079
1	21410	17265.123558827247	1.094883463811
1	21425	17272.835219597544	3.071528355492
1	21437	17275.151082436229	1.648253356476
1	21445	17278.0310511841	0.943993348628
[...]
7	21845	17610.454331498218	1
7	21846	17610.678427533719	0
7	21865	17624.711604629605	1
7	21866	17625.438062566186	0
7	21885	17638.106118340875	1
7	21891	17640.02396636757	0
7	21940	17740.113665551578	1
7	21941	17740.686805165466	0
7	21955	17745.419405144508	1
7	21956	17745.61234338569	0
7	22020	17780.234759437328	1
7	22021	17780.23598865626	0
7	22035	17786.775324766661	1
7	22036	17787.265238143959	0
7	22040	17787.3601681799	1
7	22052	17789.66212721189	2
7	22058	17791.300769169339	1
7	22061	17792.216405973573	0
7	22105	17824.020058166197	1
7	22106	17824.171476962909	0
7	22170	17862.867400692178	1
7	22171	17863.514879905085	0
7	22275	17955.488804735092	1
7	22276	17956.21834526022	0
7	22312	17988.262974481056	1
7	22316	17989.162066531333	0
7	22335	17996.071707902796	1
7	22337	17996.259802093271	2
7	22338	17996.584057434587	1
7	22341	17997.755663514821	0
7	22470	18087.295641824455	1
7	22471	18087.847674847059	0
7	22490	18101.372223514552	1
7	22491	18102.242150632847	0
7	22505	18123.124297007265	1
7	22506	18123.636319102702	0
7	22580	18173.959005694731	1
7	22581	18174.908094880957	0
7	22615	18217.877251257565	1
7	22616	18218.271479539841	0
7	22650	18254.240745924044	1
7	22651	18255.309820209576	0
7	22660	18256.970552478415	1
7	22661	18257.114080033863	0
7	22675	18261.333174216742	1
7	22677	18261.763113460376	2
7	22678	18261.869077202289	1
7	22681	18262.791291439424	0
7	22700	18266.662918675981	1
7	22706	18268.775379896435	0
7	22800	18395.759452215329	1
7	22801	18396.741157298051	0
7	22810	18408.303671825161	1
7	22811	18408.687555960397	0
7	22865	18450.123174187437	1
7	22866	18450.765626722788	0
7	22980	18562.380395373787	1
7	22981	18563.442281186396	0
7	22995	18567.490447010947	1
7	22996	18567.650398823687	0
7	23005	18575.549114538014	1
7	23006	18576.346576296251	0
7	23075	18657.381435006488	1
7	23076	18658.143307172205	0
7	23125	18710.023410147452	1
7	23126	18711.104530940639	0
7	23130	18711.544842386512	1
7	23131	18712.236348759538	0
7	23152	18718.256950262037	1
7	23157	18718.452496184806	2
7	23158	18719.366944680603	1
7	23176	18723.429900275039	0
7	23245	18760.28256666324	1
7	23246	18760.727397655064	0
7	23255	18764.721625245724	1
7	23256	18765.324956570428	0
7	23335	18807.452532016741	1
7	23336	18808.451523354218	0
7	23425	18884.735594525455	1
7	23431	18886.596945329759	0
7	23440	18894.508345872824	1
7	23441	18895.377111434848	0
7	23520	18951.770443384018	1
7	23521	18952.57483472118	0
7	23525	18953.395858564239	1
7	23526	18953.621583068574	0
7	23600	19025.26172907665	1
7	23601	19025.745391201851	0
7	23610	19028.883905213208	1
7	23612	19028.997569026952	2
7	23613	19029.799243243584	1
7	23616	19030.846652186835	0
7	23665	19077.062621986565	1
7	23666	19077.753596870293	0
7	23675	19078.87950195266	1
7	23676	19079.705165462365	0
7	23900	19269.311859077055	1
7	23901	19269.804290608523	0
7	23930	19300.112743859157	1
7	23931	19300.84375512569	0
7	23985	19334.810054587005	1
7	23986	19335.977868252586	0
7	24005	19344.939560368453	1
7	24006	19345.121840741234	0
7	24020	19356.332498612526	1
7	24021	19357.28500212731	0
7	24030	19360.462248432924	1
7	24031	19361.278966261222	0
7	24080	19411.945023936195	1
7	24081	19412.336261893722	0
7	24125	19481.90684907411	1
7	24126	19482.517471522186	0
7	24424	19772.561529691571	1
7	24432	19774.627191283264	2
7	24433	19775.600595586711	1
7	24436	19776.647457352338	0
7	24450	19778.863311137358	1
7	24451	19779.489784854027	0
7	24460	19787.798278307441	1
7	24461	19788.12607144781	0
7	24480	19797.932210575835	1
7	24481	19798.872400192756	0
7	24555	19896.55792140233	1
7	24556	19897.320340927574	0
7	24835	20144.460292741184	1
7	24836	20145.055277401597	0
7	24860	20153.523319095418	1
7	24861	20154.053891834932	0
7	24925	20224.418017241504	1
7	24926	20224.991195769068	0
7	25110	20367.81994252574	1
7	25111	20368.513027589688	0
7	25140	20378.349009076685	1
7	25141	20379.22616460952	0
7	25205	20436.390039257945	1
7	25206	20436.917318487186	0
7	25230	20464.083617051796	1
7	25237	20465.980695546946	2
7	25238	20466.102353695306	1
7	25241	20467.067494572691	0
7	25250	20471.099336012066	1
7	25251	20471.919019998219	0
7	25337	20554.542372352733	1
7	25342	20555.446751085321	2
7	25348	20557.094704548779	1
7	25351	20558.215306892104	0
7	25375	20569.967041152489	1
7	25376	20570.618013221893	0
7	25435	20631.526615014842	1
7	25436	20632.033672442587	0
7	25455	20641.232863620784	1
7	25456	20641.735374244777	0
7	25485	20670.458899353114	1
7	25486	20671.400849970645	0
7	25535	20739.795756684752	1
7	25536	20739.833860714303	0
7	25750	20930.726204045382	1
7	25751	20931.213302414798	0
7	25760	20932.256330705132	1
7	25771	20933.903154444557	2
7	25783	20937.297505003839	1
7	25786	20938.160325599342	0
7	25795	20946.293473252988	1
7	25796	20947.062840672112	0
7	25805	20948.783066317454	1
7	25806	20949.625760776192	0
7	25890	21049.155370102702	1
7	25896	21050.700687322484	0
7	25940	21081.491826747873	1
7	25946	21083.517287099824	0
7	25955	21084.657723647375	1
7	25956	21085.405690862607	0
7	26010	21129.394437493717	1
7	26011	21129.818698576913	0
7	26105	21229.110860000764	1
7	26106	21229.746155718526	0
7	26115	21231.655350072942	1
7	26116	21232.364586917124	0
7	26125	21237.911846331808	1
7	26126	21238.411342610607	0
7	26145	21247.586380082535	1
7	26154	21248.961142523399	2
7	26158	21249.813622328221	1
7	26161	21250.910278659362	0
7	26185	21257.634368421931	1
7	26186	21258.1169596754	0
7	26275	21313.252002891368	1
7	26276	21313.488708492298	0
7	26315	21344.735277268774	1
7	26316	21345.656454134936	0
7	26345	21377.271949247899	1
7	26346	21378.150822378499	0
7	26425	21438.766657482207	1
7	26426	21439.500675696367	0
7	26475	21516.030329561814	1
7	26476	21516.060912778076	0
7	26500	21528.060417639172	1
7	26501	21528.090905975729	0
7	26560	21605.394939760354	1
7	26561	21605.467847024816	0
7	26695	21712.465862599794	1
7	26696	21712.622062359667	0
7	26715	21715.946728729037	1
7	26717	21716.196570536757	2
7	26718	21716.918404123138	1
7	26721	21717.76293137823	0
7	26770	21765.841272066298	1
7	26771	21766.699629738277	0
7	26995	21959.654922214741	1
7	26996	21960.180816348197	0
7	27005	21962.495531534915	1
7	27006	21962.880551220202	0
7	27125	22077.025358397227	1
7	27126	22077.300954069456	0
7	27137	22078.907324893454	1
7	27141	22080.536494610499	0
7	27157	22089.051173641425	1
7	27161	22090.425620089271	0
7	27195	22110.779157526797	1
7	27196	22111.511069019076	0
7	27220	22121.91651318986	1
7	27221	22122.058218495366	0
7	27390	22268.878790665003	1
7	27391	22269.248519508374	0
7	27400	22272.687681738216	1
7	27401	22273.309335244839	0
7	27505	22333.902558893587	1
7	27511	22335.631806905575	0
7	27530	22343.99480464378	1
7	27531	22344.824755614985	0
7	27550	22358.651416217147	1
7	27551	22359.09959015906	0
7	27645	22423.256302081711	1
7	27646	22423.753485849032	0
7	27687	22460.293380536585	1
7	27691	22461.929789595456	0
7	27702	22463.903607220517	1
7	27712	22464.957187599013	2
7	27713	22465.777017126056	1
7	27716	22466.796554716966	0
7	27875	22637.81602392377	1
7	27876	22638.484761545031	0
7	27880	22639.098717204654	1
7	27887	22640.107685589725	2
7	27888	22640.636925978369	1
7	27891	22641.812743585526	0
7	27900	22643.93887729816	1
7	27902	22644.398457645878	2
7	27903	22644.715479518333	1
7	27906	22645.685642546741	0
7	27940	22676.877369763697	1
7	27942	22677.062809770978	2
7	27943	22677.381754528631	1
7	27946	22678.494860329006	0
7	27950	22678.777654012206	1
7	27951	22679.549839698143	0
7	27972	22683.870876485164	1
7	27976	22685.868866652194	0
7	28195	22874.885664777496	1
7	28196	22875.19842051591	0
7	28235	22904.739031518848	1
7	28236	22905.045619483428	0
7	28375	23000.923140004542	1
7	28376	23001.143139848864	0
7	28380	23001.976630334907	1
7	28381	23002.071517190343	0
7	28390	23005.447706837793	1
7	28391	23006.587619104399	0
7	28555	23122.514056626867	1
7	28556	23122.648901509943	0
7	28560	23122.995699669328	1
7	28561	23123.647987105588	0
7	28565	23124.207020084465	1
7	28566	23124.583672753612	0
7	28625	23182.647470108903	1
7	28626	23183.161714461914	0
7	28680	23237.047504193021	1
7	28681	23237.950138774963	0
7	28710	23244.975370046177	1
7	28711	23245.843347646894	0
7	28735	23267.503016189474	1
7	28736	23268.299493304062	0
7	28770	23311.885206912458	1
7	28771	23312.054159848891	0
7	28845	23377.399218572334	1
7	28846	23377.588190921826	0
7	28880	23408.542344344267	1
7	28881	23409.375029416842	0
7	28890	23412.876429789032	1
7	28891	23413.023345235722	0
7	28935	23469.625585287217	1
7	28936	23470.053580549096	0
7	29015	23556.767302012496	1
7	29016	23557.454739778684	0
7	29035	23573.086798799746	1
7	29037	23573.848895730991	2
7	29038	23574.039762309213	1
7	29041	23575.176193461959	0
7	29105	23674.152122597807	1
7	29106	23674.71289677376	0
7	29165	23722.058129271117	1
7	29167	23722.613084213001	2
7	29168	23722.807486254773	1
7	29176	23724.588830908997	0
7	29315	23870.220436697228	1
7	29316	23870.862627313211	0
7	29370	23927.026232199561	1
7	29381	23929.531263707566	0
7	29400	23943.756717654241	1
7	29401	23944.529860928148	0
7	29425	23953.054839144562	1
7	29426	23953.323322297231	0
7	29450	23962.930603412326	1
7	29451	23963.475235850905	0
7	29520	24003.630978630638	1
7	29521	24003.696322943081	0
7	29637	24140.97830471003	1
7	29641	24142.160675609285	0
7	29770	24248.762175246588	1
7	29771	24249.574886948623	0
7	29890	24307.137042754503	1
7	29892	24307.491170708302	2
7	29893	24307.662988596531	1
7	29896	24308.530894054966	0
7	29975	24379.312396336709	1
7	29976	24379.799830751916	0
7	30015	24393.696880681432	1
7	30016	24394.65945360707	0
7	30020	24394.96561085606	1
7	30021	24395.757232359144	0
7	30080	24465.919934921573	1
7	30081	24466.259526426375	0
7	30100	24473.444519584303	1
7	30101	24473.763211149601	0
7	30120	24477.573297188889	1
7	30121	24478.411885450069	0
7	30250	24590.194639304781	1
7	30251	24590.781682257218	0
7	30290	24633.089609265408	1
7	30291	24633.86860040759	0
7	30305	24639.424818314997	1
7	30306	24639.917738814504	0
7	30325	24651.16762505343	1
7	30326	24651.901352853354	0
7	30395	24707.177418404759	1
7	30407	24708.438380100789	2
7	30408	24709.22588285324	1
7	30411	24710.22827122635	0
7	30502	24777.048594648675	1
7	30506	24778.126508471702	0
7	30605	24870.734700712739	1
7	30606	24871.620553788035	0
7	30645	24918.031664268704	1
7	30646	24918.637782335049	0
7	30705	24983.356437675198	1
7	30706	24983.538236759101	0
7	30755	25041.454561238588	1
7	30756	25041.46752659247	0
7	30800	25082.154655420227	1
7	30801	25082.692143924914	0
7	30830	25090.159260482376	1
7	30831	25090.824616729595	0
7	30955	25195.818581305387	1
7	30956	25195.858471191877	0
7	30980	25214.945506287514	1
7	30986	25217.066077012605	0
7	31040	25282.009334638052	1
7	31041	25282.177190793292	0
7	31070	25305.277155441722	1
7	31071	25305.709106536392	0
7	31200	25462.763599910612	1
7	31201	25463.104700676413	0
7	31315	25619.832742895882	1
7	31316	25619.929573164592	0
7	31365	25671.011137368153	1
7	31366	25671.257875146815	0
7	31385	25685.765427054831	1
7	31387	25685.937778881116	2
7	31388	25686.158245137282	1
7	31392	25686.648247096667	2
7	31393	25687.328368282359	1
7	31396	25688.179273195326	0
7	31405	25689.759478791936	1
7	31406	25690.298106798492	0
7	31450	25732.880013935638	1
7	31451	25732.96550104127	0
7	31595	25825.757904559617	1
7	31596	25826.435836590218	0
7	31980	26128.861698809146	1
7	31981	26129.75083856663	0
7	32010	26163.394634572978	1
7	32011	26163.4292141556	0
7	32015	26163.464772753377	1
7	32016	26164.474352828432	0
7	32050	26178.834511096888	1
7	32051	26179.282693966683	0
7	32135	26243.330427503256	1
7	32136	26244.128701165469	0
7	32140	26244.671753114256	1
7	32141	26245.081203676073	0
7	32150	26247.032841639858	1
7	32151	26247.238857361639	0
7	32165	26255.942467755241	1
7	32166	26256.208029091876	0
7	32205	26309.271284485397	1
7	32206	26309.451092141351	0
7	32215	26311.632946619325	1
7	32216	26312.002752812818	0
7	32267	26339.768125642154	1
7	32271	26340.837347720631	0
7	32315	26371.161523789505	1
7	32316	26371.590359724327	0
7	32405	26432.416798173357	1
7	32406	26433.257135515433	0
7	32465	26465.615431583829	1
7	32467	26465.811415881959	2
7	32468	26466.461121933411	1
7	32471	26467.372509567316	0
7	32487	26470.656927656856	1
7	32492	26471.825639452165	2
7	32493	26471.976374013413	1
7	32501	26473.941251764045	0
7	32510	26478.359712967902	1
7	32511	26479.13369783461	0
7	32585	26525.234366869881	1
7	32586	26525.776796004723	0
7	32595	26527.443285106893	1
7	32596	26527.970575920003	0
7	32682	26604.79549446145	1
7	32689	26605.755565021961	2
7	32693	26606.759007193659	1
7	32696	26607.827478298869	0
7	32730	26634.442491654426	1
7	32731	26635.582280990927	0
7	32760	26663.150929810669	1
7	32762	26663.216575852024	2
7	32763	26663.231079938856	1
7	32769	26664.120126526276	2
7	32774	26664.394494029969	3
7	32775	26665.256157958635	2
7	32778	26666.171240437438	1
7	32782	26666.885258889909	2
7	32783	26667.281855326087	1
7	32786	26668.248428987932	0
7	32877	26749.955320516979	1
7	32881	26751.750702604723	0
7	32912	26780.911207913531	1
7	32926	26784.111137142604	0
7	33095	26918.709846133916	1
7	33096	26919.005973088659	0
7	33320	27121.470123562419	1
7	33321	27121.698805072126	0
7	33345	27137.220450501772	1
7	33346	27137.41773710412	0
7	33350	27137.860654814086	1
7	33351	27138.465738624735	0
7	33355	27138.62088182331	1
7	33361	27140.450260010483	0
7	33370	27142.558824120298	1
7	33372	27143.22550167723	2
7	33373	27143.334152536715	1
7	33376	27144.303514219417	0
7	33385	27145.989166287408	1
7	33386	27146.278208492386	0
7	33450	27196.629920460662	1
7	33451	27197.21167706862	0
7	33557	27290.326732378627	1
7	33561	27291.365794766163	0
7	33690	27359.788842924311	1
7	33691	27359.874563021239	0
7	33695	27359.944698389633	1
7	33696	27360.708363743525	0
7	33765	27424.361732456335	1
7	33766	27425.425448904493	0
7	33770	27426.125607023504	1
7	33771	27426.622945758541	0
7	33785	27430.552973779693	1
7	33786	27430.816252409677	0
7	33857	27513.9288929301	1
7	33871	27516.872276452313	0
7	33915	27538.809942370705	1
7	33916	27539.349191107805	0
7	33992	27569.307051745771	1
7	33996	27570.915730086864	0
7	34030	27580.829555737164	1
7	34031	27581.048442488316	0
7	34050	27591.796179062634	1
7	34051	27592.3157844852	0
7	34150	27685.080283922444	1
7	34151	27686.069150686722	0
7	34200	27710.758724887014	1
7	34201	27711.673570149422	0
7	34290	27782.218902726097	1
7	34291	27782.907867998826	0
7	34295	27783.052943935568	1
7	34296	27783.765517735584	0
7	34330	27806.656175798282	1
7	34331	27807.022065660121	0
7	34395	27856.870784991853	1
7	34396	27856.994044113378	0
7	34410	27859.403688314784	1
7	34417	27860.605353768059	2
7	34418	27861.293570684394	1
7	34426	27863.317516776765	0
7	34432	27864.169133290332	1
7	34436	27865.630246855444	0
7	34475	27886.66058161866	1
7	34476	27887.391960784832	0
7	34512	27919.106433740086	1
7	34517	27920.016700535393	2
7	34518	27920.428601348432	1
7	34521	27921.527862262199	0
7	34555	27961.284272185149	1
7	34556	27962.000296005041	0
7	34615	28020.319058185595	1
7	34616	28020.595983570484	0
7	34630	28023.548035088387	1
7	34631	28024.52629735067	0
7	34765	28183.22252334783	1
7	34767	28184.081902598987	2
7	34768	28184.334142318176	1
7	34772	28184.562125722232	2
7	34773	28185.277186894411	1
7	34777	28185.308695106761	2
7	34778	28186.385555843072	1
7	34781	28187.289158992836	0
7	34785	28188.212137972517	1
7	34786	28188.324208803748	0
7	34805	28207.114538553055	1
7	34806	28207.482940393851	0
7	34830	28256.235440543985	1
7	34831	28256.550842291172	0
7	34840	28258.509380478757	1
7	34841	28259.330091061607	0
7	34845	28260.322260001516	1
7	34846	28260.406057644334	0
7	34875	28270.084171944257	1
7	34876	28271.078532425245	0
7	35047	28385.779661701556	1
7	35052	28386.216358027432	2
7	35053	28386.737514957908	1
7	35056	28387.730833614367	0
7	35060	28387.952272256759	1
7	35062	28388.230973823093	2
7	35063	28388.805734618037	1
7	35066	28389.606630899041	0
7	35127	28418.34666015572	1
7	35131	28419.641397002811	0
7	35212	28477.16136812195	1
7	35216	28478.478191932169	0
7	35220	28478.666425655992	1
7	35221	28479.317950355512	0
7	35295	28542.17585311939	1
7	35296	28542.26361249071	0
7	35305	28544.457651990122	1
7	35306	28544.770591790681	0
7	35385	28606.35786525193	1
7	35386	28606.994446918365	0
7	35415	28634.308265705036	1
7	35416	28634.425593059408	0
7	35520	28752.811304413466	1
7	35522	28753.249303426595	2
7	35523	28753.386859027397	1
7	35527	28753.7389598771	2
7	35528	28754.210526359834	1
7	35531	28755.055519243244	0
7	35610	28826.211978177496	1
7	35611	28826.299767754504	0
7	35675	28873.881952877023	1
7	35676	28874.952650047211	0
7	35710	28895.579247660893	1
7	35711	28896.445837518184	0
7	35745	28912.776189735998	1
7	35746	28913.422432702843	0
7	35750	28913.65824574547	1
7	35756	28915.435533886373	0
7	35785	28929.386502347082	1
7	35786	28930.032698477124	0
7	35815	28967.594739257471	1
7	35816	28968.664951206621	0
7	35820	28968.945083375522	1
7	35821	28969.741053347446	0
7	35835	28974.92270251215	1
7	35836	28975.369683569919	0
7	35845	28977.262340350744	1
7	35846	28977.361419067874	0
7	35865	28982.553825496843	1
7	35866	28983.497394577983	0
7	35870	28984.214173252763	1
7	35871	28984.558685454737	0
7	36010	29128.944199745201	1
7	36011	29129.20161287274	0
7	36027	29142.238432168539	1
7	36032	29142.947827383673	2
7	36063	29149.941670181136	1
7	36076	29153.021180352568	0
7	36132	29180.795653666776	1
7	36136	29181.916930992232	0
7	36195	29217.119882386325	1
7	36196	29217.187226418167	0
7	36220	29238.556595536542	1
7	36221	29238.809012183516	0
7	36285	29320.605327143406	1
7	36286	29321.208704096436	0
7	36290	29321.517421691446	1
7	36296	29323.380092520158	0
7	36435	29441.921086084082	1
7	36436	29442.300428416477	0
7	36440	29443.143940697749	1
7	36442	29443.223309534315	2
7	36443	29443.265458924313	1
7	36446	29444.234069955991	0
7	36475	29460.44456479664	1
7	36476	29461.233700625319	0
7	36495	29468.648945196215	1
7	36496	29469.332636634895	0
7	36530	29478.487540950324	1
7	36531	29479.323807348316	0
7	36630	29566.299651162924	1
7	36631	29566.813667805485	0
7	36635	29567.630857922015	1
7	36636	29567.680657836508	0
7	36700	29632.718461503472	1
7	36701	29632.855570516085	0
7	36705	29633.494604316178	1
7	36706	29633.693758200297	0
7	36760	29696.843186427032	1
7	36762	29697.231585678305	2
7	36763	29697.556470641742	1
7	36766	29698.506487024731	0
7	36785	29722.85312486834	1
7	36786	29722.981676444797	0
7	36790	29723.295715194307	1
7	36791	29723.819647035761	0
7	36795	29724.187280077776	1
7	36796	29725.002556825442	0
7	36800	29725.628795172413	1
7	36801	29726.084079038737	0
7	36830	29743.861590919913	1
7	36836	29746.042257983011	0
7	36890	29776.60690633149	1
7	36891	29777.246275473615	0
7	36900	29783.834866874895	1
7	36901	29784.32995873317	0
7	36910	29788.087214018796	1
7	36911	29788.891088238429	0
7	36930	29794.756580137855	1
7	36931	29795.569084857659	0
7	36955	29814.378673872171	1
7	36961	29815.739237182492	0
7	37030	29885.716041362893	1
7	37031	29886.314919462328	0
7	37065	29900.343669841602	1
7	37066	29900.978725852345	0
7	37085	29920.646375577319	1
7	37086	29921.459016090969	0
7	37090	29921.484795998516	1
7	37092	29921.53161230411	2
7	37093	29922.290512080176	1
7	37097	29922.733068212948	2
7	37098	29923.274021967652	1
7	37101	29924.245745046588	0
7	37125	29933.551086859493	1
7	37126	29933.633620171543	0
7	37155	29951.207769136188	1
7	37156	29951.871219907474	0
7	37215	29987.436658144947	1
7	37216	29988.395575089483	0
8	13195	10590.400043297418	1
8	13196	10590.559686584228	0
8	13200	10591.544508272332	1
8	13201	10591.564572620255	0
8	17132	13784.202033328732	1
8	17136	13784.741096890489	0
8	29894	24307.662988596531	1
8	29901	24309.66889317958	0
8	31880	26066.377505153269	1
8	31881	26066.847439937029	0
8	36041	29145.161016948986	1
8	36043	29145.516084845451	0
8	36051	29147.021569743007	1
8	36053	29147.763242232699	0
9	14905	12085.920934560756	1
9	14906	12086.465386167061	0
9	24440	19777.65466165418	1
9	24441	19777.826102665096	0
9	32790	26669.073699867853	1
9	32791	26669.996345513499	0
9	34620	28021.46230816715	1
9	34626	28023.338068633689	0
9	35705	28895.365110782989	1
9	35706	28895.480435639697	0

