version 2
run Second_exit_2-15-20191017-13:43:48-1922
attr configname Second_exit_2
attr datetime 20191017-13:43:48
attr experiment Second_exit_2
attr inifile omnetpp.ini
attr iterationvars ""
attr iterationvarsf ""
attr measurement ""
attr network ResponseTimeNetwork
attr processid 1922
attr repetition 15
attr replication #15
attr resultdir results
attr runnumber 15
attr seedset 15
param **.Source.interArrivalTime exponential(5s)
param **.jobPriority bernoulli(0.6)
param **.PS.serviceTimeU1 "uniform(0.8s, 1.2s)"
param **.PS.serviceTimeU2 "uniform(1.8s, 2.2s)"
param **.SS1.serviceTime exponential(1s)
param **.SS2.serviceTime exponential(1.2s)
param **.PS.exitProbability bernoulli(0.2)

vector 0 ResponseTimeNetwork.SS1 queueLength:vector ETV
attr interpolationmode sample-hold
attr title "queue length, vector"
vector 1 ResponseTimeNetwork.SS2 queueLength:vector ETV
attr interpolationmode sample-hold
attr title "queue length, vector"
vector 2 ResponseTimeNetwork.QueueU1 queueLength:vector ETV
attr interpolationmode sample-hold
attr title "queue length, vector"
vector 3 ResponseTimeNetwork.QueueU2 queueLength:vector ETV
attr interpolationmode sample-hold
attr title "queue length, vector"
vector 4 ResponseTimeNetwork.sink lifeTimeU1:vector ETV
attr interpolationmode none
attr title "lifetime of arrived jobs U1, vector"
attr unit s
vector 5 ResponseTimeNetwork.sink lifeTime:vector ETV
attr interpolationmode none
attr title "lifetime of arrived jobs, vector"
attr unit s
vector 6 ResponseTimeNetwork.sink lifeTimeU2:vector ETV
attr interpolationmode none
attr title "lifetime of arrived jobs U2, vector"
attr unit s
0	0	0	0
0	470	405.642456807089	1
0	471	406.057997570943	0
0	3010	2542.390514095047	1
0	3011	2543.481140384338	0
0	5882	4760.475785186727	1
0	5886	4762.244550032286	0
0	6240	5012.08396357031	1
0	6244	5012.678331651227	0
0	6282	5034.839349465216	1
0	6286	5035.59307683443	0
0	8815	7068.096015321734	1
0	8816	7068.611787313907	0
0	12037	9642.702938617206	1
0	12048	9645.531626332548	0
0	12100	9684.251337281654	1
0	12101	9684.809007449378	0
0	16310	12842.198897385664	1
0	16311	12843.734109220476	0
0	17690	13857.890292884898	1
0	17691	13858.245084064857	0
0	18040	14214.338096164572	1
0	18041	14214.392584700031	0
0	18087	14244.742801265559	1
0	18089	14244.971265458369	0
0	24079	19308.851756755632	1
0	24084	19310.026081202081	0
0	24297	19466.677114479109	1
0	24299	19467.405243124941	0
0	27477	22002.103572190876	1
0	27479	22003.016443175327	0
0	27700	22181.868177926674	1
0	27701	22183.483968127911	0
0	28030	22444.589752403821	1
0	28031	22445.445962594671	0
0	32195	25948.652786373739	1
0	32196	25949.349261795786	0
0	34137	27457.398724546892	1
0	34149	27460.927151433262	0
0	35000	28094.81472033721	1
0	35001	28095.197415046453	0
0	36830	29552.422524490405	1
0	36831	29552.687253436715	0
1	0	0	0
1	6305	5039.604502980275	1
1	6306	5039.761186496301	0
1	7470	6057.809576190409	1
1	7471	6058.423939886669	0
1	9525	7587.869377275225	1
1	9526	7589.563101153004	0
1	12917	10333.43805285334	1
1	12921	10334.973199041844	0
1	13545	10871.008002200691	1
1	13546	10871.376951116864	0
1	14415	11495.989034665547	1
1	14416	11496.193233088851	0
1	16095	12720.000753956464	1
1	16099	12720.9467151789	0
1	16500	12999.713095699906	1
1	16501	13001.050135086646	0
1	17590	13794.030909709487	1
1	17591	13794.455610498131	0
1	19400	15327.486082579649	1
1	19401	15328.007180344934	0
1	19405	15328.817388893912	1
1	19406	15330.618063691195	0
1	21505	16986.119909851793	1
1	21509	16987.059332818279	0
1	22910	18307.22762925129	1
1	22911	18308.030890897571	0
1	25215	20242.883152377853	1
1	25216	20243.002948431653	0
2	0	0	0
2	50	34.310958874866	1
2	51	34.742663296234	0
2	55	34.966095407032	1
2	56	35.68812896527	0
2	130	113.489478988309	1
2	133	114.389082162803	0
2	137	114.560669261297	1
2	138	115.320988537533	0
2	142	115.769222619343	1
2	143	116.394607021449	0
2	160	120.256448415865	1
2	161	120.959962458268	0
2	255	211.162695590753	1
2	256	211.580296587012	0
2	265	222.887009582157	1
2	266	222.945969773092	0
2	290	239.64321153314	1
2	291	239.964638740632	0
2	465	403.802434141325	1
2	466	404.457962106806	0
2	480	407.454176076169	1
2	481	407.978288121067	0
2	490	409.818031666007	1
2	491	409.894018743664	0
2	510	422.665615048398	1
2	511	422.710928673803	0
2	515	422.868859610465	1
2	516	423.700881465378	0
2	610	553.118083151906	1
2	611	553.3060663811	0
2	617	553.978345325583	1
2	618	554.116112741276	0
2	750	723.392111213814	1
2	751	723.628051266532	0
2	755	723.701481238002	1
2	756	724.455830712609	0
2	760	725.409906841013	1
2	761	725.502626649749	0
2	765	726.269286541472	1
2	768	726.687397911299	0
2	810	743.218307844644	1
2	811	743.946842339213	0
2	845	762.076751168484	1
2	846	763.043779544018	0
2	895	794.797956294245	1
2	896	795.533267561117	0
2	995	904.67866618237	1
2	996	904.969970098035	0
2	1050	995.703298941276	1
2	1051	995.775762415932	0
2	1055	996.208132322914	1
2	1056	996.80656036639	0
2	1210	1133.04523820144	1
2	1211	1133.476371654459	0
2	1275	1174.88083616805	1
2	1277	1175.163418733872	2
2	1278	1175.87705079649	1
2	1282	1176.52703900965	2
2	1283	1177.025033413958	1
2	1287	1177.302136179756	2
2	1288	1178.072237977911	1
2	1291	1179.187858364418	0
2	1315	1198.011251962138	1
2	1316	1198.754030503227	0
2	1365	1221.647644733529	1
2	1366	1221.999053139755	0
2	1380	1231.245706892702	1
2	1381	1231.98190349055	0
2	1390	1236.153320549162	1
2	1391	1236.392179156545	0
2	1405	1241.217604088187	1
2	1406	1241.811832838025	0
2	1415	1243.272331425949	1
2	1416	1243.580517018758	0
2	1425	1252.641747988206	1
2	1426	1253.485442357708	0
2	1485	1287.408899749722	1
2	1486	1287.74681109464	0
2	1495	1289.982180463511	1
2	1496	1290.693599550652	0
2	1510	1296.468059169056	1
2	1511	1296.620151492369	0
2	1550	1322.810269093952	1
2	1551	1323.368291500251	0
2	1565	1328.620690154894	1
2	1566	1328.688170031394	0
2	1580	1353.7198318694	1
2	1581	1353.949250572417	0
2	1625	1378.54393118596	1
2	1626	1379.018672234432	0
2	1630	1379.454026245587	1
2	1631	1380.085617528816	0
2	1670	1403.847933689787	1
2	1671	1404.022080757291	0
2	1680	1405.725891982648	1
2	1682	1405.881642908312	2
2	1683	1405.896734253261	1
2	1686	1406.935206211116	0
2	1710	1433.157828742003	1
2	1711	1433.579849148215	0
2	1720	1435.355970141915	1
2	1721	1436.324460908145	0
2	1750	1458.368728718126	1
2	1751	1458.535746382562	0
2	1780	1485.187855423857	1
2	1781	1485.639420683373	0
2	1790	1496.495465214269	1
2	1791	1496.763377696488	0
2	1795	1496.850838170087	1
2	1796	1497.683733747087	0
2	1805	1508.334275847286	1
2	1806	1509.002901332742	0
2	1810	1509.496732220393	1
2	1811	1509.883554160418	0
2	1820	1513.438873958488	1
2	1823	1513.675086851242	0
2	1910	1618.257877015102	1
2	1911	1619.038481350626	0
2	1975	1662.05809588564	1
2	1977	1662.097956626491	2
2	1978	1662.228895558638	1
2	1982	1662.951438708219	2
2	1983	1663.115534055547	1
2	1987	1663.360797794918	2
2	1988	1664.116263966204	1
2	1992	1664.465173784122	2
2	1993	1665.012468978797	1
2	1996	1666.162326951825	0
2	2005	1668.007743938025	1
2	2006	1668.442490694508	0
2	2035	1691.315359784785	1
2	2036	1692.111570924244	0
2	2070	1706.872477785342	1
2	2071	1707.359508647757	0
2	2080	1709.918508089587	1
2	2081	1710.193988586964	0
2	2130	1755.936439109871	1
2	2131	1755.95458073527	0
2	2160	1769.347733595599	1
2	2161	1769.720822915428	0
2	2225	1842.210842793311	1
2	2226	1842.364213238466	0
2	2245	1870.53061600257	1
2	2246	1871.298806571795	0
2	2310	1947.363205150252	1
2	2311	1947.63352988736	0
2	2320	1955.013623274032	1
2	2321	1955.735096994845	0
2	2335	1976.039131840327	1
2	2336	1976.342234214399	0
2	2360	1987.547530654156	1
2	2361	1987.642880687871	0
2	2367	1988.640068512786	1
2	2368	1988.752252383725	0
2	2372	1989.330826033505	1
2	2373	1989.679702567225	0
2	2377	1990.138851736212	1
2	2378	1990.818989500133	0
2	2385	1992.096046179688	1
2	2386	1993.011612239303	0
2	2390	1993.39387683951	1
2	2391	1994.184365642918	0
2	2400	1997.946018459058	1
2	2401	1998.765179696567	0
2	2480	2078.129183287466	1
2	2481	2078.612981804644	0
2	2485	2079.704147893428	1
2	2486	2079.739506981706	0
2	2520	2125.181024022088	1
2	2521	2125.676492919035	0
2	2535	2140.557817125839	1
2	2536	2141.471298427952	0
2	2540	2142.030232762535	1
2	2541	2142.486905491704	0
2	2550	2143.849040856743	1
2	2551	2144.745768520021	0
2	2560	2146.277744733343	1
2	2562	2146.545562487911	2
2	2563	2147.011109750596	1
2	2566	2148.048157553812	0
2	2650	2236.807424960683	1
2	2653	2237.727757259194	0
2	2657	2238.033230210259	1
2	2658	2238.626433267553	0
2	2685	2246.0161723054	1
2	2686	2246.900554254078	0
2	2690	2247.853862090858	1
2	2691	2248.010885141683	0
2	2705	2251.60647712868	1
2	2706	2252.132387122569	0
2	2730	2270.462684466202	1
2	2731	2271.006434872744	0
2	2765	2310.258009702803	1
2	2766	2310.995362241441	0
2	2800	2336.284302349371	1
2	2801	2336.378067995101	0
2	2905	2465.091939933415	1
2	2906	2465.243093952162	0
2	2950	2496.531741982879	1
2	2951	2497.057644299053	0
2	2975	2508.875964069672	1
2	2976	2509.645370350409	0
2	3000	2539.897673843295	1
2	3001	2540.448942068883	0
2	3005	2541.002599212255	1
2	3006	2541.582669175708	0
2	3015	2543.818057953367	1
2	3016	2544.288246456142	0
2	3065	2590.597637467736	1
2	3066	2590.783866974383	0
2	3075	2591.915382110959	1
2	3076	2592.665678114209	0
2	3165	2694.110161958633	1
2	3168	2694.48903463388	0
2	3215	2730.651122701665	1
2	3216	2731.257664375908	0
2	3220	2732.024645541113	1
2	3221	2732.313782874557	0
2	3235	2734.691837412489	1
2	3236	2735.446465766212	0
2	3270	2770.44476756546	1
2	3271	2770.604974155805	0
2	3340	2815.837272113399	1
2	3341	2816.588952630154	0
2	3360	2822.706525890091	1
2	3361	2822.913305835678	0
2	3440	2919.861656530753	1
2	3441	2920.560618175595	0
2	3555	3009.728924039485	1
2	3556	3009.994908466926	0
2	3565	3014.867888261572	1
2	3566	3015.08312807661	0
2	3620	3064.067225865458	1
2	3621	3064.950832792454	0
2	3640	3077.544867004055	1
2	3641	3078.217358847116	0
2	3660	3084.499382240348	1
2	3661	3085.43679450146	0
2	3755	3200.421270334533	1
2	3756	3200.78681750053	0
2	3870	3282.939565981494	1
2	3871	3283.0041145925	0
2	3920	3334.35330685339	1
2	3921	3335.1089517988	0
2	3925	3335.571787122	1
2	3926	3336.117228958543	0
2	3930	3336.651405389615	1
2	3931	3337.058308282282	0
2	3935	3337.406573425952	1
2	3936	3337.990372522335	0
2	3980	3365.758221701997	1
2	3981	3365.788780072817	0
2	3990	3369.023871309518	1
2	3991	3369.729242198744	0
2	4065	3430.360187731857	1
2	4066	3431.094218848239	0
2	4107	3454.492719795159	1
2	4108	3454.667944384553	0
2	4185	3496.04070472607	1
2	4186	3496.695535941867	0
2	4200	3510.941455454707	1
2	4201	3511.154506750575	0
2	4210	3516.787353332238	1
2	4211	3516.863533728901	0
2	4215	3517.311757302898	1
2	4216	3518.060358403582	0
2	4252	3529.449548621567	1
2	4253	3529.934943621017	0
2	4360	3618.055725341638	1
2	4361	3618.151473645332	0
2	4380	3624.900463256677	1
2	4381	3625.337539952975	0
2	4390	3627.475353202607	1
2	4391	3627.587132380046	0
2	4400	3630.581434189222	1
2	4401	3631.370352130927	0
2	4420	3647.123955831643	1
2	4421	3647.879239774731	0
2	4495	3729.457566561128	1
2	4496	3729.901933993122	0
2	4580	3786.134844898119	1
2	4581	3786.962349629686	0
2	4607	3795.38086722697	1
2	4608	3795.470795458148	0
2	4640	3815.680030439671	1
2	4641	3816.682283763111	0
2	4700	3858.311974435043	1
2	4701	3858.705493722564	0
2	4705	3859.085803006801	1
2	4706	3859.7691550359	0
2	4755	3900.129909028987	1
2	4756	3900.818765469771	0
2	4845	3959.288839487695	1
2	4846	3959.364243942554	0
2	4865	3964.739386409387	1
2	4866	3964.955094006671	0
2	4885	3988.339019926793	1
2	4886	3989.324006131174	0
2	4945	4066.609383519101	1
2	4946	4067.567647903779	0
2	4965	4088.394360763097	1
2	4966	4089.064121097305	0
2	5012	4110.208206657445	1
2	5013	4110.230375358354	0
2	5055	4139.684337886464	1
2	5056	4140.057063504084	0
2	5085	4150.824580177109	1
2	5086	4151.722040721819	0
2	5100	4168.048146810821	1
2	5101	4168.406245315631	0
2	5135	4198.445303842617	1
2	5136	4198.808637120604	0
2	5315	4341.624132830534	1
2	5316	4342.732100074574	0
2	5375	4384.71014230784	1
2	5376	4385.142359636504	0
2	5380	4385.217637906035	1
2	5382	4385.788981244552	2
2	5383	4386.148884151004	1
2	5388	4387.345344495553	0
2	5410	4416.727891602423	1
2	5411	4416.813559103123	0
2	5440	4449.081228430392	1
2	5441	4449.659227511451	0
2	5465	4458.751559635551	1
2	5466	4459.693726077617	0
2	5470	4459.791391040109	1
2	5471	4460.539326074661	0
2	5505	4488.998275497889	1
2	5506	4489.85492740764	0
2	5520	4493.44152044833	1
2	5521	4494.109624365069	0
2	5535	4500.343354750388	1
2	5536	4501.164791123884	0
2	5575	4542.663477607443	1
2	5576	4543.535404474198	0
2	5595	4557.69267693201	1
2	5596	4558.207497163652	0
2	5605	4561.476891075121	1
2	5606	4561.652405944182	0
2	5675	4607.030454339958	1
2	5676	4607.410233601638	0
2	5685	4608.240700082737	1
2	5686	4609.283370249615	0
2	5700	4630.62824656719	1
2	5701	4631.004192721891	0
2	5715	4636.2601380095	1
2	5716	4636.378217853609	0
2	5740	4647.540101087875	1
2	5741	4647.741115334915	0
2	5750	4653.336619584978	1
2	5751	4653.426314730531	0
2	5765	4665.291495444226	1
2	5766	4666.365984451298	0
2	5770	4666.678466741164	1
2	5771	4667.520890249025	0
2	5815	4712.088102335581	1
2	5816	4712.107516505339	0
2	5820	4712.297207110931	1
2	5821	4713.198555844606	0
2	5875	4759.375478117271	1
2	5876	4759.586280456119	0
2	5880	4759.686146931013	1
2	5881	4760.475785186727	0
2	5890	4762.51777344832	1
2	5891	4763.442179082079	0
2	5910	4779.541641850346	1
2	5911	4779.641449943371	0
2	5950	4807.308138992977	1
2	5951	4807.590808372301	0
2	6070	4888.040060685407	1
2	6071	4888.292340794599	0
2	6110	4917.373131749138	1
2	6111	4917.565658463138	0
2	6115	4917.738313177136	1
2	6117	4917.796719213436	2
2	6118	4918.664409743781	1
2	6122	4919.280276031888	2
2	6123	4919.622080866406	1
2	6126	4920.560100867572	0
2	6170	4957.649137243438	1
2	6171	4957.943571112945	0
2	6180	4966.892386752304	1
2	6181	4967.450441103615	0
2	6230	5010.016002898542	1
2	6231	5010.108194782245	0
2	6235	5010.604305006425	1
2	6236	5010.939990989151	0
2	6245	5012.678331651227	1
2	6247	5012.769066537446	2
2	6248	5013.229946251796	1
2	6253	5014.180510068522	0
2	6287	5035.59307683443	1
2	6288	5035.732714999797	0
2	6292	5035.898020968241	1
2	6295	5036.659575530006	0
2	6312	5040.082356003993	1
2	6313	5040.884869100845	0
2	6370	5079.845512319189	1
2	6371	5080.414376611594	0
2	6375	5080.603459287357	1
2	6376	5081.388612166285	0
2	6385	5083.098082952519	1
2	6386	5083.250321323663	0
2	6485	5218.789638611647	1
2	6486	5219.093273064051	0
2	6510	5229.222967264252	1
2	6511	5229.943345086269	0
2	6625	5336.270021722579	1
2	6626	5336.348132813876	0
2	6675	5380.612294986622	1
2	6676	5381.168417870017	0
2	6780	5470.850388321884	1
2	6781	5471.125177350944	0
2	6820	5510.772974334676	1
2	6821	5511.549390797765	0
2	6825	5512.236563777043	1
2	6826	5512.733199911268	0
2	6870	5574.987784574337	1
2	6871	5575.534117580181	0
2	6885	5608.155627318408	1
2	6886	5609.092168221157	0
2	6940	5658.534072134301	1
2	6941	5658.688136459504	0
2	6950	5660.160552243591	1
2	6951	5660.847749762676	0
2	6965	5665.554943335961	1
2	6966	5665.783290718935	0
2	6970	5666.5680582724	1
2	6971	5666.918738009288	0
2	7005	5693.692956150083	1
2	7006	5694.809519238647	0
2	7020	5698.702355008513	1
2	7021	5699.584140192443	0
2	7110	5788.169536207056	1
2	7111	5788.967272383861	0
2	7140	5812.159423600165	1
2	7141	5812.899291752682	0
2	7200	5844.721160390703	1
2	7201	5844.960515391286	0
2	7205	5845.790745819177	1
2	7206	5845.95640368184	0
2	7250	5868.931155313387	1
2	7251	5869.72505492876	0
2	7270	5879.809836518399	1
2	7273	5880.950528534896	0
2	7340	5937.785876745587	1
2	7343	5938.2339966574	0
2	7355	5940.600623946842	1
2	7356	5941.364783969124	0
2	7492	6062.700066796928	1
2	7493	6062.847580687896	0
2	7525	6076.827981252473	1
2	7526	6077.816251633894	0
2	7705	6243.188058884294	1
2	7706	6243.76665734829	0
2	7720	6250.659582483884	1
2	7721	6251.103254539489	0
2	7765	6289.403855052796	1
2	7766	6290.572401178486	0
2	7780	6304.569519463649	1
2	7781	6305.059682726414	0
2	7785	6306.182206356342	1
2	7786	6306.200974878036	0
2	7850	6366.224316926579	1
2	7851	6366.794630775932	0
2	7865	6371.206489930095	1
2	7866	6371.79470824888	0
2	7935	6432.089788065249	1
2	7936	6432.184698093819	0
2	7960	6441.896881319172	1
2	7961	6442.602469828319	0
2	7975	6445.888871373819	1
2	7976	6445.983311641439	0
2	7990	6456.725756664156	1
2	7991	6457.505632557234	0
2	8025	6477.834817918112	1
2	8028	6478.440342233074	0
2	8035	6479.661215082538	1
2	8036	6480.501295941067	0
2	8100	6520.033339242577	1
2	8101	6520.910141943017	0
2	8110	6522.914001881769	1
2	8111	6523.072589254488	0
2	8115	6523.369231114259	1
2	8116	6524.223555144683	0
2	8135	6540.160595572745	1
2	8136	6540.503317749429	0
2	8142	6541.057200357767	1
2	8143	6541.357152296066	0
2	8335	6672.938965732952	1
2	8336	6673.681825433161	0
2	8355	6683.259528759322	1
2	8356	6683.793255902879	0
2	8400	6721.320342900183	1
2	8401	6721.814723729137	0
2	8410	6727.353596007082	1
2	8413	6728.39415195896	0
2	8475	6803.792996787053	1
2	8476	6804.122827457084	0
2	8515	6846.416719787099	1
2	8516	6846.691856341941	0
2	8540	6860.565526748624	1
2	8541	6861.081933043359	0
2	8560	6866.374085676076	1
2	8561	6866.852630215617	0
2	8580	6877.4488348533	1
2	8581	6877.77779456942	0
2	8585	6878.534676584315	1
2	8586	6878.610566411509	0
2	8605	6896.170923220146	1
2	8606	6896.46779700592	0
2	8645	6930.182060102514	1
2	8646	6930.766640880151	0
2	8700	6974.36094676867	1
2	8701	6974.820252500696	0
2	8735	6991.799321792392	1
2	8736	6992.268092137392	0
2	8760	7012.607293211302	1
2	8761	7013.034620520199	0
2	8765	7013.300545818665	1
2	8766	7013.99083027179	0
2	8820	7068.642751101492	1
2	8821	7069.556398150916	0
2	8845	7094.395027784754	1
2	8846	7094.612033782603	0
2	8852	7095.039563425292	1
2	8853	7095.491800359899	0
2	8875	7102.162811218465	1
2	8876	7102.872756825576	0
2	8920	7125.060489978985	1
2	8921	7125.89643201055	0
2	9040	7212.630734930098	1
2	9041	7213.143902601832	0
2	9105	7269.82668425713	1
2	9106	7270.070233983388	0
2	9110	7270.856368038917	1
2	9111	7271.229818543633	0
2	9115	7271.46080994933	1
2	9116	7272.046727796578	0
2	9130	7275.886114173816	1
2	9131	7276.377251509293	0
2	9150	7280.896384803291	1
2	9151	7281.146730265869	0
2	9200	7330.562430337338	1
2	9201	7330.709132298621	0
2	9210	7332.17650806727	1
2	9212	7332.593368372193	2
2	9213	7332.679083595499	1
2	9216	7333.656042904574	0
2	9225	7334.89933124586	1
2	9227	7334.915522578439	2
2	9230	7335.797499128852	1
2	9233	7336.73519545817	0
2	9237	7336.971751368577	1
2	9238	7337.607690975584	0
2	9300	7417.274904257155	1
2	9301	7418.217486899372	0
2	9305	7418.65459656592	1
2	9306	7419.312272377897	0
2	9330	7424.836451624322	1
2	9331	7425.473710908217	0
2	9370	7466.498519713659	1
2	9371	7467.059854373183	0
2	9390	7479.52433280418	1
2	9391	7479.659131519614	0
2	9410	7496.546109846955	1
2	9411	7496.762497721751	0
2	9547	7593.697744054274	1
2	9548	7594.108213049427	0
2	9555	7595.738129474931	1
2	9556	7596.094501635966	0
2	9595	7622.273180672975	1
2	9596	7622.704781377703	0
2	9610	7627.459042216097	1
2	9611	7627.884939756832	0
2	9620	7629.793221483904	1
2	9621	7630.145007546896	0
2	9720	7758.017205994231	1
2	9721	7758.904062176404	0
2	9735	7765.337641308707	1
2	9736	7765.975880733339	0
2	9780	7813.303359214486	1
2	9782	7813.692476484182	2
2	9783	7814.037533866419	1
2	9786	7815.038316277871	0
2	9860	7920.399534908929	1
2	9862	7920.548017240775	2
2	9863	7920.592334726425	1
2	9867	7920.795405854344	2
2	9868	7921.703228666419	1
2	9871	7922.862328686351	0
2	9875	7923.880435379083	1
2	9876	7923.934866560129	0
2	9895	7959.035554914436	1
2	9896	7959.1801247056	0
2	10005	8031.363597803798	1
2	10006	8032.168836842244	0
2	10020	8070.383068218256	1
2	10021	8070.999940704563	0
2	10055	8117.038938742256	1
2	10056	8117.907748039308	0
2	10065	8119.60867104207	1
2	10066	8120.071182355433	0
2	10070	8121.090110996201	1
2	10071	8121.096886277626	0
2	10077	8121.745024102741	1
2	10078	8122.193632311987	0
2	10085	8123.391693189321	1
2	10086	8124.137298619243	0
2	10100	8148.072835937711	1
2	10101	8148.793223432214	0
2	10155	8194.691107136622	1
2	10158	8195.344767679729	0
2	10190	8217.005490068258	1
2	10191	8217.045768387312	0
2	10195	8217.470468585466	1
2	10196	8217.908572346134	0
2	10200	8218.365767933276	1
2	10201	8218.902492937328	0
2	10215	8227.822276555715	1
2	10216	8228.128755912361	0
2	10230	8236.1816164234	1
2	10231	8236.9627835444	0
2	10255	8263.91808723754	1
2	10256	8264.127592882159	0
2	10275	8270.334512524579	1
2	10277	8270.779846651651	2
2	10278	8270.950607909152	1
2	10281	8271.845677334519	0
2	10285	8272.253219054419	1
2	10286	8272.968495776208	0
2	10305	8291.610763961415	1
2	10307	8292.041436999708	2
2	10308	8292.31387612151	1
2	10313	8293.247520394456	0
2	10317	8293.568022023422	1
2	10318	8294.213996243962	0
2	10325	8295.260958845402	1
2	10326	8296.330116068219	0
2	10350	8306.847924220061	1
2	10353	8307.732934933552	0
2	10360	8308.575937769042	1
2	10361	8309.374978103047	0
2	10420	8386.48206305964	1
2	10422	8386.755260211126	2
2	10423	8386.876360900714	1
2	10426	8388.062019625413	0
2	10545	8474.613135830951	1
2	10546	8475.004178872834	0
2	10585	8531.065482007818	1
2	10588	8531.911427472735	0
2	10595	8533.120871208624	1
2	10596	8533.787898198066	0
2	10637	8574.482060022398	1
2	10638	8575.283249158161	0
2	10645	8577.275411141713	1
2	10646	8577.556171671795	0
2	10650	8577.654379025856	1
2	10651	8578.374074906232	0
2	10655	8578.601121326905	1
2	10656	8579.460997861372	0
2	10675	8595.556008136093	1
2	10676	8596.52312525932	0
2	10680	8596.918036880834	1
2	10681	8597.494348658177	0
2	10720	8639.902862374611	1
2	10721	8640.903785417682	0
2	10760	8655.103493105298	1
2	10761	8655.645248040546	0
2	10855	8785.576610545752	1
2	10856	8785.736717637451	0
2	10870	8788.787342954595	1
2	10871	8789.80513297515	0
2	10925	8825.8269762869	1
2	10926	8826.641728549248	0
2	11060	8943.043685402406	1
2	11061	8943.55359786891	0
2	11075	8948.474961284175	1
2	11076	8948.49825493558	0
2	11085	8949.615302664258	1
2	11086	8950.387092553375	0
2	11090	8950.476655060012	1
2	11092	8951.183208678422	2
2	11093	8951.39630570702	1
2	11097	8951.492605183826	2
2	11098	8952.235177769062	1
2	11101	8953.177858620898	0
2	11145	8988.584266501286	1
2	11146	8989.259000031285	0
2	11160	8995.839210616755	1
2	11161	8996.329471395976	0
2	11190	9007.678930270429	1
2	11191	9008.084477530721	0
2	11197	9009.002410246644	1
2	11198	9009.141504372771	0
2	11205	9009.961042638167	1
2	11206	9010.869587880674	0
2	11215	9019.403350114072	1
2	11217	9019.657780498635	2
2	11218	9019.761365157808	1
2	11223	9020.663548418856	0
2	11227	9021.741514991968	1
2	11228	9021.788452876336	0
2	11235	9023.060792652228	1
2	11236	9024.073769051559	0
2	11255	9037.844775815593	1
2	11256	9038.664764015656	0
2	11260	9038.948260393361	1
2	11261	9039.68270192435	0
2	11410	9197.694669033762	1
2	11413	9198.018713352112	0
2	11515	9285.828355355755	1
2	11516	9286.007100271337	0
2	11520	9287.089946144163	1
2	11521	9287.094557317529	0
2	11535	9290.816185152962	1
2	11536	9291.268215795084	0
2	11565	9317.603449952608	1
2	11566	9318.046109806289	0
2	11570	9318.339765141828	1
2	11571	9319.048549897232	0
2	11625	9353.07179769617	1
2	11627	9353.739157306674	2
2	11628	9353.873137559694	1
2	11631	9354.839473056932	0
2	11680	9393.870633753329	1
2	11681	9394.090628206179	0
2	11700	9399.476835948914	1
2	11701	9400.050837481675	0
2	11750	9447.092734972534	1
2	11751	9447.504933780248	0
2	11810	9482.677825530557	1
2	11812	9483.254544643079	2
2	11813	9483.389223910302	1
2	11816	9484.257983989541	0
2	11865	9519.938961866475	1
2	11866	9520.278725836019	0
2	11970	9626.563480060614	1
2	11972	9626.649840857656	2
2	11973	9627.034981302273	1
2	11978	9627.954974583451	0
2	12000	9635.094682764179	1
2	12002	9635.45084913845	2
2	12003	9635.59760635877	1
2	12006	9636.709045856632	0
2	12010	9637.451831953081	1
2	12012	9637.699099401755	2
2	12013	9637.780480234883	1
2	12016	9638.753378580882	0
2	12020	9639.379653261448	1
2	12022	9639.630071924343	2
2	12025	9639.790510987862	1
2	12028	9640.880003202985	0
2	12032	9641.226018632985	1
2	12033	9641.830278791393	0
2	12045	9645.175407022376	1
2	12047	9645.498351033116	2
2	12049	9645.531626332548	3
2	12050	9646.161675978315	2
2	12053	9647.035336056773	1
2	12057	9647.432563453101	2
2	12058	9648.209160281208	1
2	12061	9649.156829872497	0
2	12065	9649.51286453702	1
2	12066	9649.993146474243	0
2	12095	9683.119744627615	1
2	12096	9683.247676826122	0
2	12105	9684.832832718423	1
2	12106	9685.73027662693	0
2	12140	9703.777175790377	1
2	12141	9704.536361177133	0
2	12175	9727.515485539257	1
2	12176	9727.760824464315	0
2	12230	9759.169138952855	1
2	12231	9759.681041547647	0
2	12280	9828.217088599149	1
2	12281	9828.284393842439	0
2	12325	9850.830753790702	1
2	12326	9850.979846281129	0
2	12330	9851.473536499696	1
2	12331	9851.896747993342	0
2	12435	9931.385578533954	1
2	12436	9931.810884490092	0
2	12440	9932.269125325748	1
2	12441	9932.749436552119	0
2	12470	9947.567007537314	1
2	12471	9947.945898108046	0
2	12515	9971.054468494701	1
2	12516	9971.406385606131	0
2	12652	10116.390790466053	1
2	12653	10116.919443278673	0
2	12685	10137.03622386113	1
2	12686	10138.104862389676	0
2	12855	10293.395963720449	1
2	12856	10293.414652138887	0
2	12935	10337.649128966624	1
2	12937	10338.410459744847	2
2	12938	10338.589189608185	1
2	12941	10339.555067749111	0
2	12985	10392.050212294155	1
2	12986	10392.063959864553	0
2	13060	10466.208280606945	1
2	13061	10467.172740483845	0
2	13085	10474.946540930551	1
2	13086	10475.450925849086	0
2	13100	10477.482019201513	1
2	13101	10478.043576711496	0
2	13115	10487.906084411698	1
2	13116	10488.048935547761	0
2	13130	10491.387781596297	1
2	13131	10491.501369816403	0
2	13230	10602.745249860616	1
2	13231	10603.175944534098	0
2	13325	10689.705468627739	1
2	13326	10690.518516256461	0
2	13340	10696.659789772758	1
2	13341	10697.572431124773	0
2	13415	10759.67415561971	1
2	13416	10760.618925909219	0
2	13445	10784.14931494668	1
2	13446	10784.967858209396	0
2	13455	10786.191522702159	1
2	13457	10786.966359487695	2
2	13458	10787.156249900274	1
2	13461	10787.988502905816	0
2	13465	10788.460465011676	1
2	13466	10788.927058485262	0
2	13490	10828.617366057198	1
2	13492	10829.599630238888	2
2	13493	10829.604768232827	1
2	13496	10830.55538094641	0
2	13500	10830.759030975063	1
2	13501	10831.505008871214	0
2	13520	10850.233683485938	1
2	13521	10850.854494703077	0
2	13530	10867.343739812518	1
2	13531	10867.780757923696	0
2	13550	10871.677038326095	1
2	13551	10872.259389363118	0
2	13835	11088.338777938791	1
2	13836	11088.377134481943	0
2	13940	11156.886535322688	1
2	13941	11157.347167011817	0
2	13962	11176.11335498057	1
2	13963	11176.372592660428	0
2	13970	11177.518485267286	1
2	13971	11178.296279573736	0
2	13980	11179.474897194553	1
2	13981	11180.546971866149	0
2	14015	11227.582558608978	1
2	14016	11227.649886609345	0
2	14070	11269.173802715044	1
2	14071	11269.38325137594	0
2	14075	11270.253985519824	1
2	14076	11270.396507471197	0
2	14097	11277.314175206378	1
2	14098	11277.374894111495	0
2	14145	11314.613705377931	1
2	14146	11314.901022766024	0
2	14280	11413.135844149521	1
2	14282	11413.603524962984	2
2	14283	11413.786131115422	1
2	14288	11414.648385817815	0
2	14300	11431.053232491472	1
2	14301	11431.664703325373	0
2	14320	11440.372578812726	1
2	14321	11440.7645506058	0
2	14375	11471.300284634672	1
2	14377	11471.372550312009	2
2	14378	11471.808867873422	1
2	14381	11472.860791805743	0
2	14575	11621.167483187551	1
2	14576	11622.026700449565	0
2	14580	11622.462956408216	1
2	14581	11623.045074261741	0
2	14587	11623.306159268169	1
2	14588	11624.097102659025	0
2	14630	11642.020589535719	1
2	14631	11642.606116287255	0
2	14670	11676.937530448814	1
2	14671	11677.902269532408	0
2	14715	11706.90579733351	1
2	14718	11707.530213997611	0
2	14730	11709.908655551271	1
2	14731	11711.026675841108	0
2	14745	11720.259016675667	1
2	14746	11720.876113099699	0
2	14770	11740.548862441334	1
2	14771	11741.427178006634	0
2	14785	11748.789555372096	1
2	14786	11749.593418174764	0
2	14790	11749.787518749009	1
2	14791	11750.728056703476	0
2	14800	11756.865317891873	1
2	14801	11757.214451427725	0
2	14805	11757.385615877571	1
2	14806	11758.018897496876	0
2	14875	11812.449103002676	1
2	14876	11813.313046819217	0
2	14880	11813.949112674426	1
2	14881	11814.411846020318	0
2	14900	11822.453759855623	1
2	14902	11822.719188344842	2
2	14903	11822.882455971433	1
2	14906	11823.978588993536	0
2	14925	11834.545232823617	1
2	14928	11834.902665369388	0
2	14960	11844.013130437062	1
2	14961	11844.913673317216	0
2	14965	11845.387751588442	1
2	14966	11845.738356879044	0
2	14990	11871.708500510129	1
2	14991	11871.797345307562	0
2	15015	11880.661423763386	1
2	15016	11880.771332950969	0
2	15150	11986.012524050888	1
2	15151	11986.734434682755	0
2	15220	12031.471702125358	1
2	15221	12031.894091707059	0
2	15315	12092.643273837523	1
2	15316	12092.790110349566	0
2	15340	12099.002280904596	1
2	15341	12099.617837960606	0
2	15435	12174.426530714936	1
2	15436	12174.51940236038	0
2	15465	12209.110537177313	1
2	15466	12209.500811822347	0
2	15480	12223.204188677642	1
2	15481	12223.271512188959	0
2	15575	12307.898418623386	1
2	15576	12308.1458600223	0
2	15625	12340.718688695717	1
2	15626	12341.7300404311	0
2	15645	12349.246684138683	1
2	15646	12349.665852064934	0
2	15670	12382.85494445434	1
2	15671	12383.192764715023	0
2	15677	12383.677203434423	1
2	15678	12384.237722997844	0
2	15695	12392.708127002086	1
2	15698	12393.255431069208	0
2	15755	12432.369674808108	1
2	15756	12433.420823467962	0
2	15775	12444.758707609237	1
2	15776	12445.399212735895	0
2	15825	12496.823907571633	1
2	15826	12497.380230373401	0
2	15837	12498.443090220735	1
2	15840	12499.218794448185	0
2	15865	12523.78927220332	1
2	15868	12524.726450939752	0
2	15875	12526.112002807792	1
2	15876	12526.87575342841	0
2	15890	12539.943569791613	1
2	15891	12540.44236904334	0
2	16000	12667.92422999005	1
2	16001	12668.648029436923	0
2	16010	12672.061699003947	1
2	16011	12672.593069543293	0
2	16107	12722.465257727997	1
2	16108	12722.563349063505	0
2	16117	12723.723461303447	1
2	16119	12724.751797444032	2
2	16120	12724.847432284427	1
2	16125	12725.939388158915	0
2	16129	12726.807861766907	1
2	16130	12726.810109044236	0
2	16145	12729.67923202424	1
2	16146	12730.497734481559	0
2	16255	12801.037680964627	1
2	16256	12801.135894874018	0
2	16285	12832.609886459462	1
2	16286	12833.374273460816	0
2	16300	12838.93073700153	1
2	16301	12839.848113067235	0
2	16315	12844.632107424542	1
2	16316	12844.694580165026	0
2	16407	12947.487648655668	1
2	16408	12948.202020019168	0
2	16430	12958.25854554335	1
2	16432	12958.578501080664	2
2	16433	12959.08373761888	1
2	16438	12959.962265216777	0
2	16470	12981.35871305131	1
2	16471	12982.135034430891	0
2	16530	13022.292611092068	1
2	16531	13022.412047382048	0
2	16540	13024.690408617974	1
2	16541	13025.083881861995	0
2	16550	13026.502148219583	1
2	16551	13027.48988664273	0
2	16560	13029.9127038362	1
2	16561	13030.00493351719	0
2	16585	13053.885489360861	1
2	16586	13054.814510697028	0
2	16590	13055.347150495217	1
2	16591	13055.766044310103	0
2	16597	13056.554291691284	1
2	16598	13056.924536008849	0
2	16605	13057.930522504202	1
2	16606	13058.885166771147	0
2	16622	13074.754492640335	1
2	16624	13075.029703428831	2
2	16625	13075.165221078229	1
2	16628	13075.997041754984	0
2	16675	13121.941587989756	1
2	16678	13122.736235348437	0
2	16682	13123.040043368556	1
2	16683	13123.597033841092	0
2	16750	13162.70239739634	1
2	16751	13163.306200465459	0
2	16755	13163.480549203663	1
2	16756	13164.287520338308	0
2	16800	13204.774336378338	1
2	16801	13205.146695297291	0
2	16810	13206.557587405912	1
2	16811	13207.155378213468	0
2	16865	13259.164583630424	1
2	16866	13259.724490904453	0
2	16870	13260.000064571939	1
2	16871	13260.714561030007	0
2	16905	13280.747629945055	1
2	16906	13281.237948585544	0
2	16935	13293.50136320884	1
2	16936	13293.514569038553	0
2	17000	13371.540066137447	1
2	17001	13371.805751756047	0
2	17005	13372.021882952038	1
2	17006	13372.779623043471	0
2	17085	13439.950891110585	1
2	17087	13440.422924130548	2
2	17088	13440.496215093328	1
2	17093	13441.688635650283	0
2	17155	13484.81097084758	1
2	17156	13485.653163258584	0
2	17160	13485.914406698377	1
2	17161	13486.798219918312	0
2	17190	13513.477554205902	1
2	17191	13513.688677538231	0
2	17195	13513.971752761666	1
2	17196	13514.508641831901	0
2	17210	13519.729245875463	1
2	17211	13520.0542474745	0
2	17230	13537.370255150578	1
2	17231	13537.921241573531	0
2	17240	13539.441020485687	1
2	17242	13539.569397658215	2
2	17245	13539.896964253865	1
2	17248	13540.709782939225	0
2	17255	13541.914496374854	1
2	17256	13542.955683579862	0
2	17270	13554.410774357869	1
2	17272	13554.592398571585	2
2	17273	13554.966832953728	1
2	17276	13555.888084258455	0
2	17350	13618.141253952518	1
2	17351	13618.197772515748	0
2	17480	13710.061388237556	1
2	17481	13710.842366170011	0
2	17530	13751.378389562738	1
2	17531	13751.547364932131	0
2	17535	13752.522482270171	1
2	17536	13752.715226083826	0
2	17600	13795.661006033092	1
2	17603	13796.404992672053	0
2	17607	13796.824741241485	1
2	17608	13797.419636671428	0
2	17615	13798.442592833685	1
2	17617	13798.810815398915	2
2	17618	13799.336983016875	1
2	17621	13800.297427882437	0
2	17670	13853.472198051107	1
2	17671	13853.65663998068	0
2	17680	13854.686858884682	1
2	17682	13854.773046982911	2
2	17683	13855.809534023725	1
2	17686	13856.950905298558	0
2	17695	13858.464558264117	1
2	17696	13859.181760834654	0
2	17830	14024.301565994282	1
2	17831	14025.066492585904	0
2	17870	14047.881831207993	1
2	17871	14048.291738076491	0
2	17950	14143.270055242647	1
2	17951	14143.334646539577	0
2	17960	14144.877161772721	1
2	17961	14145.150038112328	0
2	18035	14213.085212233855	1
2	18036	14213.247580708875	0
2	18045	14214.494754318315	1
2	18046	14215.232397394707	0
2	18075	14241.831932459047	1
2	18076	14242.680585773336	0
2	18082	14243.61948349137	1
2	18083	14243.74311601962	0
2	18090	14244.971265458369	1
2	18091	14245.576130898344	0
2	18100	14247.409847568388	1
2	18101	14247.550643886924	0
2	18120	14280.95063550758	1
2	18121	14281.162253832541	0
2	18185	14337.334854442933	1
2	18186	14337.811086499704	0
2	18400	14556.196979871945	1
2	18401	14556.516424668187	0
2	18410	14557.524502639776	1
2	18411	14558.187221729255	0
2	18415	14559.046823206436	1
2	18416	14559.127655933669	0
2	18440	14577.083025714422	1
2	18441	14577.179799694121	0
2	18465	14599.548429677393	1
2	18466	14599.625328827121	0
2	18510	14643.255744505146	1
2	18511	14643.274432539736	0
2	18525	14653.948708210928	1
2	18526	14654.874351756558	0
2	18530	14655.648604087112	1
2	18531	14655.741860818308	0
2	18540	14656.745358459809	1
2	18541	14657.570989944604	0
2	18547	14657.978975047965	1
2	18548	14658.456682036356	0
2	18555	14659.787911275144	1
2	18556	14660.649554530908	0
2	18560	14661.132407353972	1
2	18561	14661.505585258086	0
2	18835	14950.894765537957	1
2	18836	14951.153488281728	0
2	18880	14980.010526958139	1
2	18883	14981.087775279243	0
2	18920	14993.576359027864	1
2	18921	14993.851642124169	0
2	18927	14994.438983471065	1
2	18928	14994.655916443281	0
2	18935	14996.592487494694	1
2	18936	14996.76996553177	0
2	18960	15017.871860155491	1
2	18962	15017.947809063801	2
2	18963	15018.831454441683	1
2	18966	15019.968551899945	0
2	18970	15020.000142008644	1
2	18971	15020.911195836296	0
2	19010	15051.208614793106	1
2	19011	15052.146174502825	0
2	19070	15104.931003861337	1
2	19071	15105.344308669096	0
2	19080	15108.856613399852	1
2	19081	15109.202490466081	0
2	19140	15151.912260723374	1
2	19143	15152.328865107643	0
2	19152	15153.378926362046	1
2	19153	15154.356102529662	0
2	19285	15217.687249999109	1
2	19286	15218.44075803743	0
2	19365	15296.682991627562	1
2	19366	15297.385739582276	0
2	19375	15299.492142192667	1
2	19376	15299.552791447902	0
2	19495	15364.868882884461	1
2	19496	15365.289831998238	0
2	19505	15366.671637772498	1
2	19506	15367.36096309567	0
2	19520	15376.463632313979	1
2	19521	15377.223866068843	0
2	19540	15389.810334207771	1
2	19541	15390.575079306763	0
2	19555	15411.686436387254	1
2	19556	15411.837245139347	0
2	19595	15457.798012939736	1
2	19596	15458.538354737134	0
2	19615	15470.82384171815	1
2	19616	15471.817384953572	0
2	19620	15471.907086995492	1
2	19621	15472.799763648732	0
2	19665	15517.792471059484	1
2	19666	15518.264204440502	0
2	19670	15518.583043592722	1
2	19671	15519.413286416841	0
2	19700	15534.808169659438	1
2	19701	15534.876699074147	0
2	19770	15586.456920608218	1
2	19771	15587.020433135717	0
2	19815	15621.416554303836	1
2	19818	15622.271502787778	0
2	19845	15647.582198845523	1
2	19847	15647.681127206873	2
2	19848	15648.557007372749	1
2	19851	15649.427203969561	0
2	19905	15710.627719713788	1
2	19906	15711.207419638825	0
2	19925	15715.467435186439	1
2	19926	15716.135877683717	0
2	19980	15773.530173065411	1
2	19981	15773.550258097773	0
2	20010	15787.461832683608	1
2	20011	15787.593767284983	0
2	20045	15817.172001377327	1
2	20046	15818.027121610571	0
2	20055	15823.707936800285	1
2	20056	15823.785248439908	0
2	20095	15871.353408132167	1
2	20096	15871.495037615629	0
2	20110	15873.8205681096	1
2	20111	15874.801847959778	0
2	20175	15923.41398326347	1
2	20176	15923.803516590553	0
2	20265	16024.548089734485	1
2	20266	16025.236005079286	0
2	20310	16057.142697626993	1
2	20311	16057.528028893076	0
2	20315	16057.571846205586	1
2	20316	16058.447299132101	0
2	20370	16096.444744361884	1
2	20371	16097.200559122034	0
2	20465	16167.022806109982	1
2	20466	16167.579074366727	0
2	20490	16177.24402261532	1
2	20491	16177.583700485277	0
2	20545	16215.291011566728	1
2	20546	16215.990929305876	0
2	20555	16216.981805452992	1
2	20556	16217.759296998363	0
2	20600	16266.763692230294	1
2	20601	16266.821176392537	0
2	20620	16283.47533189714	1
2	20621	16284.393806105622	0
2	20640	16300.000520416581	1
2	20642	16300.175699691473	2
2	20643	16300.287365721431	1
2	20646	16301.176300574266	0
2	20705	16345.913278934878	1
2	20706	16346.233712561646	0
2	20715	16347.950440099104	1
2	20716	16348.533617462653	0
2	20745	16372.939685505801	1
2	20746	16373.871836607404	0
2	20750	16374.295638595308	1
2	20751	16374.698187826727	0
2	20760	16378.353241562727	1
2	20761	16378.942232591283	0
2	20830	16443.969850141686	1
2	20831	16445.004153550729	0
2	20835	16445.186192649435	1
2	20836	16446.061391995415	0
2	20855	16461.383115422948	1
2	20856	16461.873516922894	0
2	20860	16461.911886878846	1
2	20861	16462.758422241437	0
2	20865	16462.838770133436	1
2	20867	16463.04729209502	2
2	20868	16463.645891766979	1
2	20871	16464.58605696725	0
2	20890	16470.367002329022	1
2	20892	16470.379324687452	2
2	20893	16470.764874263108	1
2	20898	16471.779167135246	0
2	20902	16471.797622337536	1
2	20903	16472.708516264427	0
2	20930	16489.071907194507	1
2	20931	16489.801217232222	0
2	20952	16511.415981934425	1
2	20953	16511.484976391943	0
2	20957	16512.511561372007	1
2	20958	16512.626653991623	0
2	20962	16513.329613535233	1
2	20963	16513.607318293473	0
2	20970	16514.965843276495	1
2	20971	16515.516930902081	0
2	20980	16522.303027481354	1
2	20981	16522.975178485788	0
2	21065	16608.134354842544	1
2	21066	16609.217517607585	0
2	21080	16616.24564831599	1
2	21082	16616.251361023354	2
2	21085	16617.135279409877	1
2	21088	16618.158112405344	0
2	21110	16644.146917051462	1
2	21111	16645.104426072859	0
2	21140	16690.869445110816	1
2	21141	16691.952886177827	0
2	21165	16699.977960523872	1
2	21166	16700.867745777735	0
2	21180	16703.937426212764	1
2	21181	16704.926533975032	0
2	21190	16706.179555285467	1
2	21191	16706.944868451589	0
2	21245	16748.401588170494	1
2	21246	16748.681660314373	0
2	21255	16752.395783087034	1
2	21256	16752.776496079664	0
2	21260	16753.004194406234	1
2	21261	16753.83187725526	0
2	21290	16779.854203260616	1
2	21291	16780.518024173214	0
2	21380	16856.73187289765	1
2	21381	16857.246021738676	0
2	21512	16987.155209197308	1
2	21513	16987.68446919175	0
2	21525	16992.098723207717	1
2	21526	16992.460623120572	0
2	21555	17003.962362845892	1
2	21556	17004.816332702215	0
2	21570	17020.283651213589	1
2	21571	17020.611052075238	0
2	21605	17085.18663072448	1
2	21606	17085.370607161328	0
2	21615	17086.478853863856	1
2	21616	17087.197027958457	0
2	21620	17087.37173132456	1
2	21623	17088.2881502008	0
2	21650	17104.792618904292	1
2	21651	17105.852832380284	0
2	21670	17115.545111813261	1
2	21671	17116.188482447403	0
2	21765	17240.033300707543	1
2	21766	17240.662000029594	0
2	21780	17258.943764231059	1
2	21781	17259.371109808426	0
2	21785	17259.669157312676	1
2	21786	17260.440838077947	0
2	21790	17260.706457106659	1
2	21793	17261.623549669239	0
2	21835	17299.610979327719	1
2	21836	17300.136210186526	0
2	21850	17304.640810769709	1
2	21851	17304.946511117703	0
2	21890	17337.032143581093	1
2	21892	17337.760062001613	2
2	21893	17337.799976037055	1
2	21896	17338.758774804029	0
2	21955	17416.358889260009	1
2	21956	17417.26414446753	0
2	21960	17418.115799724856	1
2	21961	17418.17797243061	0
2	21965	17418.793345539189	1
2	21966	17419.083992696521	0
2	21975	17421.05563901691	1
2	21976	17421.296068003879	0
2	22005	17433.380948357626	1
2	22006	17434.184693274987	0
2	22040	17485.478489121643	1
2	22041	17486.219491470836	0
2	22045	17487.01531174444	1
2	22046	17487.060755169064	0
2	22120	17567.730442991955	1
2	22121	17568.377648273036	0
2	22125	17568.898148909302	1
2	22126	17569.210571480375	0
2	22150	17606.186163643211	1
2	22151	17606.796469407333	0
2	22175	17646.81738432187	1
2	22176	17647.264955880513	0
2	22190	17663.741151972055	1
2	22192	17664.404546326393	2
2	22193	17664.68359691117	1
2	22196	17665.660440961346	0
2	22215	17704.704092903188	1
2	22216	17704.969781558472	0
2	22235	17730.572580796111	1
2	22236	17731.562683367049	0
2	22240	17731.974603641922	1
2	22241	17732.648777772737	0
2	22295	17780.35013047182	1
2	22296	17780.802266063045	0
2	22350	17871.649211594607	1
2	22351	17872.345554479765	0
2	22545	18004.442376175881	1
2	22546	18004.5644691702	0
2	22550	18005.588517397313	1
2	22551	18005.595233373905	0
2	22645	18093.756570661517	1
2	22646	18094.485996912101	0
2	22710	18150.565123668099	1
2	22711	18151.282575462888	0
2	22715	18151.580441704078	1
2	22717	18152.077345561864	2
2	22718	18152.112994653395	1
2	22721	18152.982830517309	0
2	22725	18153.358222924381	1
2	22726	18153.965195226705	0
2	22815	18228.122862054745	1
2	22816	18228.211834427499	0
2	22840	18244.449772637264	1
2	22841	18245.05499296363	0
2	22855	18252.929179876391	1
2	22856	18253.341326484229	0
2	22922	18309.756817893748	1
2	22923	18310.150059649817	0
2	22960	18331.249438719818	1
2	22963	18331.838184228451	0
2	22970	18333.623638020223	1
2	22971	18333.955177445714	0
2	23010	18350.414322432109	1
2	23011	18351.111448970709	0
2	23015	18351.222298687099	1
2	23016	18352.134999835856	0
2	23025	18362.361908803634	1
2	23026	18363.119295307687	0
2	23130	18498.163618753017	1
2	23132	18498.343786631295	2
2	23133	18498.351855468662	1
2	23136	18499.277095908211	0
2	23165	18517.972829700748	1
2	23166	18518.831736473926	0
2	23205	18563.588016563961	1
2	23206	18563.764195743902	0
2	23210	18564.035522749255	1
2	23211	18564.727480181354	0
2	23225	18570.729098122987	1
2	23226	18571.431379670503	0
2	23270	18611.61177255581	1
2	23271	18611.893046553013	0
2	23275	18612.332591502337	1
2	23276	18613.090561784477	0
2	23285	18616.612015427699	1
2	23286	18617.348174084863	0
2	23312	18630.686888989806	1
2	23313	18631.157343653634	0
2	23320	18632.33208040342	1
2	23321	18632.945431809451	0
2	23350	18658.323272909299	1
2	23353	18659.146944754789	0
2	23400	18704.508513525288	1
2	23401	18704.609403838271	0
2	23440	18743.990313423723	1
2	23441	18744.486094701221	0
2	23470	18785.886494970694	1
2	23471	18786.848253764951	0
2	23555	18838.092128353327	1
2	23556	18838.797823055653	0
2	23640	18919.505019952798	1
2	23644	18920.002660474676	2
2	23645	18920.184005066768	1
2	23648	18921.330212774888	0
2	23665	18933.372057081981	1
2	23666	18933.937546461005	0
2	23695	18964.619925260849	1
2	23696	18964.975009142395	0
2	23850	19122.390647648769	1
2	23851	19122.920217951022	0
2	23890	19145.385709512989	1
2	23891	19145.391544855609	0
2	23895	19145.544090222884	1
2	23896	19146.479327681977	0
2	23905	19154.430445335728	1
2	23906	19154.845705942467	0
2	23915	19157.203910577803	1
2	23916	19157.314315803767	0
2	23920	19157.915652778577	1
2	23921	19158.163291894783	0
2	23960	19204.067390240803	1
2	23961	19204.227620638752	0
2	24045	19274.521316738563	1
2	24046	19275.369833657901	0
2	24070	19307.542835182785	1
2	24071	19308.005872028877	0
2	24075	19308.363047224563	1
2	24077	19308.592328921473	2
2	24078	19308.851756755632	1
2	24081	19310.021914997787	0
2	24085	19310.026081202081	1
2	24086	19311.084563614891	0
2	24090	19311.404041907547	1
2	24091	19312.039951519852	0
2	24095	19312.104086878222	1
2	24096	19312.890228363962	0
2	24115	19326.39657994241	1
2	24116	19326.551171465737	0
2	24130	19331.941116032566	1
2	24131	19331.993115839097	0
2	24150	19368.265927085684	1
2	24151	19368.328932016728	0
2	24155	19368.530766673538	1
2	24156	19369.155016624381	0
2	24170	19371.587201798009	1
2	24171	19372.207121106289	0
2	24235	19441.176762626461	1
2	24236	19441.741348756704	0
2	24260	19458.554373197952	1
2	24261	19459.040433878663	0
2	24265	19459.824619115866	1
2	24266	19460.230264609518	0
2	24272	19461.192262661782	1
2	24273	19461.195117991908	0
2	24290	19465.207344919581	1
2	24293	19465.871863205876	0
2	24300	19467.405243124941	1
2	24302	19467.469473752046	2
2	24303	19467.830641654651	1
2	24306	19468.664146864466	0
2	24325	19477.236267423318	1
2	24326	19477.925752529508	0
2	24337	19489.344689482908	1
2	24338	19489.631746939799	0
2	24345	19491.611506690738	1
2	24346	19491.651399110208	0
2	24365	19505.380602863981	1
2	24366	19506.273348347483	0
2	24455	19592.393328530786	1
2	24456	19592.896039567539	0
2	24470	19602.588172975049	1
2	24471	19602.743065574432	0
2	24480	19617.877525091343	1
2	24481	19617.931601245695	0
2	24500	19637.736870697493	1
2	24501	19637.959229674288	0
2	24520	19649.816813366694	1
2	24521	19649.963571852138	0
2	24590	19720.606293353311	1
2	24591	19721.60707398246	0
2	24595	19721.958315580573	1
2	24596	19722.771969251642	0
2	24635	19763.477377738863	1
2	24636	19763.477608505688	0
2	24735	19863.002105841918	1
2	24736	19863.979459465657	0
2	24780	19905.718982682373	1
2	24781	19906.286962221011	0
2	24835	19947.353981009419	1
2	24836	19948.369436590547	0
2	24865	19964.083080168147	1
2	24866	19964.961516594564	0
2	24885	19983.172617994458	1
2	24886	19983.411943213572	0
2	24905	19995.555432455855	1
2	24908	19996.272944696413	0
2	24940	20019.319462921832	1
2	24941	20019.786620568226	0
2	25015	20099.542078037898	1
2	25016	20100.0213964439	0
2	25070	20141.061049132202	1
2	25071	20141.098019674567	0
2	25075	20141.36956901644	1
2	25076	20142.173438960088	0
2	25170	20225.581252601463	1
2	25171	20226.266926369616	0
2	25175	20226.417919886034	1
2	25176	20227.462344723926	0
2	25200	20239.602407271649	1
2	25201	20239.933605899816	0
2	25237	20253.726328941417	1
2	25238	20254.475549390117	0
2	25260	20262.805409663185	1
2	25261	20263.4407238406	0
2	25265	20263.491197147199	1
2	25266	20264.274598638421	0
2	25270	20264.905550175787	1
2	25271	20265.433447503379	0
2	25315	20288.856649778065	1
2	25317	20289.150964073442	2
2	25318	20289.69122989271	1
2	25321	20290.872298537941	0
2	25325	20291.20405116059	1
2	25326	20292.023935805449	0
2	25375	20336.110419480114	1
2	25376	20336.190620901198	0
2	25385	20338.290688484541	1
2	25386	20338.815912897075	0
2	25395	20353.584806864774	1
2	25396	20353.68890065065	0
2	25420	20375.560380706353	1
2	25421	20375.831215541497	0
2	25445	20385.116366494782	1
2	25446	20385.546489243312	0
2	25450	20385.668027024033	1
2	25451	20386.66454649075	0
2	25500	20418.174286096976	1
2	25501	20419.008559204972	0
2	25555	20472.191226380772	1
2	25556	20472.365177264981	0
2	25640	20540.473197948489	1
2	25642	20540.572145354872	2
2	25643	20540.633021395673	1
2	25647	20541.009331077405	2
2	25649	20541.261594057507	3
2	25650	20541.435700707623	2
2	25655	20542.499072878828	1
2	25658	20543.678300775422	0
2	25690	20562.741475236783	1
2	25691	20562.777630942692	0
2	25775	20643.107314546367	1
2	25776	20643.946026174878	0
2	25790	20668.6847195516	1
2	25791	20668.981023904254	0
2	25800	20676.79134649024	1
2	25801	20677.730627485414	0
2	25905	20785.432766019066	1
2	25906	20786.370620255876	0
2	25912	20786.736979819269	1
2	25914	20786.897913516323	2
2	25915	20787.252212108537	1
2	25918	20788.340372250933	0
2	26020	20870.371650705093	1
2	26021	20870.676459958294	0
2	26055	20912.895021146596	1
2	26057	20913.674223040748	2
2	26058	20913.794692622321	1
2	26061	20914.969335527169	0
2	26065	20915.040831027203	1
2	26067	20915.638579903197	2
2	26068	20916.043910533758	1
2	26071	20916.945170084024	0
2	26075	20917.5530055821	1
2	26076	20917.759438160723	0
2	26175	20997.705893567495	1
2	26176	20998.490289293597	0
2	26197	21004.09329954813	1
2	26198	21004.668307151428	0
2	26240	21038.683770204889	1
2	26241	21038.779458970351	0
2	26265	21055.938396887217	1
2	26266	21056.529713876805	0
2	26277	21058.004411571037	1
2	26278	21058.550078054311	0
2	26282	21059.317794773137	1
2	26283	21059.580959642099	0
2	26300	21078.643762009181	1
2	26301	21079.289952376519	0
2	26345	21101.3737934757	1
2	26346	21102.120013536273	0
2	26370	21124.507360895262	1
2	26371	21124.537174288792	0
2	26390	21137.039621428262	1
2	26391	21137.666698463873	0
2	26405	21145.842837988653	1
2	26407	21146.472619189622	2
2	26408	21146.816462533854	1
2	26411	21147.807388311371	0
2	26495	21219.315532514117	1
2	26497	21219.778200864532	2
2	26498	21219.862425149159	1
2	26501	21220.701711975151	0
2	26505	21221.448577292773	1
2	26506	21221.538759282437	0
2	26512	21221.594468149767	1
2	26513	21222.342928323448	0
2	26525	21224.42646964426	1
2	26526	21225.101682408172	0
2	26550	21236.371109633357	1
2	26551	21237.288769853889	0
2	26575	21256.599794073628	1
2	26576	21257.603290411517	0
2	26605	21292.94878861818	1
2	26606	21293.481098802343	0
2	26630	21316.858038772134	1
2	26631	21317.851068733386	0
2	26635	21318.267180103004	1
2	26636	21319.024641093551	0
2	26745	21412.959203130827	1
2	26746	21413.131053831172	0
2	26750	21413.721307563696	1
2	26751	21413.988205857691	0
2	26840	21535.098777623833	1
2	26843	21535.787298682906	0
2	26855	21540.767430903312	1
2	26856	21541.41927675783	0
2	26885	21559.894257642	1
2	26888	21560.58371691144	0
2	26894	21560.876954440736	1
2	26895	21561.597781135784	0
2	26925	21593.78616168183	1
2	26926	21594.008339610701	0
2	26947	21600.080801600183	1
2	26948	21600.082965402354	0
2	26952	21600.086950132032	1
2	26954	21600.527092817459	2
2	26955	21600.948540433545	1
2	26958	21601.906059134614	0
2	27030	21690.284814822462	1
2	27031	21690.684882919593	0
2	27035	21691.139332398106	1
2	27036	21691.517526945761	0
2	27065	21713.610815061398	1
2	27066	21713.653948857327	0
2	27115	21743.731900760956	1
2	27116	21744.658225762876	0
2	27120	21744.819972465554	1
2	27121	21745.57656886972	0
2	27125	21745.811623189155	1
2	27126	21746.471491845357	0
2	27150	21771.66909213135	1
2	27151	21771.822122816233	0
2	27165	21785.937747980919	1
2	27166	21786.074813511495	0
2	27175	21787.860824802719	1
2	27176	21787.964796984747	0
2	27180	21788.484968365536	1
2	27181	21789.039453646067	0
2	27200	21801.861119248427	1
2	27201	21802.854674968303	0
2	27215	21810.734189361487	1
2	27216	21811.157988020466	0
2	27230	21831.965676705099	1
2	27231	21832.153599891998	0
2	27237	21832.711939207187	1
2	27238	21833.063080138434	0
2	27275	21869.157317044124	1
2	27276	21869.979656255646	0
2	27295	21884.625609356671	1
2	27296	21885.311588691169	0
2	27305	21886.347797718998	1
2	27307	21886.377569777204	2
2	27308	21887.405709141859	1
2	27311	21888.246463009895	0
2	27330	21910.6933675661	1
2	27331	21911.566871785968	0
2	27345	21926.161587025298	1
2	27346	21926.24831668259	0
2	27470	22000.468678148016	1
2	27472	22000.917418370781	2
2	27473	22001.181790583718	1
2	27476	22002.103572190876	0
2	27480	22003.016443175327	1
2	27481	22003.281374012071	0
2	27485	22003.870397618746	1
2	27486	22004.234310520112	0
2	27490	22004.580816816314	1
2	27491	22005.34750912911	0
2	27530	22029.689777722096	1
2	27531	22030.267763717633	0
2	27565	22042.48255260442	1
2	27569	22043.105652021973	2
2	27570	22043.608739259215	1
2	27573	22044.521410025591	0
2	27590	22050.518769881873	1
2	27591	22051.392028380092	0
2	27655	22139.245761210575	1
2	27656	22139.697102640378	0
2	27710	22188.008936338837	1
2	27711	22188.036682696406	0
2	27730	22194.941710629845	1
2	27731	22195.552983423462	0
2	27865	22336.424928544094	1
2	27866	22336.666260660658	0
2	27982	22425.953089859016	1
2	27983	22426.274251260703	0
2	28005	22437.802228106459	1
2	28006	22438.304525583188	0
2	28015	22439.816742446219	1
2	28016	22440.107240889608	0
2	28155	22551.7141280644	1
2	28156	22552.363992358149	0
2	28160	22552.556593109187	1
2	28161	22553.384339501672	0
2	28220	22601.928633751992	1
2	28221	22602.344855974303	0
2	28255	22632.266736625027	1
2	28257	22632.946774980047	2
2	28258	22633.143697734184	1
2	28261	22634.241152996111	0
2	28290	22672.801886003076	1
2	28291	22672.927067281379	0
2	28405	22746.27284401306	1
2	28406	22746.975010427741	0
2	28435	22798.168618634745	1
2	28436	22798.318725248898	0
2	28440	22798.480218015513	1
2	28441	22799.446727686568	0
2	28465	22805.967014532392	1
2	28466	22806.875872686144	0
2	28470	22807.429506541379	1
2	28471	22808.027578625094	0
2	28490	22819.333696692167	1
2	28493	22820.389890930866	0
2	28540	22867.595803735677	1
2	28541	22868.346282020823	0
2	28570	22899.289643380826	1
2	28571	22899.755371644386	0
2	28615	22945.08523569341	1
2	28616	22945.284607404992	0
2	28620	22946.076663910416	1
2	28621	22946.106187183373	0
2	28635	22950.762226440539	1
2	28636	22951.363050360184	0
2	28680	22994.545465975621	1
2	28681	22995.369916370026	0
2	28685	22995.680294665032	1
2	28686	22996.191299760602	0
2	28690	22996.695679662464	1
2	28692	22996.730333186172	2
2	28694	22996.774172014304	3
2	28695	22997.121611595694	2
2	28698	22998.244693601113	1
2	28701	22999.055277445335	0
2	28775	23072.263851811962	1
2	28776	23073.139909462961	0
2	28825	23125.497872707565	1
2	28826	23125.626644856556	0
2	28870	23167.000453222935	1
2	28871	23167.721766808471	0
2	28915	23194.256949637647	1
2	28917	23194.689788366406	2
2	28918	23195.059435263174	1
2	28921	23196.085664500939	0
2	28925	23196.458188004347	1
2	28926	23196.925464322036	0
2	28955	23221.094987067618	1
2	28956	23221.922901516961	0
2	28990	23244.238367122462	1
2	28991	23245.011388599582	0
2	29005	23251.946212348774	1
2	29006	23252.127747617793	0
2	29030	23278.529560286659	1
2	29031	23278.692327402953	0
2	29040	23283.168101762568	1
2	29041	23283.923744857645	0
2	29080	23318.213104121067	1
2	29081	23318.916699392776	0
2	29085	23319.113131335105	1
2	29086	23320.044403833299	0
2	29120	23346.642913444726	1
2	29122	23346.753012735229	2
2	29123	23347.549058305912	1
2	29127	23347.90250505833	2
2	29130	23348.63657181428	1
2	29134	23348.693005047953	2
2	29135	23349.59179123088	1
2	29138	23350.409851236522	0
2	29170	23370.238822315846	1
2	29171	23371.054368458287	0
2	29205	23393.936376710679	1
2	29207	23394.148330214988	2
2	29208	23394.349484510979	1
2	29211	23395.421915492768	0
2	29215	23395.75723424563	1
2	29216	23396.580171170718	0
2	29265	23436.161795555462	1
2	29269	23436.785474054557	2
2	29270	23436.936227172475	1
2	29273	23438.027134389199	0
2	29280	23439.107323883904	1
2	29284	23440.090793695715	2
2	29285	23440.120356367484	1
2	29288	23441.00282343901	0
2	29297	23442.076299232021	1
2	29298	23442.722708100408	0
2	29325	23450.861000425624	1
2	29327	23451.309230622875	2
2	29328	23451.482496210411	1
2	29331	23452.386295411028	0
2	29335	23452.686075181738	1
2	29336	23453.396232716683	0
2	29375	23475.452280868327	1
2	29376	23475.743425570416	0
2	29575	23677.14314219392	1
2	29576	23677.160051476206	0
2	29645	23730.300373735424	1
2	29646	23730.627285799107	0
2	29720	23818.00872321581	1
2	29721	23818.519730230177	0
2	29895	24014.983265210268	1
2	29896	24016.059249485471	0
2	29915	24029.291293138421	1
2	29916	24029.34536870474	0
2	30050	24173.014768813677	1
2	30051	24173.58097448829	0
2	30075	24197.628022946805	1
2	30076	24198.657647593817	0
2	30090	24209.430522021374	1
2	30093	24210.186092372687	0
2	30105	24217.009603957628	1
2	30106	24217.54632912092	0
2	30235	24340.406690919262	1
2	30236	24341.336329830231	0
2	30252	24343.79517736675	1
2	30253	24344.653154621735	0
2	30257	24345.348063456556	1
2	30260	24345.67098986208	0
2	30264	24345.757157240934	1
2	30265	24346.539598725639	0
2	30274	24348.303814788063	1
2	30275	24348.34520045267	0
2	30282	24349.83669139377	1
2	30283	24350.429095791276	0
2	30390	24441.03223467127	1
2	30391	24442.039192503861	0
2	30400	24447.663008998128	1
2	30401	24448.229143231749	0
2	30405	24448.507646466429	1
2	30406	24449.383047556798	0
2	30410	24450.11441226078	1
2	30411	24450.432277235403	0
2	30440	24466.942489464831	1
2	30441	24467.607942817066	0
2	30460	24482.236354443906	1
2	30461	24482.80735574852	0
2	30475	24511.298449753249	1
2	30478	24511.964092874413	0
2	30500	24528.80494826065	1
2	30501	24529.134278495337	0
2	30695	24694.056433949058	1
2	30696	24695.045933633161	0
2	30765	24769.847550445115	1
2	30766	24770.069950364723	0
2	30770	24770.676061484221	1
2	30771	24771.120114936314	0
2	30875	24863.854147253632	1
2	30876	24864.362384523515	0
2	30892	24885.798726240119	1
2	30893	24886.286552308723	0
2	30920	24897.588078651484	1
2	30921	24898.34762460059	0
2	30925	24898.42176151056	1
2	30926	24899.18084908715	0
2	30960	24935.667795839914	1
2	30961	24936.390203660921	0
2	31080	25013.955559116954	1
2	31081	25014.813952687677	0
2	31087	25015.056855795275	1
2	31088	25015.631672428284	0
2	31115	25033.133269444099	1
2	31116	25033.654534290167	0
2	31130	25037.984120865857	1
2	31131	25038.406260583966	0
2	31200	25127.833911094201	1
2	31201	25128.383976332805	0
2	31220	25149.216105200381	1
2	31221	25149.520260631289	0
2	31295	25221.260797129305	1
2	31298	25221.969293655399	0
2	31345	25254.835548827939	1
2	31346	25254.839450940375	0
2	31415	25321.751880911337	1
2	31416	25322.547062768138	0
2	31435	25335.59304371349	1
2	31436	25335.595318936316	0
2	31520	25426.677581343931	1
2	31523	25427.472543975213	0
2	31540	25436.590878289424	1
2	31541	25437.233231900353	0
2	31560	25458.799515890789	1
2	31561	25459.156348985647	0
2	31620	25511.269599769728	1
2	31622	25511.340304145331	2
2	31623	25511.535911194827	1
2	31627	25512.270095915082	2
2	31628	25512.647822900429	1
2	31633	25513.551637760676	0
2	31640	25514.777393377411	1
2	31641	25515.337003211524	0
2	31760	25642.545228078193	1
2	31761	25643.150417028025	0
2	31820	25671.512494335179	1
2	31821	25672.285462305012	0
2	31825	25672.629211267433	1
2	31826	25673.093330258286	0
2	31845	25686.766909354424	1
2	31846	25687.740419129254	0
2	31855	25692.424990107401	1
2	31856	25692.879624851827	0
2	31917	25718.089320720727	1
2	31918	25718.374412177014	0
2	31930	25734.009920094903	1
2	31931	25734.704410586391	0
2	32000	25778.192097157692	1
2	32001	25778.234677712882	0
2	32012	25779.893889717906	1
2	32013	25780.22188685721	0
2	32070	25870.467356337981	1
2	32071	25871.005603891467	0
2	32090	25877.109664933744	1
2	32091	25877.928566904045	0
2	32100	25881.821589944189	1
2	32101	25882.162665033467	0
2	32160	25936.462236440926	1
2	32161	25937.453894010465	0
2	32165	25937.773403769275	1
2	32166	25938.464481010101	0
2	32170	25938.756443778049	1
2	32171	25939.578583045862	0
2	32200	25950.009413084157	1
2	32201	25950.172928707265	0
2	32215	25975.897095693629	1
2	32216	25976.059453944319	0
2	32220	25976.989449205693	1
2	32221	25977.187443331924	0
2	32250	26003.281157608759	1
2	32251	26004.14529083304	0
2	32265	26007.968148348838	1
2	32266	26008.091276063117	0
2	32270	26008.260109859157	1
2	32271	26009.196503544318	0
2	32320	26053.413316998483	1
2	32321	26053.446934995337	0
2	32385	26084.906014702623	1
2	32386	26085.172532919804	0
2	32405	26100.987705633904	1
2	32407	26101.648965022435	2
2	32408	26101.948773488588	1
2	32411	26103.031892031244	0
2	32415	26103.873543775497	1
2	32417	26104.119152521234	2
2	32418	26104.168472154903	1
2	32421	26105.012145407404	0
2	32460	26125.244096486649	1
2	32463	26125.920117430302	0
2	32485	26141.963325848749	1
2	32486	26142.300105320725	0
2	32490	26143.178175792291	1
2	32491	26143.308379741541	0
2	32500	26145.102540022525	1
2	32501	26145.781357085419	0
2	32510	26156.852141589078	1
2	32511	26157.456479344635	0
2	32552	26218.563722290165	1
2	32553	26218.825119531178	0
2	32625	26274.424386760687	1
2	32626	26275.098060156115	0
2	32630	26275.130125579328	1
2	32631	26276.216440934677	0
2	32670	26309.786668862028	1
2	32671	26310.673367239562	0
2	32695	26317.819793064053	1
2	32696	26318.031029924637	0
2	32737	26343.809410052756	1
2	32738	26344.075734350602	0
2	32780	26388.994364023572	1
2	32781	26389.252168801299	0
2	32820	26411.343074937075	1
2	32821	26411.536991780179	0
2	32905	26451.386000254937	1
2	32906	26451.778556564593	0
2	32960	26473.86975699734	1
2	32961	26474.340559436596	0
2	32995	26495.245837193239	1
2	32996	26495.412037946322	0
2	33040	26528.410195606491	1
2	33041	26528.988000122603	0
2	33045	26529.676581152843	1
2	33047	26529.81264581515	2
2	33048	26529.961089858558	1
2	33052	26530.699100400746	2
2	33053	26530.869554464757	1
2	33056	26531.876934150379	0
2	33090	26601.677746203272	1
2	33091	26602.696441513095	0
2	33235	26763.287510742495	1
2	33236	26764.043157550574	0
2	33315	26824.715655091751	1
2	33316	26824.938102644835	0
2	33330	26830.121732388448	1
2	33331	26830.90653681081	0
2	33395	26908.01055096476	1
2	33396	26908.215085858063	0
2	33467	26959.772873703585	1
2	33468	26959.800029024961	0
2	33510	26988.992144276639	1
2	33511	26989.224321882315	0
2	33585	27074.086748973242	1
2	33586	27074.557895915233	0
2	33595	27077.975034415504	1
2	33596	27078.681252135497	0
2	33605	27088.806395026439	1
2	33606	27089.658134382581	0
2	33620	27097.535507670461	1
2	33621	27097.797296060865	0
2	33625	27097.901561307	1
2	33626	27098.728374475763	0
2	33695	27177.594144237114	1
2	33696	27177.770687301732	0
2	33700	27177.926511220905	1
2	33702	27178.28467643191	2
2	33703	27178.616492372095	1
2	33706	27179.724941984653	0
2	33712	27180.429727027002	1
2	33713	27180.641500940915	0
2	33725	27194.902797554056	1
2	33726	27195.255239206946	0
2	33735	27205.214329374835	1
2	33736	27205.2310752995	0
2	33810	27263.952666484935	1
2	33811	27264.884528112256	0
2	33837	27287.863998185903	1
2	33838	27288.402567033863	0
2	33842	27288.49743387234	1
2	33843	27289.439969902506	0
2	33847	27289.995539164965	1
2	33848	27290.4223107381	0
2	33860	27293.197326727308	1
2	33861	27293.638833423754	0
2	33885	27320.491381462859	1
2	33886	27320.794055135467	0
2	33890	27321.455937807018	1
2	33891	27321.690984615882	0
2	33925	27333.323286223674	1
2	33926	27333.468078212924	0
2	33952	27338.09019050598	1
2	33953	27338.42620663145	0
2	33957	27338.428573226374	1
2	33958	27339.284498392934	0
2	34010	27366.246332269713	1
2	34011	27367.158517808866	0
2	34085	27421.064131693561	1
2	34086	27421.748179562715	0
2	34125	27454.441012765025	1
2	34126	27455.286047679794	0
2	34130	27455.603773820652	1
2	34131	27456.236509391529	0
2	34150	27460.927151433262	1
2	34152	27461.357768339268	2
2	34153	27461.518918434707	1
2	34158	27462.532234763903	0
2	34165	27464.322562003205	1
2	34166	27464.510840540462	0
2	34170	27465.176181430491	1
2	34171	27465.393392984466	0
2	34175	27466.441787790269	1
2	34176	27466.590891027906	0
2	34185	27468.170928876639	1
2	34186	27468.808449727747	0
2	34190	27469.316075317873	1
2	34191	27469.881758964419	0
2	34205	27483.171613297406	1
2	34206	27484.067802311065	0
2	34215	27489.615189236697	1
2	34216	27489.987098080523	0
2	34225	27491.324467793111	1
2	34226	27492.180474731743	0
2	34245	27517.720020964856	1
2	34246	27518.05540283734	0
2	34335	27598.666002323297	1
2	34336	27598.692009876999	0
2	34340	27599.65452017261	1
2	34341	27599.726729291263	0
2	34350	27601.134347282207	1
2	34352	27601.860401116169	2
2	34353	27602.109763909197	1
2	34356	27602.958983786749	0
2	34370	27609.529479676824	1
2	34371	27609.690195764105	0
2	34395	27632.117541636798	1
2	34396	27632.57523469459	0
2	34400	27632.601876739294	1
2	34401	27633.77356877513	0
2	34405	27634.084427880597	1
2	34406	27634.88232684517	0
2	34415	27635.961850852374	1
2	34416	27636.814819348508	0
2	34490	27676.178514471176	1
2	34491	27676.820672152861	0
2	34735	27928.420953838492	1
2	34736	27929.330990408575	0
2	34770	27952.298144687601	1
2	34771	27952.606173016155	0
2	34800	27978.615617842597	1
2	34801	27979.688410037799	0
2	34810	27982.063144253289	1
2	34811	27982.484942368629	0
2	34830	27988.346034766136	1
2	34832	27989.066010046812	2
2	34833	27989.073971597426	1
2	34836	27989.958162466944	0
2	34865	28010.801288762359	1
2	34866	28011.112322602382	0
2	34890	28028.870656874465	1
2	34891	28029.317785275875	0
2	34930	28053.621088718177	1
2	34931	28054.553364068019	0
2	34935	28054.849715925401	1
2	34936	28055.524510298232	0
2	34995	28093.537472137915	1
2	34996	28093.792424389371	0
2	35005	28095.210121324743	1
2	35006	28096.082437984518	0
2	35055	28132.883773940336	1
2	35056	28132.889545494657	0
2	35090	28150.553998096277	1
2	35091	28151.473555047485	0
2	35100	28157.253689855219	1
2	35101	28158.111381237323	0
2	35110	28162.278571106361	1
2	35111	28163.148525831056	0
2	35260	28286.647442366899	1
2	35261	28286.745532258799	0
2	35355	28369.21884321864	1
2	35356	28370.018240290538	0
2	35360	28370.022060573343	1
2	35361	28370.936389760238	0
2	35425	28432.902433873935	1
2	35426	28433.357008598334	0
2	35435	28442.422771237113	1
2	35437	28442.543062608886	2
2	35438	28442.851274175032	1
2	35442	28443.77435356436	2
2	35443	28443.857959231849	1
2	35446	28444.697190609782	0
2	35470	28470.20517613455	1
2	35471	28470.461016422166	0
2	35475	28470.750033118044	1
2	35476	28471.578708341839	0
2	35565	28534.057937221786	1
2	35566	28534.153247106874	0
2	35605	28565.155740971216	1
2	35606	28566.283656836764	0
2	35620	28581.2575025876	1
2	35621	28581.32530379368	0
2	35665	28625.912016679825	1
2	35666	28626.25624611035	0
2	35675	28629.605139276077	1
2	35676	28630.014602490588	0
2	35805	28778.071065880361	1
2	35806	28778.402808914817	0
2	35835	28792.095718531902	1
2	35836	28792.516563266736	0
2	35855	28799.734344775867	1
2	35856	28800.160161024406	0
2	35870	28803.357271122732	1
2	35871	28804.417969393412	0
2	35920	28835.752863227057	1
2	35921	28835.803287745845	0
2	36075	28994.18182573724	1
2	36076	28994.550637695685	0
2	36140	29028.484747394492	1
2	36141	29028.543593004564	0
2	36145	29029.551890274559	1
2	36146	29029.681055432124	0
2	36187	29070.673230127368	1
2	36188	29071.438609164508	0
2	36197	29073.390218551619	1
2	36198	29073.473417902013	0
2	36345	29184.763339964677	1
2	36346	29185.821755248048	0
2	36380	29201.181042461569	1
2	36381	29202.149360773787	0
2	36385	29202.409647617585	1
2	36386	29203.192957374156	0
2	36390	29203.96681508576	1
2	36391	29203.997873330936	0
2	36395	29204.223723700856	1
2	36396	29204.839938945398	0
2	36560	29330.485586817379	1
2	36561	29330.710025154697	0
2	36565	29330.992315995235	1
2	36568	29331.660885320967	0
2	36585	29339.223196770478	1
2	36587	29339.689782010338	2
2	36588	29340.060411010751	1
2	36591	29341.255952406371	0
2	36605	29343.897621132337	1
2	36606	29344.686015514296	0
2	36665	29378.287428179641	1
2	36666	29378.902440799821	0
2	36680	29392.583402016337	1
2	36681	29392.893008081367	0
2	36725	29436.427211511568	1
2	36726	29437.409037815	0
2	36775	29495.934164423899	1
2	36776	29496.719863573601	0
2	36825	29551.321141148663	1
2	36826	29551.474629717238	0
2	36835	29552.723353800677	1
2	36836	29553.807309655555	0
2	36850	29556.771594893403	1
2	36851	29557.21622200424	0
2	36865	29577.132067612724	1
2	36866	29577.486863300358	0
2	36870	29578.219722619404	1
2	36871	29578.34175560052	0
2	36880	29580.495915701685	1
2	36881	29580.841416258146	0
2	37110	29766.804395679498	1
2	37111	29767.474194381229	0
2	37120	29768.65819405193	1
2	37121	29769.613621331791	0
2	37345	29951.666127018862	1
2	37346	29952.5601471172	0
3	0	0	0
3	20	19.4558055963	1
3	21	20.424240837228	0
3	25	20.710315245934	1
3	27	21.271242593783	2
3	28	21.32420044018	1
3	32	21.692270086446	2
3	33	22.325007329956	1
3	36	23.345360436086	0
3	132	114.29212908987	1
3	146	117.503021466428	0
3	155	119.323854994399	1
3	156	120.011429432325	0
3	275	225.144220758495	1
3	276	225.786606171978	0
3	280	226.351273678873	1
3	281	226.835254305759	0
3	295	240.09153984877	1
3	296	240.768256495117	0
3	310	244.792868754591	1
3	311	245.686868334184	0
3	315	245.949531680061	1
3	316	246.570866627241	0
3	425	363.643306054797	1
3	426	364.494063467342	0
3	440	385.831853986155	1
3	441	385.964009031378	0
3	445	386.183298404259	1
3	446	386.76555352854	0
3	475	406.658109719641	1
3	476	407.165938869223	0
3	485	408.302058251027	1
3	486	409.014646527089	0
3	530	432.432285358501	1
3	531	432.84355231455	0
3	615	553.898021430494	1
3	621	555.066877651221	0
3	767	726.670737358941	1
3	772	727.203310673088	2
3	773	727.677462023862	1
3	776	728.4944157659	0
3	850	763.662548119701	1
3	851	763.963771568656	0
3	855	764.00543292095	1
3	856	764.949691757511	0
3	885	791.907613566871	1
3	886	792.315877875867	0
3	960	847.111226736019	1
3	961	847.846443110849	0
3	1085	1018.406738123247	1
3	1086	1018.488395460133	0
3	1100	1027.162516888974	1
3	1101	1027.883388054937	0
3	1105	1028.386136270538	1
3	1106	1028.83381038076	0
3	1140	1071.916460514489	1
3	1141	1072.381512147452	0
3	1150	1074.186805425631	1
3	1151	1074.681570710901	0
3	1215	1133.649334063102	1
3	1216	1134.662516706773	0
3	1410	1241.872272164106	1
3	1411	1242.643998479363	0
3	1465	1280.910866257631	1
3	1466	1281.262052926641	0
3	1665	1403.074819603197	1
3	1666	1403.181035123215	0
3	1690	1407.541073202098	1
3	1691	1407.907220615949	0
3	1822	1513.468790632672	1
3	1826	1514.563622949469	0
3	1855	1545.209574317441	1
3	1856	1546.087629954447	0
3	1875	1568.937475190305	1
3	1876	1569.439762424021	0
3	1960	1654.018982831195	1
3	1961	1654.161176104288	0
3	1965	1654.607028065558	1
3	1966	1654.964941788934	0
3	2025	1689.312509682858	1
3	2026	1689.728957979387	0
3	2040	1692.116202835295	1
3	2041	1693.160106752909	0
3	2085	1710.99756052444	1
3	2086	1711.104258293101	0
3	2095	1714.143050500237	1
3	2096	1714.607648308345	0
3	2155	1768.123018582224	1
3	2156	1768.780868732922	0
3	2210	1836.458362318997	1
3	2211	1837.124958197527	0
3	2265	1884.558432681216	1
3	2266	1885.613288484725	0
3	2350	1985.150147451848	1
3	2351	1985.576810151813	0
3	2355	1986.08511874634	1
3	2356	1986.677310160463	0
3	2365	1988.633747040193	1
3	2381	1991.927149779079	0
3	2515	2124.232426882587	1
3	2516	2124.554821859587	0
3	2555	2145.432005787354	1
3	2556	2145.893526115147	0
3	2652	2236.85361645372	1
3	2661	2239.72484603591	0
3	2670	2241.064551421786	1
3	2671	2241.971320522755	0
3	2710	2252.594982004156	1
3	2711	2253.182648713292	0
3	2760	2309.689563559989	1
3	2761	2310.019609960788	0
3	3020	2545.261393697928	1
3	3021	2545.417336846683	0
3	3070	2590.87822743322	1
3	3071	2591.632188493523	0
3	3080	2593.223036056405	1
3	3081	2593.491188276045	0
3	3167	2694.157350040956	1
3	3171	2695.533352122625	0
3	3185	2706.0364026227	1
3	3186	2706.33498784283	0
3	3195	2713.657874797526	1
3	3196	2714.437196867188	0
3	3225	2732.580718760162	1
3	3227	2732.95818414111	2
3	3228	2733.465332789595	1
3	3231	2734.458737903057	0
3	3240	2735.936143056388	1
3	3241	2736.350780903982	0
3	3285	2773.84846433659	1
3	3286	2774.261585261409	0
3	3315	2798.209816925437	1
3	3316	2798.953940158093	0
3	3355	2821.749873091504	1
3	3356	2821.977479770752	0
3	3365	2823.053455523855	1
3	3366	2823.785757346331	0
3	3475	2945.416082793851	1
3	3476	2946.015457649954	0
3	3510	2975.54811068319	1
3	3511	2975.90938377658	0
3	3535	2991.449685662352	1
3	3536	2992.10615899948	0
3	3725	3176.648449948706	1
3	3726	3177.011898925825	0
3	3760	3200.801887627873	1
3	3761	3201.618891123565	0
3	3790	3214.021944810316	1
3	3791	3214.898237989254	0
3	3800	3216.650808336831	1
3	3801	3217.145834123363	0
3	3825	3243.954512007144	1
3	3826	3244.918980329007	0
3	3880	3286.042550284761	1
3	3881	3286.537376462384	0
3	3885	3287.017195552359	1
3	3886	3287.564433742962	0
3	3945	3346.55574983079	1
3	3946	3347.179112994623	0
3	4035	3414.753879970018	1
3	4036	3415.576853831931	0
3	4055	3426.750068839287	1
3	4056	3427.096671659324	0
3	4100	3453.118533239969	1
3	4101	3453.635340505187	0
3	4105	3453.917143347733	1
3	4112	3454.730516710665	2
3	4113	3455.634715212696	1
3	4116	3456.659288084321	0
3	4140	3467.796341914955	1
3	4141	3468.876086425556	0
3	4220	3518.305130883128	1
3	4221	3519.060757791024	0
3	4245	3528.818549927229	1
3	4246	3528.919340594828	0
3	4250	3529.199695016643	1
3	4256	3530.839084516343	0
3	4260	3531.387166037185	1
3	4261	3531.654157592792	0
3	4265	3532.112561245345	1
3	4266	3532.814495721523	0
3	4355	3616.456927973745	1
3	4356	3617.056792518335	0
3	4385	3625.855494646971	1
3	4386	3626.403442648407	0
3	4405	3631.85729611263	1
3	4406	3632.514439307045	0
3	4445	3666.417701282248	1
3	4446	3666.536648580529	0
3	4460	3696.579415035006	1
3	4461	3697.474644581024	0
3	4605	3795.192832075379	1
3	4611	3796.651105042233	0
3	4805	3935.918653614134	1
3	4806	3936.659535460104	0
3	4835	3952.187954024976	1
3	4836	3952.838136610853	0
3	4915	4052.922172136374	1
3	4916	4052.990226778213	0
3	4930	4062.078846538239	1
3	4931	4062.416021493212	0
3	4960	4088.081105314232	1
3	4961	4088.229037440826	0
3	4980	4093.770086327086	1
3	4981	4094.101420531208	0
3	4995	4100.023165079688	1
3	4996	4100.663007080855	0
3	5010	4109.819077789337	1
3	5017	4110.458628677171	2
3	5018	4111.119918963112	1
3	5022	4112.144678832799	2
3	5023	4112.288857867833	1
3	5027	4112.500395274224	2
3	5028	4113.415799974635	1
3	5031	4114.26408644643	0
3	5065	4142.381917357612	1
3	5066	4142.617855361606	0
3	5125	4193.871901638188	1
3	5126	4194.082395432744	0
3	5160	4212.386279278616	1
3	5161	4213.137081866117	0
3	5165	4213.241214736468	1
3	5166	4214.335706552734	0
3	5170	4214.496508312283	1
3	5171	4215.325968861916	0
3	5175	4216.273566790437	1
3	5176	4216.4556537788	0
3	5280	4311.446464924038	1
3	5281	4312.503739341195	0
3	5335	4347.172572885796	1
3	5336	4347.994145867984	0
3	5360	4364.826623540119	1
3	5361	4365.523179513701	0
3	5387	4387.006966621721	1
3	5391	4388.255704987946	0
3	5610	4562.58072224593	1
3	5611	4562.643409618078	0
3	5650	4586.088955848371	1
3	5651	4587.258846566307	0
3	5655	4587.765839220374	1
3	5656	4588.253182705438	0
3	5660	4589.087813092365	1
3	5661	4589.20054879118	0
3	5680	4607.547310056158	1
3	5681	4608.215520023917	0
3	5710	4635.488405948934	1
3	5711	4635.493644478827	0
3	5735	4646.624160091475	1
3	5736	4646.713117279025	0
3	5935	4788.739530132679	1
3	5936	4789.513565939301	0
3	5985	4826.484982462847	1
3	5986	4827.20514326125	0
3	6045	4871.131970390791	1
3	6046	4871.642269348334	0
3	6205	4977.924130050318	1
3	6206	4978.521391832101	0
3	6215	4981.457220945742	1
3	6216	4982.139207539065	0
3	6252	5013.613014767577	1
3	6256	5015.159867636697	0
3	6280	5033.917554265895	1
3	6281	5034.839349465216	0
3	6285	5034.979861091399	1
3	6294	5035.939749855292	2
3	6298	5037.609626956707	1
3	6301	5038.772012050314	0
3	6310	5039.971494621134	1
3	6316	5041.710334958735	0
3	6345	5073.891265551696	1
3	6346	5074.229669636408	0
3	6365	5078.535430546711	1
3	6366	5079.500207991671	0
3	6380	5081.942143107061	1
3	6381	5082.400689320877	0
3	6520	5231.688585528778	1
3	6521	5232.200657152079	0
3	6545	5265.684112198552	1
3	6546	5265.705059137232	0
3	6740	5436.786415946945	1
3	6741	5437.038606261291	0
3	6810	5507.417912433947	1
3	6811	5508.321815138881	0
3	6960	5664.582032577993	1
3	6961	5664.646971081636	0
3	7015	5698.394474980482	1
3	7016	5698.469132814655	0
3	7025	5699.697749046801	1
3	7026	5700.638783478463	0
3	7100	5784.525510904432	1
3	7101	5785.007928948559	0
3	7130	5808.364038025838	1
3	7131	5809.078748749106	0
3	7190	5840.110769891509	1
3	7191	5840.922355756506	0
3	7272	5880.18741147922	1
3	7276	5882.083431459426	0
3	7342	5938.062133080249	1
3	7346	5939.367309863424	0
3	7370	5954.823502155973	1
3	7371	5955.579864548197	0
3	7375	5956.336304659063	1
3	7376	5956.769524553841	0
3	7425	6017.216930975815	1
3	7426	6018.299980736691	0
3	7460	6052.854018742348	1
3	7461	6053.088814723036	0
3	7480	6060.177342811209	1
3	7481	6060.910215060514	0
3	7485	6061.036082051055	1
3	7486	6061.788925900598	0
3	7490	6062.547300506959	1
3	7496	6063.703226322037	0
3	7505	6066.238018205064	1
3	7506	6066.357468798345	0
3	7540	6092.037715025232	1
3	7541	6092.740772968877	0
3	7615	6170.35851987809	1
3	7616	6170.809137179526	0
3	7760	6288.874718602098	1
3	7761	6289.384342938985	0
3	7770	6290.969861443636	1
3	7771	6291.445745717312	0
3	7835	6351.347044288155	1
3	7836	6351.696701558695	0
3	7885	6380.043429348658	1
3	7886	6380.472256729225	0
3	7940	6432.186152988086	1
3	7941	6433.014860645911	0
3	8000	6458.603498589277	1
3	8002	6459.082814160057	2
3	8003	6459.538816842044	1
3	8006	6460.351177224869	0
3	8020	6477.219787822654	1
3	8021	6477.380491487146	0
3	8027	6478.265316197672	1
3	8031	6479.411725091306	0
3	8055	6487.606236283541	1
3	8056	6488.305072213642	0
3	8060	6489.331884526752	1
3	8061	6489.448743462216	0
3	8140	6540.589037048158	1
3	8146	6542.245444741588	0
3	8195	6583.867947380344	1
3	8196	6583.901182374596	0
3	8210	6589.390660041634	1
3	8211	6589.736228974782	0
3	8260	6617.465282486697	1
3	8261	6618.412884116196	0
3	8275	6629.677951526628	1
3	8276	6630.308919919945	0
3	8290	6637.155240446527	1
3	8291	6637.691135408215	0
3	8412	6728.125908120468	1
3	8416	6729.275215005825	0
3	8480	6804.738684824329	1
3	8482	6804.85069771936	2
3	8483	6804.949206907681	1
3	8486	6806.058201204992	0
3	8535	6858.950269136982	1
3	8536	6859.958218337616	0
3	8555	6865.767742940903	1
3	8556	6865.967747964537	0
3	8565	6867.248985497723	1
3	8566	6867.84219424968	0
3	8670	6948.376740679642	1
3	8671	6949.043195040489	0
3	8850	7094.99477887954	1
3	8856	7096.347966220399	0
3	8915	7124.343054424522	1
3	8916	7124.723561230116	0
3	8925	7126.452192095909	1
3	8926	7126.966292461101	0
3	8970	7159.135008434126	1
3	8971	7159.451928513137	0
3	9005	7180.708230717354	1
3	9006	7180.948290548586	0
3	9045	7213.274680766539	1
3	9046	7214.281208647293	0
3	9075	7247.248046572712	1
3	9076	7247.953802552287	0
3	9205	7331.145154405738	1
3	9206	7331.875598922073	0
3	9229	7335.066698834412	1
3	9241	7338.580772791851	0
3	9280	7384.88425892387	1
3	9281	7385.738618271218	0
3	9315	7421.125592277061	1
3	9316	7421.391147237793	0
3	9515	7584.258400094764	1
3	9516	7584.603994514643	0
3	9530	7589.698297583663	1
3	9532	7590.510189004135	2
3	9533	7590.746139475445	1
3	9536	7591.798705962508	0
3	9545	7593.229619859397	1
3	9551	7595.049212535911	0
3	9590	7620.642498063876	1
3	9591	7621.6499183871	0
3	9605	7626.712762195995	1
3	9606	7626.783159433986	0
3	9750	7775.843714343136	1
3	9751	7776.541770464157	0
3	9900	7959.277781100641	1
3	9902	7959.639378392125	2
3	9903	7960.018880419469	1
3	9906	7961.056195544953	0
3	9910	7961.657095619614	1
3	9911	7962.099791230856	0
3	9915	7962.386799089784	1
3	9917	7962.682182289983	2
3	9918	7963.238051006886	1
3	9921	7964.213649201988	0
3	10045	8116.017651636057	1
3	10046	8116.089645696952	0
3	10050	8116.264137479903	1
3	10051	8116.900959653928	0
3	10060	8118.507126726256	1
3	10061	8118.873353064395	0
3	10075	8121.41444485043	1
3	10081	8123.10877243528	0
3	10157	8195.185188286483	1
3	10161	8196.164756067925	0
3	10295	8288.29266144023	1
3	10296	8288.606274640431	0
3	10312	8293.211536113456	1
3	10321	8295.203740811088	0
3	10352	8306.957077480907	1
3	10356	8308.541870255047	0
3	10505	8453.760701735545	1
3	10506	8453.876643468368	0
3	10535	8472.708823660695	1
3	10536	8473.078455898208	0
3	10587	8531.364085982209	1
3	10591	8532.924609025864	0
3	10635	8574.445442335063	1
3	10641	8576.424922630871	0
3	10735	8647.917058199225	1
3	10736	8649.072283848464	0
3	10865	8788.674081723177	1
3	10866	8788.692783123907	0
3	10905	8813.282248709804	1
3	10906	8813.418827938016	0
3	10930	8826.755819719884	1
3	10931	8827.543482758088	0
3	10935	8828.172080435901	1
3	10936	8828.504549293296	0
3	10955	8832.295946625173	1
3	10956	8833.352262614774	0
3	11195	9008.449928324872	1
3	11201	9009.951105003732	0
3	11222	9020.200064205902	1
3	11231	9022.955002671923	0
3	11325	9093.156248464017	1
3	11326	9094.094980896975	0
3	11400	9191.909166049436	1
3	11401	9192.561332131521	0
3	11412	9197.933460951225	1
3	11416	9199.069556500884	0
3	11435	9212.790091763378	1
3	11436	9212.889995108604	0
[...]
6	29795	23922.049120884675	0.819862110727
6	29800	23930.165612793896	0.818775725644
6	29810	23935.188691346002	0.897004561219
6	29820	23939.662168508046	3.180309437485
6	29830	23944.890541015739	1.181884017866
6	29837	23956.476404887059	1.060510927159
6	29840	23957.371680114598	1.229978717944
6	29850	23968.869266441551	1.136647641007
6	29860	23982.56569215025	1.087532035261
6	29865	23984.878062807511	0.821771502774
6	29880	23992.288267392078	0.845211514272
6	29885	24004.385055187702	1.167603789084
6	29897	24016.059249485471	3.325506731854
6	29910	24027.246089333853	0.840385922696
6	29917	24029.34536870474	1.038513904344
6	29930	24033.62294185971	0.917217784747
6	29940	24037.746229119375	1.681006888173
6	29945	24046.268313001813	0.901287984382
6	29970	24068.306596713704	0.81183397565
6	29980	24085.315642903615	0.926548985764
6	29985	24087.400938467945	0.991665364895
6	29997	24094.995780287255	0.920260730386
6	30000	24096.159201692176	1.604874944792
6	30012	24105.962789768157	1.502042711271
6	30025	24115.180695332475	9.859118788393
6	30030	24129.407496342942	1.116142868344
6	30040	24146.608465446691	0.92064560866
6	30045	24150.131400214177	1.179600889981
6	30052	24173.58097448829	0.998553398531
6	30065	24193.656014544224	0.948391639721
6	30070	24196.493901289585	0.909304921329
6	30094	24210.186092372687	0.988259302732
6	30100	24212.229637588729	2.574387297268
6	30107	24217.54632912092	0.975945240539
6	30120	24227.547009673722	1.04482011674
6	30125	24230.291620502598	1.087325689662
6	30135	24237.178266894541	0.839114980027
6	30170	24273.55908530237	1.080575799476
6	30175	24275.829284766875	0.810887571331
6	30187	24291.361430581976	1.177665319853
6	30190	24292.449920317754	1.501474459632
6	30195	24295.848444482414	1.070209984016
6	30205	24313.162277554474	2.079033508252
6	30215	24325.443021699146	0.876389053371
6	30225	24337.010887548969	0.971485210583
6	30249	24343.582839503228	1.076609171275
6	30284	24350.429095791276	7.095696713148
6	30292	24352.620655635554	4.985979321662
6	30295	24353.680254211459	15.505822776184
6	30315	24376.08395631453	1.123081314564
6	30320	24383.478981579792	1.19755489938
6	30380	24437.673196297023	2.712019184523
6	30425	24454.648369876033	0.859912612755
6	30485	24513.800538163426	1.955074993624
6	30495	24521.508917193355	3.117352256463
6	30510	24535.444742709013	1.181746682338
6	30530	24547.04402407425	5.853715360158
6	30545	24558.636725437552	1.198042506073
6	30555	24588.956694986722	1.054552759975
6	30560	24590.426009144592	1.079228952806
6	30605	24621.46743337388	6.668777044497
6	30615	24624.673085569096	2.691754722592
6	30630	24644.551780095027	1.786055787827
6	30645	24651.413060448212	1.556580204034
6	30660	24661.372402223121	1.003343274817
6	30705	24697.959306499142	0.835465072002
6	30740	24742.301087648884	3.699596383797
6	30790	24778.456180472094	1.561204875289
6	30800	24782.731004231063	0.987316393573
6	30815	24795.730717505289	0.847561923787
6	30825	24807.471469081675	0.984815625753
6	30870	24858.684978951346	1.207633489338
6	30877	24864.362384523515	7.488161824503
6	30885	24876.010945153192	0.88758394327
6	30900	24888.380457749627	2.93914251658
6	30905	24891.603003661677	1.066844533384
6	30914	24896.278785276417	1.131065686978
6	30917	24897.307902329978	1.93215798401
6	30935	24902.437831217723	6.589875108347
6	30950	24917.593081418857	0.946078095678
6	31005	24964.264663289888	0.974550183676
6	31012	24966.164697712015	0.987759096269
6	31015	24966.987395347848	1.316110289336
6	31027	24976.674331075231	0.896475614142
6	31030	24977.785405395924	1.716848964494
6	31035	24986.564188769045	0.952391311433
6	31045	24990.939333859367	1.168231567993
6	31070	25002.326247310977	3.944431278211
6	31075	25004.965713981968	0.851493322384
6	31095	25017.697471271936	2.703966059766
6	31100	25019.612883554526	0.946238416899
6	31110	25024.675206870693	1.134072075029
6	31125	25036.671890092055	1.172812235076
6	31160	25061.252659374165	2.562039919268
6	31165	25069.122969741438	1.108856500778
6	31170	25079.763463947064	0.97612827979
6	31180	25086.70137745248	2.373416916141
6	31185	25122.696182014596	1.058258919138
6	31215	25147.961236262376	0.871634782571
6	31235	25163.129676948793	2.886716660495
6	31265	25200.784086207842	0.8768516724
6	31277	25204.312840063006	1.613349873292
6	31280	25205.313456967354	2.776702944283
6	31305	25224.088211255837	2.191735141764
6	31325	25240.307068393151	0.91568768993
6	31355	25256.871531198245	3.207322469819
6	31360	25260.703548687519	1.111295821425
6	31375	25291.608083538286	1.160440460499
6	31385	25300.694217506484	3.435090047256
6	31390	25302.30437210778	0.801581170503
6	31395	25304.532136373074	0.846611722279
6	31447	25340.190095643252	0.847789189126
6	31450	25341.340976855364	1.726707441548
6	31470	25363.821722317872	0.984799001832
6	31480	25385.69239026402	1.186046500318
6	31492	25399.110793388716	0.814680807199
6	31497	25399.94255685386	1.372456000909
6	31500	25400.967923078302	1.493591021391
6	31515	25421.490298045517	0.929012562055
6	31530	25429.526669596383	2.443131460358
6	31535	25435.923517467205	0.922977104411
6	31542	25437.233231900353	0.863054865785
6	31555	25445.195929514735	0.998700675182
6	31590	25474.234797348987	0.865556242876
6	31595	25479.54179512376	0.996468598489
6	31600	25485.276813750146	0.908293219283
6	31615	25505.697367093932	1.02557945326
6	31624	25511.535911194827	0.812517703138
6	31642	25515.337003211524	2.659722103873
6	31665	25521.566040239124	1.074838643521
6	31670	25524.630885478587	8.310818791032
6	31680	25559.769540628174	1.099899529479
6	31695	25573.766686548285	2.20252480056
6	31700	25575.587690784955	1.168634369411
6	31715	25597.609552252291	0.961570268217
6	31725	25599.685629804938	0.923981214035
6	31740	25606.817512632908	4.059031784452
6	31745	25608.288850179745	1.182443743479
6	31755	25634.489125898269	1.054035986774
6	31775	25649.428824534625	1.169083215317
6	31810	25669.298266159311	0.917390739825
6	31835	25677.289801203642	1.069411820918
6	31840	25685.865200272767	0.969688057061
6	31865	25695.700066889012	0.91175279133
6	31887	25710.017503025614	1.870139254796
6	31905	25715.137587654184	5.638957899527
6	31925	25720.227568183164	2.175709838692
6	31940	25738.17531254514	4.530393186968
6	31950	25742.221647120685	2.388463364966
6	31955	25746.496847002584	1.18276312938
6	32022	25782.039428481537	2.845029951581
6	32025	25782.875536205324	5.53695886368
6	32102	25882.162665033467	1.044360117149
6	32110	25886.588382006086	0.994731502328
6	32125	25891.648540951476	1.96987384932
6	32137	25902.214745839897	1.397447637719
6	32140	25903.159882740609	1.043400403284
6	32145	25917.759648736223	1.122763904929
6	32155	25932.094309069434	1.120061665867
6	32217	25976.059453944319	1.094231832121
6	32230	25981.28350870148	0.81019221507
6	32267	26008.091276063117	6.395406848055
6	32280	26014.314314332986	0.973462592997
6	32300	26038.618092018052	4.384723472039
6	32310	26050.027582050603	0.958218666539
6	32322	26053.446934995337	0.835172452219
6	32340	26060.236227852684	1.038144317921
6	32350	26062.81756871967	1.391355514071
6	32370	26080.532902896848	0.946784575935
6	32375	26081.757775693764	0.996087686345
6	32470	26128.041597311484	2.648558638944
6	32487	26142.300105320725	0.960333188903
6	32512	26157.456479344635	0.961614133418
6	32520	26163.656587222086	0.931541840546
6	32540	26204.695393791361	1.086789031141
6	32560	26220.904037862387	2.596222553037
6	32570	26228.087770059135	1.843851479974
6	32575	26230.811300308298	0.90574409049
6	32582	26232.514340793409	1.164033587649
6	32585	26233.692026693348	1.681993872856
6	32590	26236.682168083663	1.06371947946
6	32600	26240.566473439173	3.311600957524
6	32615	26261.788112035398	0.890426294319
6	32620	26269.700558550435	0.805443622265
6	32640	26279.938163270849	1.182712368388
6	32650	26286.696418523094	1.597628086466
6	32672	26310.673367239562	1.048438162077
6	32697	26318.031029924637	1.154219240788
6	32730	26342.577765356928	0.836884728167
6	32745	26346.06931497944	2.525441979518
6	32782	26389.252168801299	1.791362634836
6	32790	26391.226168087462	1.482415447653
6	32800	26397.339727345909	2.295717394257
6	32822	26411.536991780179	2.001631418311
6	32830	26415.634720619552	1.002376373764
6	32840	26419.940532682459	1.20685830504
6	32850	26429.046846603098	1.130411760266
6	32860	26430.90739578076	1.399990367981
6	32890	26445.923145416292	7.996831149358
6	32907	26451.778556564593	0.9377850255
6	32940	26465.99807825479	5.224704827648
6	32962	26474.340559436596	1.170800017565
6	32975	26486.688325200798	2.138610267106
6	32985	26492.903286591633	1.100946977641
6	32997	26495.412037946322	1.974936044614
6	33015	26513.422799929277	0.863163566682
6	33035	26526.935626310004	7.600354620726
6	33085	26598.972502007788	0.95632234849
6	33100	26609.036727973542	0.882563604414
6	33105	26610.700837763795	0.846965974756
6	33145	26689.34079142389	1.036234698908
6	33160	26711.428049229757	0.948353008181
6	33165	26713.444403796477	1.047035684716
6	33170	26716.752507384805	1.080644705519
6	33205	26743.90058666646	4.061504695183
6	33225	26761.12879725751	0.936780674104
6	33237	26764.043157550574	0.880528742913
6	33255	26774.996799289892	1.067075795215
6	33260	26776.005514979366	0.884243510198
6	33285	26798.395633659714	0.858754838537
6	33300	26815.4266101935	1.036534670368
6	33317	26824.938102644835	3.424193484742
6	33345	26858.587232377983	0.957528582308
6	33350	26863.163353939323	1.038486146275
6	33365	26887.983293264499	0.905658432003
6	33375	26898.239880638124	1.067991188262
6	33385	26901.917531488444	3.617653341889
6	33397	26908.215085858063	4.896100935771
6	33405	26910.148343045128	1.123050277361
6	33422	26921.432172669421	1.025460250583
6	33435	26925.63148491333	4.28884308606
6	33469	26959.800029024961	3.231518585918
6	33475	26961.740863883695	2.695821984483
6	33490	26976.288686178097	2.211550773439
6	33495	26979.811325751089	0.876508410182
6	33500	26983.815268359523	1.198263476696
6	33525	27008.466070128612	0.888078193739
6	33530	27014.530960543967	1.00360038653
6	33535	27023.095935105579	1.125992340036
6	33550	27030.631123684547	5.116161019667
6	33565	27051.31508873643	0.965741563961
6	33580	27071.786150013115	1.166641420219
6	33650	27125.87920680864	0.815837102849
6	33660	27134.320283051511	0.840682601836
6	33665	27152.389945408791	0.914595553279
6	33670	27154.796608447465	1.151360121369
6	33675	27159.449482211216	0.880864276551
6	33720	27182.991500942964	6.382243070286
6	33737	27205.2310752995	1.131327088736
6	33765	27229.020126198789	1.857598602581
6	33770	27232.448195584577	1.095747242868
6	33780	27245.462118858315	0.888984850235
6	33795	27252.785572740925	1.133728664927
6	33825	27277.113884088275	1.005538662802
6	33839	27288.402567033863	1.747401794392
6	33870	27296.097298234611	8.310015902543
6	33875	27302.167783098713	0.834485290945
6	33880	27312.319709046773	0.929192547034
6	33915	27329.090632985679	1.017151954025
6	33946	27336.443357830452	1.801610891161
6	33949	27337.426583396694	2.602902360454
6	33954	27338.42620663145	7.083317541216
6	33965	27341.358412347039	5.62797812694
6	33980	27351.675281985369	0.940177229792
6	33990	27356.335925217722	2.548215823704
6	34005	27364.10864476287	1.061539295781
6	34025	27371.153678338489	2.061048353525
6	34030	27379.410762657513	0.96541619543
6	34060	27402.203325808657	3.274279697928
6	34070	27411.613671418696	3.470677284375
6	34080	27414.473685864531	1.773752683716
6	34087	27421.748179562715	0.813943020441
6	34095	27423.824888100427	1.831298515788
6	34110	27444.556437770995	1.018362975586
6	34142	27458.410382442226	1.724723236611
6	34167	27464.510840540462	6.502617307218
6	34200	27479.157778658017	1.024001242314
6	34207	27484.067802311065	0.932806622423
6	34227	27492.180474731743	1.225826715711
6	34260	27527.933388401208	1.006808109768
6	34295	27569.506628729938	1.420654094705
6	34315	27588.713272450891	4.136530036032
6	34320	27589.681886258833	0.844428222626
6	34330	27596.22860493814	1.194371130935
6	34372	27609.690195764105	1.052078508639
6	34430	27640.85991500801	5.604238784859
6	34455	27658.871467561596	2.217563312954
6	34525	27723.443827380569	1.121351198014
6	34545	27741.772649234133	1.030341002718
6	34555	27745.298198140658	1.014864817075
6	34560	27746.535621111265	1.002109105699
6	34570	27763.206962352766	1.160945542157
6	34575	27767.730372904088	1.178578921966
6	34595	27794.663206711386	5.979112958888
6	34600	27797.496877511403	1.088165220711
6	34607	27808.928623154999	0.967105868831
6	34610	27809.827831089643	1.389702491172
6	34615	27813.789784258197	1.137318901531
6	34620	27817.766278441666	1.104884745367
6	34640	27833.073522986909	0.882778108213
6	34657	27852.925770649422	0.914961984567
6	34660	27853.999574082546	7.39708399849
6	34670	27863.183780217576	0.829179222882
6	34680	27868.371489876661	1.75276379276
6	34700	27896.802503816592	0.967755038571
6	34715	27914.417584221709	0.980164219718
6	34725	27917.053434065875	2.225611754798
6	34737	27929.330990408575	2.373872916699
6	34750	27932.680863476103	2.109053748171
6	34762	27936.438413516601	2.261114111572
6	34765	27937.520799037238	1.459203826732
6	34772	27952.606173016155	1.120255731512
6	34785	27960.973598278711	0.963416904304
6	34845	27997.475984867235	1.074635133334
6	34875	28012.993743645826	1.586313254535
6	34885	28026.596719055945	0.948933124077
6	34905	28036.676391590026	3.082181460767
6	34932	28054.553364068019	1.847241490704
6	34950	28060.696602144211	1.199798474461
6	34960	28073.984918527478	1.165272859391
6	34970	28076.394009206036	1.158865207899
6	34977	28079.091527408993	1.033714987524
6	34980	28080.252986901419	2.147761384417
6	35025	28111.133048228011	1.194719039649
6	35035	28115.593313876704	0.803724705521
6	35050	28125.733568081437	1.433547841036
6	35057	28132.889545494657	0.938178729545
6	35080	28141.943868770116	1.637899449103
6	35145	28192.264481519721	5.42658600988
6	35150	28200.124619159754	1.139062133525
6	35155	28212.775097177884	1.048996904213
6	35175	28231.518866334456	0.808642007597
6	35212	28248.613423863637	2.382209996083
6	35217	28249.50917993358	1.367270844832
6	35220	28250.596952534864	1.091937389422
6	35240	28268.833144410562	4.063277795167
6	35255	28282.030036815213	1.104304095171
6	35275	28291.589332087135	2.385079193753
6	35285	28301.117858251517	1.023825865705
6	35325	28354.560462456022	2.927611901611
6	35332	28356.067470209628	4.096401713821
6	35335	28357.037026839565	1.51452339743
6	35350	28365.691875575785	0.991001039743
6	35377	28391.793275625673	1.10342210345
6	35385	28394.05058658079	2.326738187842
6	35400	28405.014142275034	6.209003474024
6	35410	28419.532025751617	0.906073223427
6	35420	28426.09645502989	1.138828332443
6	35502	28479.556389519884	1.501138051945
6	35515	28482.695618148738	4.283326274496
6	35550	28514.872252319216	2.814834656501
6	35575	28541.177404144294	0.905797652714
6	35585	28548.340102542847	0.944470177032
6	35590	28556.254264789152	1.063068394177
6	35607	28566.283656836764	1.700314198893
6	35630	28583.562152380106	1.607726266073
6	35645	28594.820418402104	1.00692783948
6	35655	28610.171134763752	0.817776433658
6	35695	28654.366061590169	3.619876760467
6	35715	28677.930946217243	2.274321083026
6	35747	28716.971702918765	1.01796385115
6	35750	28718.030099741817	1.627850975236
6	35765	28750.649784723258	0.868674270809
6	35770	28753.858456822567	1.154965621978
6	35785	28770.674256812089	3.553604098208
6	35822	28790.005939864308	1.020612452738
6	35832	28791.676112013996	1.478236954742
6	35845	28795.003154295917	5.68064145463
6	35857	28800.160161024406	0.87020155089
6	35880	28806.995800932464	4.23453256149
6	35885	28810.436642442483	1.095052224491
6	35900	28822.908745699146	0.865856708586
6	35955	28857.418742270412	0.861716026533
6	35960	28867.862472685245	1.196207225602
6	35965	28875.313785151083	0.894864372443
6	35990	28898.457937466383	6.143653728491
6	35995	28903.033021068646	1.084813683294
6	36017	28950.798810068786	0.831694762129
6	36025	28952.558569597224	5.365442975236
6	36030	28961.010548173254	1.199212209415
6	36035	28962.867252516163	0.978429417126
6	36070	28992.315705676779	1.07229157649
6	36077	28994.550637695685	0.969376270473
6	36085	28996.484616365124	1.853339024638
6	36095	29004.118435990669	0.983398100268
6	36102	29010.188538664321	0.845107684098
6	36105	29011.18357054584	1.210551692862
6	36110	29014.379288531193	0.924867628049
6	36120	29017.219152319939	2.382138205896
6	36125	29018.574388297458	1.174766941089
6	36130	29024.104774222925	1.100283298362
6	36160	29056.786919937812	1.161331135128
6	36175	29064.250113453815	0.925691543985
6	36212	29076.608425505666	6.210688630795
6	36215	29077.709200144673	5.099913840351
6	36225	29080.447622899781	1.470639551352
6	36230	29093.519606150031	1.171742263995
6	36240	29098.327326587949	1.857748135763
6	36250	29108.990936456033	1.017709537875
6	36260	29117.874979070308	0.821446642745
6	36300	29149.526041788788	3.290215822266
6	36305	29150.863270849977	0.820939867571
6	36312	29162.249867726346	0.969271437079
6	36315	29163.266680099019	1.416628536155
6	36340	29182.566760379352	2.551104703591
6	36347	29185.821755248048	1.19547032956
6	36367	29191.714710110441	2.119478796748
6	36370	29192.563201185424	3.973300031574
6	36410	29217.660900936066	1.059015584644
6	36415	29219.189667004065	0.941188172158
6	36425	29226.770555822774	3.341239739896
6	36465	29263.069033955169	0.89201589888
6	36480	29275.852853246909	4.126662400331
6	36485	29288.511474515659	1.054826883879
6	36525	29309.591959218014	1.138734995481
6	36530	29312.290786691895	0.820412508957
6	36535	29320.289859370939	0.989927439205
6	36540	29326.677983611029	1.16943549253
6	36547	29327.774130114438	0.90294198636
6	36557	29329.518573665889	1.317411490471
6	36562	29330.710025154697	3.393548281955
6	36575	29333.573852365734	2.374223458351
6	36589	29340.060411010751	1.984758553712
6	36607	29344.686015514296	1.626484981442
6	36630	29352.239215954848	5.585174602767
6	36640	29364.832749527498	0.931720225699
6	36655	29369.381956210113	4.488790954471
6	36662	29377.977960274137	0.988065659627
6	36667	29378.902440799821	1.002001310187
6	36705	29414.833723552042	1.113338615652
6	36740	29455.465056355624	0.801313567068
6	36745	29474.573200316199	1.019107029028
6	36757	29480.155529446484	1.136104250606
6	36760	29481.051494525609	1.390526615241
6	36765	29484.589441880545	1.155286595784
6	36785	29498.906954457751	2.034970743711
6	36790	29506.411513951736	1.018202446681
6	36845	29555.803369493772	0.831785462512
6	36867	29577.486863300358	0.998950726632
6	36895	29598.771766694092	0.930046328157
6	36910	29603.46398619123	1.559092997998
6	36915	29605.969632076749	6.052380109944
6	36935	29626.278854523959	1.985273015711
6	36945	29628.449567086469	4.943876788758
6	36985	29676.457169387588	1.114585158415
6	36992	29682.05232224593	0.86813519951
6	37000	29684.987705557164	3.603123209986
6	37020	29692.329731359455	4.510622436148
6	37045	29733.013057639021	2.844072552424
6	37055	29736.795607738496	1.096156214364
6	37060	29737.922817845318	1.051705082133
6	37065	29740.635162076135	0.861660858616
6	37070	29747.078995694848	0.90737086311
6	37075	29748.891598756593	0.910371171311
6	37090	29753.767090317066	0.890810380317
6	37095	29755.927569593535	0.92266105162
6	37100	29762.409062417016	1.150814903993
6	37105	29765.103104439571	0.803375549614
6	37130	29771.686591994616	1.733300988274
6	37140	29778.297801747596	0.915615692362
6	37165	29808.413786968602	1.197848192509
6	37210	29846.0531655865	5.213537362553
6	37232	29858.637596312136	1.51965624581
6	37235	29859.831574999512	3.059093908407
6	37240	29873.6053419747	0.864460303728
6	37250	29884.080441215374	3.612637955843
6	37257	29886.130494161563	1.182341591921
6	37260	29887.302439103795	1.721319614862
6	37285	29905.644869093571	1.157436640374
6	37295	29914.551791040751	0.825035254285
6	37310	29930.747738664925	4.297821705118
6	37335	29942.795230413227	5.304189648798
6	37347	29952.5601471172	3.636626246428
6	37365	29967.06238052589	1.004483743012
6	37380	29984.964315836557	0.930220501497
6	37385	29987.659773951615	0.940568011533
6	37395	29997.104209725439	1.074980239183
6	37402	29999.485607112369	1.176013358962

