version 2
run Second_exit_9-18-20191023-00:20:18-5284
attr configname Second_exit_9
attr datetime 20191023-00:20:18
attr experiment Second_exit_9
attr inifile omnetpp.ini
attr iterationvars ""
attr iterationvarsf ""
attr measurement ""
attr network ResponseTimeNetwork
attr processid 5284
attr repetition 18
attr replication #18
attr resultdir results
attr runnumber 18
attr seedset 18
param **.Source.interArrivalTime exponential(5s)
param **.jobPriority bernoulli(0.6)
param **.PS.serviceTimeU1 "uniform(0.8s, 1.2s)"
param **.PS.serviceTimeU2 "uniform(1.8s, 2.2s)"
param **.SS1.serviceTime exponential(1s)
param **.SS2.serviceTime exponential(1.2s)
param **.PS.exitProbability bernoulli(0.9)

vector 0 ResponseTimeNetwork.SS1 queueLength:vector ETV
attr interpolationmode sample-hold
attr title "queue length, vector"
vector 1 ResponseTimeNetwork.SS2 queueLength:vector ETV
attr interpolationmode sample-hold
attr title "queue length, vector"
vector 2 ResponseTimeNetwork.QueueU1 queueLength:vector ETV
attr interpolationmode sample-hold
attr title "queue length, vector"
vector 3 ResponseTimeNetwork.QueueU2 queueLength:vector ETV
attr interpolationmode sample-hold
attr title "queue length, vector"
vector 4 ResponseTimeNetwork.sink lifeTimeU1:vector ETV
attr interpolationmode none
attr title "lifetime of arrived jobs U1, vector"
attr unit s
vector 5 ResponseTimeNetwork.sink lifeTime:vector ETV
attr interpolationmode none
attr title "lifetime of arrived jobs, vector"
attr unit s
vector 6 ResponseTimeNetwork.sink lifeTimeU2:vector ETV
attr interpolationmode none
attr title "lifetime of arrived jobs U2, vector"
attr unit s
2	0	0	0
2	5	5.649734124413	1
2	6	6.227510014044	0
2	20	10.561084482645	1
2	21	11.19956247629	0
2	25	11.496579212478	1
2	26	12.339414449682	0
2	35	16.203242064206	1
2	37	17.10543932046	2
2	38	17.287586769466	1
2	42	17.628124885847	2
2	43	18.132228020117	1
2	47	18.485656441864	2
2	48	19.013648824491	1
2	52	19.349623930857	2
2	53	20.158299247645	1
2	57	20.379737201971	2
2	58	21.115252453	1
2	62	21.925053400747	2
2	63	22.195114702736	1
2	66	23.136071689618	0
2	80	26.032721806658	1
2	81	26.580563141613	0
2	90	30.343556523122	1
2	91	30.69235229498	0
2	95	31.011560908514	1
2	97	31.359610260306	2
2	98	31.802093371155	1
2	102	32.161512322218	2
2	103	32.940539910702	1
2	107	33.731194630638	2
2	108	33.961553387588	1
2	112	34.174347430771	2
2	113	35.081152394937	1
2	116	36.137100536154	0
2	125	38.831226668718	1
2	127	38.843635884618	2
2	128	39.080624998899	1
2	131	40.227560448533	0
2	135	40.268849042892	1
2	137	40.3512905667	2
2	139	40.514408673562	3
2	140	41.215641314143	2
2	144	41.541167924114	3
2	145	42.316827203406	2
2	148	43.338849761317	1
2	152	43.402251043656	2
2	153	44.180855903568	1
2	157	44.197291002483	2
2	158	45.17485271178	1
2	162	45.80928598129	2
2	163	46.29813193565	1
2	167	46.543162810528	2
2	168	47.112380058204	1
2	171	48.058068114032	0
2	195	56.571728044649	1
2	196	57.365281951488	0
2	200	57.654377802568	1
2	201	58.560396448211	0
2	205	59.246062453439	1
2	206	59.66486761576	0
2	215	62.464047677714	1
2	216	63.238479829186	0
2	220	64.077436794743	1
2	221	64.233326162191	0
2	225	64.853210640707	1
2	226	65.047473715598	0
2	240	68.648142899683	1
2	241	69.503214188681	0
2	245	69.88729517483	1
2	246	70.433679661916	0
2	250	71.070490510284	1
2	252	71.22979645052	2
2	253	71.552033941557	1
2	257	72.302268515893	2
2	258	72.628560688735	1
2	261	73.680301942226	0
2	265	73.884167728086	1
2	266	74.507152737692	0
2	270	74.724508187501	1
2	272	75.200813268519	2
2	273	75.500974620335	1
2	277	76.137027890467	2
2	278	76.497598031271	1
2	281	77.358964612536	0
2	285	77.41091353603	1
2	286	78.309838290993	0
2	290	78.742551415257	1
2	291	79.274361956134	0
2	300	82.12059049318	1
2	301	82.888420500165	0
2	305	83.581410009999	1
2	306	84.021936817957	0
2	315	86.36763546226	1
2	316	86.389946112273	0
2	320	87.465020327445	1
2	321	87.565775117608	0
2	330	88.881605541862	1
2	331	89.619779672166	0
2	335	90.394885778629	1
2	336	90.742687977636	0
2	350	94.557423094927	1
2	351	95.201309981331	0
2	360	96.562268773785	1
2	361	97.12918146741	0
2	370	98.280831094555	1
2	371	99.199249567503	0
2	385	110.78762645123	1
2	386	111.852212569346	0
2	400	114.740863682992	1
2	401	115.343531739134	0
2	415	118.200678243793	1
2	416	119.172100485836	0
2	420	119.708614741137	1
2	421	120.044228911002	0
2	425	120.089455212672	1
2	426	120.860415305638	0
2	435	122.92082465014	1
2	436	123.45031064722	0
2	445	124.542526166763	1
2	446	125.418096088784	0
2	450	125.731605340161	1
2	451	126.348660404122	0
2	455	126.412722921276	1
2	457	127.364869114273	2
2	458	127.462070124669	1
2	461	128.589826383701	0
2	470	130.649634816599	1
2	471	131.053922292077	0
2	475	131.267867540699	1
2	478	132.241600202256	0
2	482	132.954601181839	1
2	483	133.393876762734	0
2	490	134.904124030144	1
2	492	135.38213026373	2
2	493	135.478657482889	1
2	497	135.526765465051	2
2	498	136.324197021824	1
2	501	137.296999106788	0
2	505	137.501267231328	1
2	507	137.999712250978	2
2	510	138.299101700493	1
2	514	138.647948142684	2
2	515	139.28920300831	1
2	519	139.696017902782	2
2	520	140.450508702685	1
2	523	141.282996906386	0
2	527	141.903449984857	1
2	528	142.37561966828	0
2	532	143.277204694861	1
2	533	143.527681560301	0
2	540	145.274211679652	1
2	541	145.641138633014	0
2	570	157.503834462938	1
2	571	157.673715332326	0
2	580	160.08763481773	1
2	581	160.122102856862	0
2	590	161.643458932662	1
2	592	162.006209927112	2
2	593	162.135368488489	1
2	596	163.11391934654	0
2	600	163.249542238456	1
2	603	164.154090793471	0
2	607	164.712334684611	1
2	608	165.319866967428	0
2	612	165.707410314457	1
2	613	166.295654613193	0
2	617	166.617748205295	1
2	618	167.171121412184	0
2	622	167.509591565285	1
2	623	168.346398065094	0
2	627	169.019955050472	1
2	628	169.525735066593	0
2	632	169.62407697743	1
2	633	170.417159225181	0
2	637	171.168834870501	1
2	638	171.445330029581	0
2	657	175.724989626567	1
2	658	176.101366953466	0
2	670	178.754542828206	1
2	671	179.743003510103	0
2	677	180.325882656594	1
2	678	180.9290898836	0
2	682	181.05939372417	1
2	683	181.915379381344	0
2	687	182.275519779682	1
2	688	182.908523246065	0
2	692	183.166285066042	1
2	693	183.809158144962	0
2	715	190.960212866705	1
2	716	191.545201642559	0
2	720	191.893266724616	1
2	723	192.703195794792	0
2	727	192.951879208397	1
2	728	193.681125492723	0
2	732	193.694813141384	1
2	733	194.658143181102	0
2	740	195.64677839957	1
2	742	195.772614019774	2
2	743	196.411687732701	1
2	746	197.268498961002	0
2	760	199.708774358919	1
2	762	200.122662580377	2
2	763	200.840458973267	1
2	766	201.828798648485	0
2	772	201.91396525825	1
2	773	202.942929595479	0
2	777	203.623297637164	1
2	778	203.861718906325	0
2	782	204.545904373415	1
2	783	204.953707028974	0
2	787	204.974055874113	1
2	788	205.953616181996	0
2	795	207.321508184234	1
2	798	207.735708400749	0
2	802	208.033748598171	1
2	803	208.791292884808	0
2	807	209.320119964133	1
2	810	209.863268077236	0
2	820	212.341377160435	1
2	822	212.575932294191	2
2	823	213.030881445624	1
2	828	213.938107851382	0
2	841	215.690682532044	1
2	842	215.801908756003	0
2	846	216.138666061483	1
2	849	216.773417602249	0
2	853	216.854695537159	1
2	854	217.784067032908	0
2	866	220.708525446258	1
2	867	220.718346552227	0
2	871	220.799552007956	1
2	874	221.554854076684	0
2	881	222.643167736479	1
2	883	223.071522926405	2
2	886	223.732906801675	1
2	889	224.68069802332	0
2	898	225.899882782314	1
2	899	226.450172321547	0
2	903	226.680772857968	1
2	904	227.281281927742	0
2	908	227.589200927539	1
2	911	228.452235735722	0
2	915	228.671342980081	1
2	916	229.540395963799	0
2	920	229.71564436542	1
2	922	230.036781169713	2
2	923	230.418218811463	1
2	929	230.918406349578	2
2	930	231.449125004514	1
2	934	232.450791038719	2
2	935	232.553694397165	1
2	939	232.966322858544	2
2	940	233.427668612032	1
2	944	234.247670137285	2
2	945	234.431178341294	1
2	949	234.639039853717	2
2	951	234.871923773441	3
2	952	235.411121540563	2
2	955	236.500923325447	1
2	959	236.64635367536	2
2	960	237.451464680815	1
2	964	238.366499624828	2
2	965	238.603596025286	1
2	968	239.504150900757	0
2	975	240.960240008413	1
2	977	241.568780329634	2
2	978	241.706583664986	1
2	982	241.829630272334	2
2	984	242.443605248794	3
2	985	242.8169617604	2
2	990	243.791419582116	1
2	993	244.908903759858	0
2	997	245.356927494235	1
2	999	245.485784163481	2
2	1000	246.004350288818	1
2	1004	246.415964587552	2
2	1005	246.885441673128	1
2	1009	247.726240556695	2
2	1010	247.728595571825	1
2	1013	248.871156698698	0
2	1017	249.095872092049	1
2	1018	249.885229338193	0
2	1022	250.472229046826	1
2	1023	250.98580584214	0
2	1027	251.247602600527	1
2	1029	251.962309165451	2
2	1030	252.047645684843	1
2	1034	252.400893540089	2
2	1036	253.033517635679	3
2	1037	253.139447455899	2
2	1040	254.203760151331	1
2	1043	255.140311418985	0
2	1047	255.745837941004	1
2	1049	255.941185219102	2
2	1050	256.025186196574	1
2	1053	257.09850275726	0
2	1057	257.159656330653	1
2	1059	257.458505098932	2
2	1060	258.123991218162	1
2	1063	259.098772482806	0
2	1067	259.673361212385	1
2	1068	259.91048909719	0
2	1075	261.393720271446	1
2	1076	262.045756472599	0
2	1080	262.613497249475	1
2	1083	263.224079307959	0
2	1087	264.143134703745	1
2	1088	264.205470662702	0
2	1103	266.979890886517	1
2	1105	267.70762550959	2
2	1106	267.98847923125	1
2	1112	268.560068077891	2
2	1113	269.086984122124	1
2	1117	269.125603782997	2
2	1118	270.066228161984	1
2	1121	270.983852924545	0
2	1125	271.265932354253	1
2	1126	271.787320038256	0
2	1130	272.397214950765	1
2	1131	272.769992131226	0
2	1138	274.300904028058	1
2	1140	274.492953248106	2
2	1141	275.006768555332	1
2	1145	275.128334282965	2
2	1147	275.7920484852	3
2	1148	276.134658864651	2
2	1154	277.129189995303	3
2	1156	277.179990295095	4
2	1157	277.247685390476	3
2	1161	277.518524404358	4
2	1162	278.341813723229	3
2	1165	279.204637903113	2
2	1168	280.111900766891	1
2	1172	280.731085827308	2
2	1173	281.050449937162	1
2	1176	281.932307041203	0
2	1180	282.584167281779	1
2	1181	283.007639294257	0
2	1188	283.822243327658	1
2	1190	283.884833908977	2
2	1192	284.054627094905	3
2	1193	284.797903293138	2
2	1197	285.087647073342	3
2	1199	285.905817331901	4
2	1200	285.99367894209	3
2	1204	286.062182185883	4
2	1207	287.043235477386	3
2	1211	287.846851807145	4
2	1212	288.077859286265	3
2	1216	288.636224232747	4
2	1217	289.162169706216	3
2	1222	290.212284131395	2
2	1226	290.24171048651	3
2	1228	290.83398623026	4
2	1230	291.242719838797	5
2	1231	291.33743676045	4
2	1235	291.690733034268	5
2	1236	292.143827345921	4
2	1240	292.357307557833	5
2	1242	292.651397179494	6
2	1243	293.197390759038	5
2	1247	293.867128003141	6
2	1248	294.270772263082	5
2	1252	295.095080953919	6
2	1253	295.352829699917	5
2	1257	295.468440245419	6
2	1259	295.712231919297	7
2	1260	296.359242447419	6
2	1266	297.352999241811	7
2	1267	297.496328390343	6
2	1271	297.611861745415	7
2	1273	297.723990950099	8
2	1274	298.366979813157	7
2	1278	298.406908659676	8
2	1280	298.905291623985	9
2	1281	299.191397421295	8
2	1285	300.091429322516	9
2	1286	300.161039690254	8
2	1290	300.788483866168	9
2	1292	301.027665261588	10
2	1293	301.054431069875	9
2	1296	301.905016898503	8
2	1300	302.663378389038	9
2	1302	302.730561124979	10
2	1303	302.962668973626	9
2	1306	303.803069118084	8
2	1310	304.525248678636	9
2	1311	304.884042491344	8
2	1315	305.104773487111	9
2	1316	306.06167732519	8
2	1319	307.020237446715	7
2	1325	307.384903130201	8
2	1326	307.880420272005	7
2	1329	309.06874827058	6
2	1332	309.879287887038	5
2	1335	310.784664593869	4
2	1339	310.788888140965	5
2	1341	311.012404035863	6
2	1343	311.458556657075	7
2	1344	311.624609647644	6
2	1347	312.755933671863	5
2	1351	313.154030325733	6
2	1352	313.813300774479	5
2	1356	314.143928023109	6
2	1357	314.795472017349	5
2	1360	315.771945158345	4
2	1364	315.995363067074	5
2	1365	316.60178445815	4
2	1369	317.114160291606	5
2	1370	317.59993193359	4
2	1374	317.698541416717	5
2	1376	318.090788515072	6
2	1378	318.297892028103	7
2	1379	318.700114269786	6
2	1383	319.12024420407	7
2	1385	319.237692071394	8
2	1386	319.699349299118	7
2	1389	320.605608146496	6
2	1393	320.923504633115	7
2	1394	321.405795906342	6
2	1398	321.835595001753	7
2	1400	322.294635505317	8
2	1401	322.417201956499	7
2	1406	323.279698470931	6
2	1410	324.137294805016	7
2	1411	324.40096020079	6
2	1415	324.786239917423	7
2	1416	325.433004247907	6
2	1420	325.871364455962	7
2	1421	326.245111991696	6
2	1424	327.205359447326	5
2	1428	327.272039856251	6
2	1430	327.814595127378	7
2	1431	328.404555156126	6
2	1436	329.30904621924	5
2	1439	330.395393192346	4
2	1443	330.992539181309	5
2	1444	331.490098806607	4
2	1448	331.845596589611	5
2	1449	332.525460905532	4
2	1453	332.708238691323	5
2	1455	332.812758077614	6
2	1457	332.869978679659	7
2	1458	333.379367028593	6
2	1461	334.26264432254	5
2	1464	335.297729272439	4
2	1468	335.654944260939	5
2	1470	335.743487518557	6
2	1472	335.952531186623	7
2	1473	336.229840100507	6
2	1477	336.352008169192	7
2	1478	337.117245413686	6
2	1482	337.21191989335	7
2	1483	338.048932549401	6
2	1487	338.185153253432	7
2	1489	338.602231885967	8
2	1491	338.816103462097	9
2	1492	338.98110966901	8
2	1495	339.795060884996	7
2	1499	340.660536444159	8
2	1501	340.764877006995	9
2	1502	340.928680033187	8
2	1506	341.319672512086	9
2	1508	341.324803216831	10
2	1510	341.416722099945	11
2	1511	341.763180980595	10
2	1514	342.757163852589	9
2	1518	342.774574504667	10
2	1520	343.627842083612	11
2	1522	343.761527122737	12
2	1523	343.764069791367	11
2	1526	344.705834696578	10
2	1532	345.222739548344	11
2	1533	345.73580387062	10
2	1536	346.631562676882	9
2	1539	347.551120626783	8
2	1543	348.286745750401	9
2	1545	348.593979019697	10
2	1546	348.732109976044	9
2	1550	349.336559236654	10
2	1552	349.403476793412	11
2	1554	349.528577899727	12
2	1555	349.820727972915	11
2	1559	350.327005000571	12
2	1560	350.650263427334	11
2	1564	351.134598831081	12
2	1565	351.549685512433	11
2	1569	352.112944959284	12
2	1571	352.146913871567	13
2	1572	352.452096667836	12
2	1575	353.305481927978	11
2	1579	353.396362716117	12
2	1580	354.224788059989	11
2	1584	354.239918291685	12
2	1585	355.238389916202	11
2	1589	355.699583866277	12
2	1590	356.312947321912	11
2	1594	356.824407837926	12
2	1595	357.274095603494	11
2	1599	357.571936820742	12
2	1602	358.248033738645	11
2	1605	359.248460654771	10
2	1611	359.787916012035	11
2	1612	360.197970073061	10
2	1616	360.246704540639	11
2	1617	361.17004264616	10
2	1620	362.214466106655	9
2	1623	363.403776741816	8
2	1626	364.377088646354	7
2	1630	364.627050160861	8
2	1632	364.996777887699	9
2	1633	365.233139916925	8
2	1637	365.29596868946	9
2	1638	366.257153506993	8
2	1642	366.667003473824	9
2	1644	366.995482983648	10
2	1645	367.105267441502	9
2	1649	367.907665957454	10
2	1650	368.24465085561	9
2	1654	368.260125133347	10
2	1655	369.071766430741	9
2	1659	369.141424286723	10
2	1660	370.12906550434	9
2	1664	370.92497326416	10
2	1665	371.197573078	9
2	1669	371.624446197347	10
2	1670	372.041224546121	9
2	1674	372.445139961393	10
2	1675	373.219829173894	9
2	1679	374.151853182993	10
2	1680	374.383210239136	9
2	1684	374.620774311643	10
2	1685	375.580002364465	9
2	1689	375.742342490153	10
2	1690	376.594872256597	9
2	1694	376.625891059164	10
2	1695	377.747409524438	9
2	1699	377.924369926598	10
2	1700	378.608969442402	9
2	1704	379.259703245397	10
2	1705	379.498639539205	9
2	1708	380.678091769614	8
2	1713	381.857619491261	7
2	1716	382.800839488529	6
2	1720	383.450768274722	7
2	1722	383.885504026482	8
2	1724	383.910616915452	9
2	1725	383.934966571205	8
2	1729	384.161579004638	9
2	1730	384.942974048522	8
2	1734	384.944824046224	9
2	1737	385.885466036056	8
2	1740	386.759843234015	7
2	1744	387.442328483227	8
2	1745	387.650156428893	7
2	1749	387.691306858059	8
2	1750	388.589449236584	7
2	1754	388.854296819786	8
2	1756	388.970765899823	9
2	1757	389.581870514103	8
2	1760	390.647509316117	7
2	1763	391.676088885725	6
2	1767	391.724321366251	7
2	1768	392.714306607791	6
2	1772	392.823729176369	7
2	1773	393.607029886585	6
2	1777	394.274553831233	7
2	1779	394.377032500673	8
2	1780	394.56776000638	7
2	1784	394.80947047221	8
2	1786	395.150741413009	9
2	1787	395.520637986851	8
2	1791	395.557186778023	9
2	1792	396.533363177949	8
2	1796	397.032005061945	9
2	1797	397.352767824144	8
2	1801	398.003907356237	9
2	1802	398.471959050414	8
2	1806	398.814188441744	9
2	1808	399.12811308561	10
2	1810	399.176342168483	11
2	1811	399.438332571597	10
2	1814	400.460626883567	9
2	1818	401.176280916417	10
2	1819	401.563636737638	9
2	1823	401.976411954154	10
2	1825	402.058903260163	11
2	1827	402.22125764113	12
2	1828	402.525848619868	11
2	1834	403.181207651933	12
2	1835	403.35826872014	11
2	1839	403.420916559423	12
2	1842	404.188241655329	11
2	1846	404.318581537703	12
2	1847	404.993609567588	11
2	1851	405.466154680389	12
2	1852	406.059130021786	11
2	1858	406.95779021573	12
2	1859	407.022727502273	11
2	1863	407.187597654425	12
2	1864	407.976590591432	11
2	1868	408.490843078924	12
2	1869	408.806813381189	11
2	1872	409.660747490307	10
2	1876	410.17416125406	11
2	1879	410.590835935572	10
2	1883	411.147693629811	11
2	1884	411.458157032957	10
2	1887	412.452529677977	9
2	1891	413.183156054885	10
2	1892	413.362857463439	9
2	1896	413.759045196209	10
2	1897	414.252950602719	9
2	1903	415.011064414037	10
2	1905	415.148404780065	11
2	1906	415.275348603302	10
2	1910	415.405302441607	11
2	1911	416.168098913455	10
2	1915	416.394681869911	11
2	1917	416.860347052968	12
2	1918	417.331819028636	11
2	1922	417.977993956567	12
2	1923	418.524979927247	11
2	1927	418.738518741109	12
2	1928	419.700429912513	11
2	1932	420.660013073476	12
2	1933	420.818278161107	11
2	1937	420.820228394223	12
2	1939	421.157055096622	13
2	1940	421.651884640145	12
2	1943	422.510249766844	11
2	1947	422.971886258284	12
2	1949	423.517761346728	13
2	1950	423.665282330519	12
2	1954	423.989498004888	13
2	1955	424.545079318012	12
2	1958	425.564192887719	11
2	1961	426.733662869732	10
2	1964	427.637452854912	9
2	1968	427.830447797349	10
2	1969	428.795540679663	9
2	1973	429.451125671608	10
2	1974	429.660429796807	9
2	1977	430.501264961387	8
2	1981	431.284483550514	9
2	1982	431.401771730694	8
2	1986	431.957280147753	9
2	1987	432.210631704281	8
2	1990	433.11411011717	7
2	1994	433.664113900697	8
2	1996	433.821101224788	9
2	1997	434.180284399862	8
2	2001	434.400197029939	9
2	2003	434.680012307838	10
2	2004	435.183403358466	9
2	2007	436.22781717288	8
2	2011	436.377513506324	9
2	2012	437.295553053866	8
2	2016	437.479713100173	9
2	2017	438.099843764814	8
2	2021	439.114010738031	9
2	2022	439.289353276832	8
2	2026	439.581563256141	9
2	2027	440.279730131706	8
2	2031	440.362353776089	9
2	2032	441.233788654251	8
2	2035	442.067818305125	7
2	2039	442.814120026827	8
2	2040	443.248963381206	7
2	2043	444.075759330527	6
2	2047	444.224690265921	7
2	2048	445.097975485348	6
2	2052	445.541819906648	7
2	2054	445.965569587113	8
2	2055	446.057148786397	7
2	2058	446.945365171642	6
2	2062	447.702014885388	7
2	2063	447.769936034032	6
2	2067	448.279865551082	7
2	2068	448.962011746359	6
2	2072	449.821588393684	7
2	2073	450.147338594072	6
2	2076	451.062734089461	5
2	2079	452.158105950658	4
2	2083	452.476548562636	5
2	2085	453.171438876695	6
2	2086	453.288807270252	5
2	2089	454.321691498388	4
2	2093	454.971755038299	5
2	2094	455.172382598691	4
2	2098	455.180489003924	5
2	2099	455.996327645094	4
2	2105	456.809645715587	5
2	2106	456.857259753761	4
2	2110	457.040857770422	5
2	2112	457.128407124024	6
2	2114	457.447043708525	7
2	2115	457.743089762745	6
2	2119	458.618070988696	7
2	2120	458.864423150612	6
2	2125	459.816087664055	5
2	2129	460.303555515548	6
2	2130	460.694373787144	5
2	2134	461.375337889828	6
2	2136	461.514800046548	7
2	2137	461.747699314957	6
2	2141	462.017449012342	7
2	2142	462.573910337636	6
2	2145	463.757109380835	5
2	2149	463.934794661494	6
2	2150	464.857125544497	5
2	2154	465.155563306767	6
2	2157	465.959371042573	5
2	2160	466.942364531052	4
2	2164	467.300906237495	5
2	2166	468.001358254721	6
2	2167	468.089299547714	5
2	2170	469.129098329828	4
2	2174	469.195767928299	5
2	2175	469.981016327483	4
2	2180	470.939305591532	3
2	2184	471.636255613591	4
2	2186	471.872065085076	5
2	2187	472.114052545507	4
2	2190	473.051856660419	3
2	2193	474.192577197538	2
2	2197	474.932447718381	3
2	2198	475.071053088685	2
2	2201	476.155541954884	1
2	2204	477.020816005436	0
2	2208	477.376536574593	1
2	2210	477.414502928144	2
2	2211	477.838034438198	1
2	2215	477.873458084984	2
2	2217	478.342368405573	3
2	2218	478.848730352563	2
2	2221	479.989355707211	1
2	2225	479.992719183462	2
2	2227	480.032180467191	3
2	2229	480.344059050641	4
2	2231	480.790941035462	5
2	2232	481.094745198307	4
2	2235	481.912208715589	3
2	2238	483.081386108739	2
2	2241	484.160872975127	1
2	2245	484.662129142048	2
2	2246	485.271480175057	1
2	2249	486.215458062613	0
2	2261	488.784468483112	1
2	2263	489.034103898053	2
2	2264	489.144816042246	1
2	2271	489.980990644214	0
2	2275	490.275674301537	1
2	2277	490.388750843974	2
2	2280	491.093672427298	1
2	2283	492.02863521664	0
2	2290	493.306167376725	1
2	2291	493.9481439847	0
2	2295	494.037300370207	1
2	2297	494.225951013161	2
2	2300	494.823515818311	1
2	2303	496.011872176962	0
2	2307	496.356150202452	1
2	2309	496.656537261284	2
2	2312	496.98889125981	1
2	2316	497.467113819829	2
2	2317	497.967886179356	1
2	2320	499.123871032192	0
2	2324	499.580870736315	1
2	2325	500.077131980701	0
2	2329	500.155435986356	1
2	2331	500.193414072118	2
2	2332	501.125382295946	1
2	2336	501.467912669225	2
2	2338	502.054047902949	3
2	2339	502.273418876851	2
2	2343	503.157200415124	3
2	2344	503.441747001136	2
2	2347	504.38236977751	1
2	2350	505.511723357389	0
2	2357	506.390889343521	1
2	2358	507.163803322097	0
2	2367	508.520698069108	1
2	2369	509.11089091357	2
2	2370	509.338706541197	1
2	2375	510.264396562097	0
2	2379	510.977104736557	1
2	2380	511.198686752231	0
2	2384	511.320742798271	1
2	2385	512.030500799739	0
2	2389	512.831096030165	1
2	2391	512.948658076067	2
2	2392	513.025218375162	1
2	2395	513.963690134273	0
2	2402	515.062274953947	1
2	2404	515.552060791681	2
2	2405	515.870514240064	1
2	2409	516.412453304629	2
2	2412	517.031629139226	1
2	2416	517.672951522829	2
2	2417	518.172215426289	1
2	2421	518.544454973679	2
2	2422	519.32781049753	1
2	2425	520.507358406805	0
2	2429	521.256952793779	1
2	2430	521.443395367865	0
2	2434	521.524086339848	1
2	2436	522.05596773338	2
2	2437	522.393601178419	1
2	2441	522.5598406777	2
2	2442	523.460800933972	1
2	2446	523.480098296491	2
2	2448	523.617583766862	3
2	2450	523.702717359958	4
2	2452	523.846849523105	5
2	2454	524.296440137833	6
2	2455	524.459843812365	5
2	2459	524.891849764727	6
2	2460	525.63469548751	5
2	2466	526.510790491912	6
2	2467	526.625183749239	5
2	2471	527.210443447576	6
2	2472	527.547910037956	5
2	2476	527.781794367946	6
2	2477	528.348482414095	5
2	2482	529.448658916207	4
2	2488	530.306573822449	5
2	2489	530.592388668416	4
2	2493	531.023880574667	5
2	2494	531.59195502246	4
2	2498	531.954328408125	5
2	2500	532.011418235149	6
2	2501	532.735792955516	5
2	2505	533.4035017315	6
2	2506	533.87259646686	5
2	2510	534.447236380039	6
2	2511	534.800487696791	5
2	2514	535.879727326186	4
2	2518	536.239288422469	5
2	2519	536.903055775763	4
2	2522	537.748053959423	3
2	2526	538.14800467853	4
2	2527	538.555354166628	3
2	2530	539.431688022372	2
2	2535	540.377901138403	1
2	2538	541.505723178052	0
2	2545	542.986633278292	1
2	2547	543.127860505287	2
2	2548	543.553184963335	1
2	2552	544.417908017125	2
2	2555	544.57137835607	1
2	2558	545.643140544501	0
2	2562	545.708992507251	1
2	2564	545.848978631792	2
2	2566	545.944546237887	3
2	2567	546.636141421591	2
2	2571	547.147337468445	3
2	2572	547.773310185355	2
2	2576	547.964980164	3
2	2578	548.328731359102	4
2	2580	548.827144377305	5
2	2581	548.946373299175	4
2	2585	549.084884035279	5
2	2586	549.947373348233	4
2	2590	550.33558793712	5
2	2591	551.09691488579	4
2	2594	552.235170014613	3
2	2598	552.291982014027	4
2	2599	553.199899677877	3
2	2602	554.372130626105	2
2	2606	554.647471711515	3
2	2608	555.094005520069	4
2	2609	555.38456235271	3
2	2612	556.413006771394	2
2	2616	556.897542699228	3
2	2618	557.294196858737	4
2	2619	557.443749634215	3
2	2623	558.476992057059	4
2	2624	558.509625047111	3
2	2628	558.592906276002	4
2	2630	559.149112215526	5
2	2631	559.316057943405	4
2	2635	559.855157662308	5
2	2637	560.186764592145	6
2	2639	560.295771637215	7
2	2640	560.389051568547	6
2	2644	560.70918061561	7
2	2645	561.230067792108	6
2	2649	562.244496611147	7
2	2650	562.273707990201	6
2	2655	563.331306101421	5
2	2659	563.557797430189	6
2	2660	564.332918266526	5
2	2663	565.302094440295	4
2	2669	566.010474446956	5
2	2671	566.250179330077	6
2	2672	566.416706249437	5
2	2676	566.457509758693	6
2	2678	567.018843203524	7
2	2679	567.606074419564	6
2	2683	567.799962990934	7
2	2684	568.544810192513	6
2	2688	568.75355993981	7
2	2689	569.346755464229	6
2	2692	570.535013225435	5
2	2695	571.720801806955	4
2	2699	571.976946593308	5
2	2701	572.3667163987	6
2	2702	572.76290401038	5
2	2706	573.151474500893	6
2	2708	573.320093612548	7
2	2709	573.732892561371	6
2	2713	574.036784934442	7
2	2714	574.554874764236	6
2	2718	575.1009870999	7
2	2719	575.655269747826	6
2	2722	576.583704914937	5
2	2726	576.910208444797	6
2	2728	577.430827938172	7
2	2730	577.469276426396	8
2	2731	577.644589391018	7
2	2734	578.631458378902	6
2	2737	579.742173961124	5
2	2741	580.063803413085	6
2	2743	580.791412521123	7
2	2744	580.822409155353	6
2	2748	581.004036162102	7
2	2749	581.84224686012	6
2	2753	582.708837005204	7
2	2754	582.764215500507	6
2	2758	583.104274387994	7
2	2759	583.65522618512	6
2	2762	584.656420149788	5
2	2765	585.606231932569	4
2	2769	586.261543580923	5
2	2770	586.585253442678	4
2	2774	586.760310476134	5
2	2776	586.783496653752	6
2	2778	586.810735836038	7
2	2780	587.21611478666	8
2	2781	587.49230522117	7
2	2784	588.58945082486	6
2	2788	588.771436189075	7
2	2790	589.269072695991	8
2	2791	589.613393503282	7
2	2795	589.822965178553	8
2	2797	590.674490259849	9
2	2798	590.72743995082	8
2	2804	591.386365967657	9
2	2805	591.729239539005	8
2	2809	592.299962602599	9
2	2810	592.578585019749	8
2	2813	593.613742232364	7
2	2817	593.87311814962	8
2	2819	594.338734631064	9
2	2820	594.648398949433	8
2	2824	595.02895514435	9
2	2825	595.72541212127	8
2	2828	596.527424139664	7
2	2832	597.451282857331	8
2	2834	597.615599828776	9
2	2835	597.658796389163	8
2	2839	597.76531528916	9
2	2841	597.947677282004	10
2	2842	598.838572003641	9
2	2846	599.270726686553	10
2	2847	599.928903719731	9
2	2850	601.003047030647	8
2	2853	601.854185405136	7
2	2856	602.672643069965	6
2	2860	603.362550161061	7
2	2861	603.595147557506	6
2	2865	603.677191523975	7
2	2866	604.528652770674	6
2	2870	604.683462636381	7
2	2872	605.331799581749	8
2	2874	605.420111608208	9
2	2875	605.602925914941	8
2	2879	605.639758777008	9
2	2880	606.479316060939	8
2	2883	607.632911215765	7
2	2887	608.18721152992	8
2	2889	608.302175010218	9
2	2890	608.829094476481	8
2	2893	609.633086974961	7
2	2896	610.507083302313	6
2	2900	610.698383014768	7
2	2901	611.580190823083	6
2	2905	611.636745309116	7
2	2907	611.929878576622	8
2	2908	612.630558095728	7
2	2911	613.466299219099	6
2	2915	613.725239305188	7
2	2916	614.334040863388	6
2	2920	614.82025391872	7
2	2921	615.46632603616	6
2	2924	616.325951545541	5
2	2928	616.928163177639	6
2	2930	616.946381794465	7
2	2931	617.492457507779	6
2	2935	617.704082373096	7
2	2936	618.471934077465	6
2	2941	619.554893892021	5
2	2944	620.376683037491	4
2	2948	620.43670305749	5
2	2950	620.788405798639	6
2	2951	621.234727616744	5
2	2954	622.141239816738	4
2	2958	622.3979609519	5
2	2959	623.124017263433	4
2	2962	624.241286043773	3
2	2966	624.754738148901	4
2	2967	625.146888062401	3
2	2971	625.536464462827	4
2	2972	626.108328129487	3
2	2976	626.486168318013	4
2	2978	626.658918265913	5
2	2979	627.051276556538	4
2	2983	627.35504871748	5
2	2984	628.125142552187	4
2	2988	628.205544159753	5
2	2990	628.83041108554	6
2	2991	628.954530619965	5
2	2995	629.185104786319	6
2	2996	630.034751512245	5
2	3000	630.384943085592	6
2	3001	630.905033042324	5
2	3005	630.973027424954	6
2	3007	631.512600957997	7
2	3008	631.999043089194	6
2	3012	632.44394113785	7
2	3013	632.944940433042	6
2	3017	633.050536522668	7
2	3019	633.322094655787	8
2	3020	633.900924516233	7
2	3024	633.967982854887	8
2	3025	634.833925106233	7
2	3028	635.858767064238	6
2	3031	636.831500647074	5
2	3035	637.520682342414	6
2	3036	637.753487670744	5
2	3040	638.313933926484	6
2	3042	638.437954889725	7
2	3043	638.803150666176	6
2	3047	639.086932300952	7
2	3048	639.884613772059	6
2	3052	640.638625191053	7
2	3053	640.710239543995	6
2	3057	641.581991328146	7
2	3059	641.592462820317	8
2	3060	641.839000729049	7
2	3064	642.331949037401	8
2	3065	642.805177178184	7
2	3069	643.005572373452	8
2	3071	643.508508910231	9
2	3072	643.948917911431	8
2	3076	644.397091565431	9
2	3077	645.041591209775	8
2	3081	645.044351831726	9
2	3082	645.860950077648	8
2	3085	646.851531917645	7
2	3088	647.786630269742	6
2	3092	647.828843226572	7
2	3094	648.640096842591	8
2	3095	648.641760084821	7
2	3099	648.887218792052	8
2	3101	649.529923901466	9
2	3102	649.803937222852	8
2	3105	650.67898268555	7
2	3109	651.431493272444	8
2	3113	651.70726131177	9
2	3114	651.744442798427	8
2	3118	652.31829450701	9
2	3119	652.806645769763	8
2	3123	653.087096986446	9
2	3124	653.668170874796	8
2	3128	653.757544352572	9
2	3129	654.612511596314	8
2	3133	654.836832802256	9
2	3134	655.423487042307	8
2	3138	656.127048606469	9
2	3140	656.243446441964	10
2	3141	656.425226450662	9
2	3144	657.427615427176	8
2	3147	658.314725134192	7
2	3151	658.370820930801	8
2	3153	659.05720556235	9
2	3154	659.407898636484	8
2	3158	660.222172123077	9
2	3159	660.460825829343	8
2	3163	661.148676591416	9
2	3164	661.29781063641	8
2	3168	661.587629829019	9
2	3169	662.247575448403	8
2	3172	663.312970466489	7
2	3175	664.246071142467	6
2	3178	665.190272766767	5
2	3182	665.54052402142	6
2	3183	666.254767356576	5
2	3187	666.333658561685	6
2	3191	666.726178265659	7
2	3192	667.40338721857	6
2	3196	667.955133880904	7
2	3198	668.065949904432	8
2	3199	668.377619855614	7
2	3203	668.934267995388	8
2	3205	669.073652345686	9
2	3206	669.424193525543	8
2	3210	670.088965803259	9
2	3211	670.480643744995	8
2	3215	670.715893679333	9
2	3216	671.392738979911	8
2	3219	672.577564057005	7
2	3222	673.403918671557	6
2	3225	674.311864178111	5
2	3229	674.603475942234	6
2	3231	674.999123891684	7
2	3232	675.203491475103	6
2	3236	675.937532269065	7
2	3237	676.394610332181	6
2	3241	677.011884760655	7
2	3242	677.522255314649	6
2	3245	678.639319187165	5
2	3248	679.458609708906	4
2	3251	680.468594070845	3
2	3255	680.475046466089	4
2	3257	681.142315173087	5
2	3258	681.297088649724	4
2	3262	681.620978987574	5
2	3264	681.740514963046	6
2	3266	682.300373994638	7
2	3267	682.426027246978	6
2	3270	683.358985034976	5
2	3274	684.205522379692	6
2	3275	684.207459414791	5
2	3279	684.959029618401	6
2	3280	685.049560185376	5
2	3284	685.687256197374	6
2	3286	685.844472755916	7
2	3288	685.850973593247	8
2	3289	685.992668984498	7
2	3292	687.082501255482	6
2	3296	687.184465958214	7
2	3298	687.338403066984	8
2	3300	687.760242202928	9
2	3301	688.13792933416	8
2	3305	688.194815091979	9
2	3306	689.094420666754	8
2	3309	689.91231026607	7
2	3313	690.197583764861	8
2	3315	690.37720758047	9
2	3316	691.07317680404	8
2	3319	692.012983243488	7
2	3322	693.02778696692	6
2	3326	693.714569675277	7
2	3327	694.105476856087	6
2	3331	694.146431413017	7
2	3333	694.191869613788	8
2	3334	695.055600749557	7
2	3338	695.092038118741	8
2	3339	696.048437174917	7
2	3343	696.340723388467	8
2	3345	696.541806971031	9
2	3346	697.179357968685	8
2	3349	698.190874788393	7
2	3353	698.74572051225	8
2	3354	699.040780385532	7
2	3358	699.616402860749	8
2	3360	699.683112990558	9
2	3361	700.133760523558	8
2	3364	700.978125489451	7
2	3368	701.161262674134	8
2	3370	701.816175876835	9
2	3371	701.933240525279	8
2	3374	702.76844629398	7
2	3378	702.879796632193	8
2	3379	703.6654988144	7
2	3382	704.560806575644	6
2	3385	705.662518401019	5
2	3389	706.464749986854	6
2	3391	706.590015678967	7
2	3393	706.616518852692	8
2	3394	706.808112420741	7
2	3397	707.773004495859	6
2	3401	707.800634578828	7
2	3403	707.835754100931	8
2	3404	708.886529715773	7
2	3407	709.691590708722	6
2	3410	710.504439194449	5
2	3414	711.103593679965	6
2	3416	711.190051012061	7
2	3417	711.376794338547	6
2	3420	712.383432358358	5
2	3424	712.384022249265	6
2	3426	713.151142846454	7
2	3427	713.380817974959	6
2	3431	713.79358676058	7
2	3433	713.858129617468	8
2	3434	714.573508428079	7
2	3438	714.611292531151	8
2	3439	715.486954872445	7
2	3443	715.556088778633	8
2	3444	716.569322391362	7
2	3448	717.035068701191	8
2	3449	717.465557903745	7
2	3453	717.567422886268	8
2	3454	718.506040841569	7
2	3457	719.31616826015	6
2	3460	720.118751500588	5
2	3463	721.250339749683	4
2	3467	721.409098837266	5
2	3469	721.521403497313	6
2	3471	722.05360667133	7
2	3473	722.089621356561	8
2	3474	722.437422951911	7
2	3478	722.546288812602	8
2	3479	723.538740061451	7
2	3482	724.432175527647	6
2	3486	724.603527667524	7
2	3488	725.326985710515	8
2	3489	725.407303280797	7
2	3493	726.038394537551	8
2	3495	726.115601374644	9
2	3496	726.340653149825	8
2	3500	726.736380602095	9
2	3501	727.410048657977	8
2	3505	727.534116860375	9
2	3507	727.740946048574	10
2	3508	728.432902210434	9
2	3511	729.439276112192	8
2	3515	729.624802953875	9
2	3516	730.532228631661	8
2	3519	731.349186498061	7
2	3523	732.181777934742	8
2	3524	732.222502243653	7
2	3528	733.051811330425	8
2	3529	733.085620631784	7
2	3533	733.733267263094	8
2	3534	734.024933547567	7
2	3538	734.408505251278	8
2	3540	735.074219463292	9
2	3541	735.163727124541	8
2	3544	736.190153576846	7
2	3548	736.261415977492	8
2	3550	736.518179383614	9
2	3551	737.189928705564	8
2	3554	738.043345241567	7
2	3557	738.879603643661	6
2	3560	739.783189929129	5
2	3564	739.850095196089	6
2	3565	740.92353489319	5
2	3569	740.944524848594	6
2	3571	741.234470559439	7
2	3572	741.751611604115	6
2	3576	741.793177700021	7
2	3577	742.89384532137	6
2	3581	742.978012149326	7
2	3583	743.556727600465	8
2	3585	743.750932739736	9
2	3586	743.850943793023	8
2	3590	744.227777028257	9
2	3591	744.848867484128	8
2	3594	745.819262649996	7
2	3597	746.875740713665	6
2	3601	747.641989811762	7
2	3602	747.752136401778	6
2	3606	748.146375403317	7
2	3608	748.476930728678	8
2	3609	748.599783865867	7
2	3612	749.488940683139	6
2	3618	750.33174856335	7
2	3620	750.468940165231	8
2	3621	750.565899595843	7
2	3624	751.583426436168	6
2	3627	752.782044575029	5
2	3631	753.007678284534	6
2	3633	753.413952167621	7
2	3634	753.75815442171	6
2	3638	754.094409554824	7
2	3639	754.695154976138	6
2	3643	755.081423874797	7
2	3645	755.258306112321	8
2	3646	755.50262576243	7
2	3649	756.608080439308	6
2	3652	757.800876143706	5
2	3656	758.104257136678	6
2	3657	758.634140796159	5
2	3661	759.274446174422	6
2	3662	759.748333110978	5
2	3665	760.6099802324	4
2	3669	760.633444078442	5
2	3670	761.764710850586	4
2	3674	762.390936212805	5
2	3675	762.8291796612	4
2	3679	763.217750614508	5
2	3680	763.632424347234	4
2	3684	763.859636618367	5
2	3685	764.462541406454	4
2	3689	764.740720647938	5
2	3693	765.000367675197	6
2	3694	765.421517685933	5
2	3698	765.611125565899	6
2	3700	766.210164283412	7
2	3701	766.332419774534	6
2	3705	766.343230055315	7
2	3707	766.711262440975	8
2	3708	767.217238385921	7
2	3712	768.139026968533	8
2	3713	768.3629036548	7
2	3721	768.78697960803	8
2	3723	768.795626656892	9
2	3725	768.963879584811	10
2	3728	769.242917403058	9
2	3732	769.354179164303	10
2	3733	770.226771912948	9
2	3737	770.270832279231	10
2	3738	771.203714781851	9
2	3742	771.783523338095	10
2	3743	772.333268267233	9
2	3747	772.818103409861	10
2	3748	773.470237373877	9
2	3752	773.658474921532	10
2	3753	774.562358259726	9
2	3757	774.948697113278	10
2	3758	775.504269896578	9
2	3761	776.39360885242	8
2	3765	776.560783676119	9
2	3767	776.652106840498	10
2	3768	777.387855744213	9
2	3771	778.245534616001	8
2	3775	779.000939700522	9
2	3776	779.09334541982	8
2	3779	780.167699898537	7
2	3783	780.17923195984	8
2	3785	780.437794397327	9
2	3786	780.970216042492	8
2	3790	781.667075809024	9
2	3791	781.913791209962	8
2	3794	782.770595264006	7
2	3798	783.398053897989	8
2	3800	783.577995868428	9
2	3801	783.773496841117	8
2	3805	783.946304444907	9
2	3806	784.911037332974	8
2	3809	785.848686422817	7
2	3812	786.832810362838	6
2	3816	787.12262720893	7
2	3817	787.974610678609	6
2	3820	788.86494389683	5
2	3823	789.890294457637	4
2	3827	790.330306154884	5
2	3828	791.014382898286	4
2	3831	791.973886259403	3
2	3835	792.851672237872	4
2	3836	793.075077234153	3
2	3840	793.111614608157	4
2	3842	793.80736909005	5
2	3843	793.943204481937	4
2	3846	795.010255026668	3
2	3850	795.142271248632	4
2	3852	795.732781998043	5
2	3853	796.195195241775	4
2	3859	796.658693062729	5
2	3860	797.353400515429	4
2	3864	797.837693531498	5
2	3865	798.360771925784	4
2	3869	798.833841548227	5
2	3870	799.537490511163	4
2	3874	800.155740759766	5
2	3875	800.460295839178	4
2	3879	800.609754411323	5
2	3881	800.659653991729	6
2	3883	800.783092327328	7
2	3885	801.449546157603	8
2	3886	801.545175043529	7
2	3890	802.340497623629	8
2	3891	802.345370804554	7
2	3895	802.870518290861	8
2	3896	803.322777460924	7
2	3900	803.611364768591	8
2	3901	804.250023806876	7
2	3905	804.687478426704	8
2	3907	805.166659366423	9
2	3908	805.269451973437	8
2	3911	806.237908628991	7
2	3915	806.484345104157	8
2	3916	807.133499557374	7
2	3919	808.30732777057	6
2	3923	808.414506324194	7
2	3925	808.922266722109	8
2	3927	808.930720042762	9
2	3928	809.378375094512	8
2	3932	809.751123476463	9
2	3933	810.492166981415	8
2	3937	810.560545715091	9
2	3939	810.825273693004	10
2	3940	811.511643874587	9
2	3944	812.245620873853	10
2	3945	812.489062600245	9
2	3948	813.480962527112	8
2	3951	814.422158183006	7
2	3954	815.487949371373	6
2	3958	816.195117500818	7
2	3960	816.414330639583	8
2	3961	816.682024184929	7
2	3964	817.863946982881	6
2	3967	818.707418340014	5
2	3971	819.162233391363	6
2	3972	819.907042019011	5
2	3976	820.196984250001	6
2	3978	820.607157197143	7
2	3980	820.830260800115	8
2	3981	820.918383631797	7
2	3985	821.161758963834	8
2	3987	821.470585882328	9
2	3989	821.48363611403	10
2	3991	821.692261376175	11
2	3993	821.780239062191	12
2	3994	821.856119080854	11
2	3998	821.903894937082	12
2	3999	822.710906751209	11
2	4003	823.061753905768	12
2	4004	823.573261510895	11
2	4008	824.313057141504	12
2	4010	824.424910275986	13
2	4011	824.616800980677	12
2	4014	825.501836232037	11
2	4018	826.005729707781	12
2	4019	826.583963160158	11
2	4023	826.602011132872	12
2	4025	827.388323817977	13
2	4026	827.490615462546	12
2	4030	827.60700975431	13
2	4031	828.397281323687	12
2	4035	828.622017715495	13
2	4038	829.589747437776	12
2	4042	829.700894526349	13
2	4043	830.701095084415	12
2	4046	831.725832722743	11
2	4050	832.184776714794	12
2	4051	832.577589326666	11
2	4055	832.689110067661	12
2	4057	832.77347319106	13
2	4059	832.913725788465	14
2	4061	833.375391098114	15
2	4062	833.42375354761	14
2	4066	833.680719804077	15
2	4069	834.367046994099	14
2	4073	834.888999141511	15
2	4074	835.304913009366	14
2	4078	835.625597574326	15
2	4079	836.217821424397	14
2	4082	837.331295749767	13
2	4086	837.422216992461	14
2	4089	838.310316114443	13
2	4092	839.144233781415	12
2	4096	839.242542523095	13
2	4098	839.946197084433	14
2	4099	840.046275759059	13
2	4103	840.617653903569	14
2	4104	841.150987909771	13
2	4107	842.325024746488	12
2	4111	842.400064879747	13
2	4112	843.214838051646	12
2	4115	844.024052809401	11
2	4118	844.964887728205	10
2	4122	845.163730280159	11
2	4123	845.944299077557	10
2	4126	846.89529261993	9
2	4130	847.598834242799	10
2	4131	847.98556909071	9
2	4135	848.939422694597	10
2	4137	849.031923261195	11
2	4138	849.106196405401	10
2	4142	850.221248252325	11
2	4143	850.266077252699	10
2	4147	850.533455218972	11
2	4149	851.249776034239	12
2	4150	851.342515777646	11
2	4153	852.285377893446	10
2	4156	853.248756525142	9
2	4159	854.113868043141	8
2	4163	854.116603512243	9
2	4165	854.322338735389	10
2	4166	855.036765346618	9
2	4170	855.126794117693	10
2	4172	855.135422433609	11
2	4174	855.263609052332	12
2	4175	855.869047140831	11
2	4178	856.862261196354	10
2	4182	857.601922927637	11
2	4183	857.824438902491	10
2	4187	857.880149550707	11
2	4189	857.898016317751	12
2	4191	858.665469461303	13
2	4192	858.805683681404	12
2	4195	859.626635767927	11
2	4198	860.473589020816	10
2	4202	860.700959763328	11
2	4204	860.721404462299	12
2	4205	861.288828379789	11
2	4209	861.928096271716	12
2	4210	862.100870716514	11
2	4214	863.130747518815	12
2	4215	863.286948356347	11
2	4219	863.51798000881	12
2	4221	864.098822357684	13
2	4222	864.099512259232	12
2	4225	864.920328395477	11
2	4229	865.224427400819	12
2	4230	866.072663497961	11
2	4234	866.849440920844	12
2	4235	867.112769806142	11
2	4239	867.644817632393	12
2	4240	868.185308605841	11
2	4243	869.076622150595	10
2	4246	869.954075381103	9
2	4250	870.512003983865	10
2	4252	870.587291577248	11
2	4254	870.640053304145	12
2	4255	871.138895600232	11
2	4259	871.338441431514	12
2	4261	871.874018728145	13
2	4262	871.965832139774	12
2	4265	872.778040655832	11
2	4269	873.54967108859	12
2	4270	873.757439397405	11
2	4273	874.559735502339	10
2	4276	875.580468230451	9
2	4280	876.370322509648	10
2	4281	876.432017992473	9
2	4285	876.710443712891	10
2	4286	877.384184776096	9
2	4290	877.553743720403	10
2	4291	878.28957495218	9
2	4296	879.157622329181	8
2	4300	879.271306626514	9
2	4301	880.101712469699	8
2	4305	880.142130540063	9
2	4307	880.483756019773	10
2	4308	881.262698301336	9
2	4311	882.154424288346	8
2	4315	882.205454799422	9
2	4317	883.126058516594	10
2	4318	883.254509789346	9
2	4322	883.408887396013	10
2	4324	883.452873321254	11
2	4325	884.409070494248	10
2	4329	884.872921281153	11
2	4331	884.951013928914	12
2	4332	885.406635786163	11
2	4336	885.538531135266	12
2	4338	885.964289541734	13
2	4340	886.159773381792	14
2	4341	886.267354422564	13
2	4345	886.49240584004	14
2	4346	887.127807293402	13
2	4349	888.01172903193	12
2	4353	888.168697245464	13
2	4354	888.980243743712	12
2	4357	889.791639616748	11
2	4360	890.66872511938	10
2	4363	891.488307679759	9
2	4367	891.624242853874	10
2	4369	891.936922688592	11
2	4370	892.585495347099	10
2	4374	893.375975605955	11
2	4376	893.403348967147	12
2	4377	893.684201863257	11
2	4383	894.808586188931	12
2	4384	894.85574026698	11
2	4387	895.909676228033	10
2	4391	896.093867153878	11
2	4393	896.191088293601	12
2	4394	897.068181553518	11
2	4398	897.148474522985	12
2	4400	897.55221907547	13
2	4401	897.971106403542	12
2	4404	898.881508197111	11
2	4407	899.784934481454	10
2	4411	899.909367338979	11
2	4413	900.249748510339	12
2	4415	900.3335331501	13
2	4417	900.610210096109	14
2	4418	900.754063834564	13
2	4421	901.599139880051	12
2	4424	902.737631384877	11
2	4427	903.826923013048	10
2	4431	903.902323861186	11
2	4432	904.860869769135	10
2	4437	905.71446443185	9
2	4441	905.802011980617	10
2	4445	906.211281690321	11
2	4446	906.866161812132	10
2	4449	907.674937861914	9
2	4453	908.172006213937	10
2	4454	908.740405914782	9
2	4458	909.117647777783	10
2	4461	909.580536994001	9
2	4465	910.236450760813	10
2	4467	910.518650916089	11
2	4468	910.631987069955	10
2	4472	911.399308269035	11
2	4475	911.746080628818	10
2	4479	912.037233199497	11
2	4481	912.59970708714	12
2	4482	912.791623524426	11
2	4486	912.98604738008	12
2	4487	913.806479555404	11
2	4491	914.87214132419	12
2	4492	914.887966594974	11
2	4495	915.90355010744	10
2	4499	916.214201237269	11
2	4501	916.477767933518	12
2	4502	916.835326569283	11
2	4506	917.852199892094	12
2	4507	917.943017999956	11
2	4510	918.99371132137	10
2	4514	919.114226600178	11
2	4516	919.175981611753	12
2	4518	919.557672634596	13
2	4520	919.747144230266	14
2	4521	919.974864018091	13
2	4525	920.718755523912	14
2	4526	920.994471149274	13
2	4529	922.125591010821	12
2	4533	922.266925499954	13
2	4535	922.787235989897	14
2	4536	923.151527280395	13
2	4539	923.968553890509	12
2	4543	924.793777871791	13
2	4545	924.915339217107	14
2	4546	925.046293065639	13
2	4550	925.346751148663	14
2	4551	926.199229476636	13
2	4555	926.57921834844	14
2	4556	927.333355947246	13
2	4560	928.283366151099	14
2	4561	928.347461483197	13
2	4565	928.368910269979	14
2	4567	928.421566593112	15
2	4569	928.883816155081	16
2	4570	929.172346573731	15
2	4574	929.563140747903	16
2	4575	929.99741811672	15
2	4579	930.270114759451	16
2	4581	930.285719199168	17
2	4583	930.33773881029	18
2	4586	931.007064048143	17
2	4589	932.17965773301	16
2	4592	932.995596037561	15
2	4598	933.674106908867	16
2	4600	933.712544414429	17
2	4601	934.019711640885	16
2	4605	934.378911673583	17
2	4607	934.734328650532	18
2	4609	934.871798969461	19
2	4612	935.190596545244	18
2	4615	936.290567170212	17
2	4618	937.164264597965	16
2	4622	937.461032389003	17
2	4623	938.157348392753	16
2	4626	939.041564709542	15
2	4629	939.88101956317	14
2	4633	940.184781170628	15
2	4634	940.686259993853	14
2	4638	940.759990184953	15
2	4639	941.709283759573	14
2	4642	942.700006577407	13
2	4646	943.22845017267	14
2	4648	943.594904574447	15
2	4649	943.59675857512	14
2	4654	944.66955866072	13
2	4657	945.698270891455	12
2	4661	945.753238232205	13
2	4663	945.753434010717	14
2	4664	946.868059658573	13
2	4668	947.44252092094	14
2	4669	947.670661959366	13
2	4673	947.764261149773	14
2	4675	948.264344488511	15
2	4676	948.632930308987	14
2	4680	949.334271594289	15
2	4681	949.474564273224	14
2	4684	950.486332073563	13
2	4687	951.575924931594	12
2	4691	951.880483950227	13
2	4693	952.288840620539	14
2	4695	952.392351601466	15
2	4698	952.559940329321	14
2	4703	953.487227799312	13
2	4707	953.6193904838	14
2	4709	954.283315664928	15
2	4710	954.599082412884	14
2	4713	955.664710010995	13
2	4719	956.515715179205	14
2	4720	956.560886616294	13
2	4723	957.691202154883	12
2	4726	958.4972820341	11
2	4730	958.956824583433	12
2	4732	958.960039010519	13
2	4733	959.441434231156	12
2	4737	960.590385213456	13
2	4738	960.635355665849	12
2	4742	961.10686148072	13
2	4744	961.193396908778	14
2	4746	961.387911802531	15
2	4748	961.525634201435	16
2	4749	961.531802374346	15
2	4753	961.80205074459	16
2	4755	962.521267429544	17
2	4756	962.569835330954	16
2	4760	962.885294042405	17
2	4762	962.987082220831	18
2	4763	963.585795725266	17
2	4767	964.223579729588	18
2	4768	964.638944087307	17
2	4772	964.766787454158	18
2	4774	964.963592365536	19
2	4775	965.714060771781	18
2	4778	966.5754683955	17
2	4781	967.648914207461	16
2	4786	968.474744759629	15
2	4789	969.48157152118	14
2	4793	970.215075728222	15
2	4795	970.239671044526	16
2	4796	970.429312078597	15
2	4800	971.403072913041	16
2	4801	971.436400103698	15
2	4805	971.70497315662	16
2	4806	972.404474903027	15
2	4810	973.049448106529	16
2	4811	973.377639633453	15
2	4815	973.725115964585	16
2	4817	974.07628919655	17
2	4818	974.296501914355	16
2	4822	974.611637919385	17
2	4824	975.271085844775	18
2	4825	975.349064160268	17
2	4829	976.18594708587	18
2	4830	976.261318443473	17
2	4833	977.084443803168	16
2	4837	977.62790389354	17
2	4839	977.731516960355	18
2	4841	978.116412084564	19
2	4842	978.268278421591	18
2	4846	978.816303427897	19
2	4847	979.403441114574	18
2	4851	979.456338150487	19
2	4852	980.325196224674	18
2	4855	981.402572847567	17
2	4859	981.414052369641	18
2	4860	982.473062549196	17
2	4866	983.277584626665	18
2	4867	983.304289142918	17
2	4871	983.553759799996	18
2	4873	984.321424362091	19
2	4874	984.323102474436	18
2	4878	985.190038355902	19
2	4879	985.216629725918	18
2	4883	985.928313831993	19
2	4884	986.105870136004	18
2	4887	987.113419564478	17
2	4891	987.264801281428	18
2	4893	987.476366584048	19
2	4895	987.689687665859	20
2	4896	987.981274162922	19
2	4899	988.809603905063	18
2	4902	989.737433213126	17
2	4907	990.866463657133	16
2	4910	991.796805067584	15
2	4913	992.807460392118	14
2	4917	993.222788580912	15
2	4919	993.291659021726	16
2	4921	993.726201246328	17
2	4922	993.942563168649	16
2	4927	995.079129325357	15
2	4930	995.95435442891	14
2	4933	997.136850433275	13
2	4936	998.294570996556	12
2	4940	998.923613619833	13
2	4941	999.244762946702	12
2	4945	999.393726780062	13
2	4947	999.784319272062	14
2	4949	1000.276494286288	15
2	4950	1000.438911591973	14
2	4954	1000.97280786733	15
2	4956	1001.184809046954	16
2	4957	1001.334063969962	15
2	4962	1002.300412964113	14
2	4966	1003.104482626691	15
2	4967	1003.303625643477	14
2	4971	1003.36739509982	15
2	4973	1004.369793777782	16
2	4974	1004.465404796917	15
2	4978	1004.818452286457	16
2	4980	1005.496350716254	17
2	4981	1005.649135156013	16
2	4985	1006.568809106319	17
2	4987	1006.574039491258	18
2	4988	1006.578744026963	17
2	4992	1007.142842481893	18
2	4993	1007.400295093507	17
2	4997	1007.982272543236	18
2	4998	1008.511423952729	17
2	5004	1009.600206061358	18
2	5005	1009.658670239747	17
2	5009	1010.577669305927	18
2	5010	1010.639027253204	17
2	5013	1011.442004136034	16
2	5017	1011.943329171044	17
2	5019	1012.092998070327	18
2	5021	1012.14284248608	19
2	5022	1012.377118472048	18
2	5025	1013.472118619029	17
2	5029	1014.160413910584	18
2	5030	1014.531278559417	17
2	5034	1015.306273440197	18
2	5035	1015.345004303046	17
2	5039	1016.311146250643	18
2	5040	1016.347483007741	17
2	5043	1017.155275273454	16
2	5047	1017.159490379075	17
2	5049	1017.250771104264	18
2	5050	1018.138675419093	17
2	5054	1018.284180685547	18
2	5055	1019.241880954095	17
2	5058	1020.192256956679	16
2	5062	1020.392161229198	17
2	5064	1020.745642396244	18
2	5065	1021.345441061762	17
2	5069	1022.019478804857	18
2	5070	1022.520811625236	17
2	5074	1023.340270013451	18
2	5075	1023.506838565358	17
2	5079	1023.950068052929	18
2	5080	1024.666604853739	17
2	5083	1025.739619717226	16
2	5086	1026.562731159144	15
2	5090	1027.020548311119	16
2	5094	1027.319935970824	17
2	5095	1027.619210182727	16
2	5099	1027.734331806194	17
2	5101	1028.497691496793	18
2	5102	1028.666365212799	17
2	5106	1029.602872350504	18
2	5107	1029.728180208468	17
2	5110	1030.705885414072	16
2	5113	1031.549023954143	15
2	5117	1031.744150283763	16
2	5119	1031.80073208066	17
2	5121	1032.241001480253	18
2	5122	1032.68294147024	17
2	5126	1032.875997442204	18
2	5127	1033.512615334932	17
2	5131	1034.455871649607	18
2	5132	1034.657247967217	17
2	5136	1034.868990676309	18
2	5139	1035.486468768157	17
2	5142	1036.335364774559	16
2	5145	1037.478662069552	15
2	5148	1038.558578770459	14
2	5152	1039.332735213247	15
2	5153	1039.69337607123	14
2	5156	1040.556222820133	13
2	5160	1040.655276748987	14
2	5161	1041.420173252225	13
2	5165	1041.935391932302	14
2	5166	1042.463087049443	13
2	5172	1042.980859322033	14
2	5173	1043.303502876721	13
2	5177	1043.420535345006	14
2	5179	1043.422459328987	15
2	5181	1043.517840720065	16
2	5182	1044.494189306665	15
2	5186	1044.549533042069	16
2	5187	1045.614020022601	15
2	5190	1046.464501076322	14
2	5194	1046.638432683316	15
2	5196	1046.757639248479	16
2	5198	1047.422587141485	17
2	5199	1047.529451969489	16
2	5202	1048.525203930065	15
2	5207	1049.359184021447	14
2	5210	1050.452672237195	13
2	5214	1050.571612028511	14
2	5215	1051.495696864966	13
2	5219	1052.332609545194	14
2	5220	1052.355742191188	13
2	5223	1053.341585018057	12
2	5227	1053.665104443777	13
2	5228	1054.406828679368	12
2	5231	1055.492392764744	11
2	5235	1055.817860807755	12
2	5237	1055.913574426413	13
2	5238	1056.591986782421	12
2	5242	1056.809577554963	13
2	5244	1057.54218345603	14
2	5245	1057.639728082941	13
2	5248	1058.474902859462	12
2	5252	1058.837065809664	13
2	5253	1059.32536783334	12
2	5256	1060.368293858917	11
2	5260	1060.789117060147	12
2	5262	1061.097023129277	13
2	5263	1061.24573974902	12
2	5267	1061.822232778248	13
2	5268	1062.133111220731	12
2	5271	1063.149733661527	11
2	5275	1063.521292129695	12
2	5277	1063.850863709809	13
2	5279	1063.89742409053	14
2	5280	1064.20367889343	13
2	5284	1064.386676310179	14
2	5285	1065.017649524418	13
2	5289	1065.533956296754	14
2	5291	1065.725297765064	15
2	5293	1065.766625519016	16
2	5294	1065.957071795912	15
2	5298	1066.106920889468	16
2	5299	1066.876568777991	15
2	5302	1067.776502247659	14
2	5306	1068.208707423493	15
2	5307	1068.607110917607	14
2	5311	1069.445112653738	15
2	5312	1069.675291973484	14
2	5315	1070.787236105503	13
2	5319	1071.123958800547	14
2	5320	1071.62205308512	13
2	5324	1072.288635095794	14
2	5325	1072.819924235662	13
2	5329	1073.461633866685	14
2	5330	1074.005185568092	13
2	5334	1074.154836100635	14
2	5336	1074.817255119061	15
2	5337	1075.061692867467	14
2	5341	1075.519636988523	15
2	5342	1076.252949308643	14
2	5346	1076.364352252789	15
2	5347	1077.081783722473	14
2	5350	1078.194370869027	13
2	5353	1079.024748976474	12
2	5357	1079.255684423676	13
2	5359	1079.865523890986	14
2	5361	1080.056092008511	15
2	5362	1080.186384789405	14
2	5366	1080.431971120888	15
2	5367	1081.220462237989	14
2	5371	1081.799665252676	15
2	5372	1082.086011991223	14
2	5376	1082.295970281707	15
2	5378	1082.669193353872	16
2	5379	1083.234619836548	15
2	5383	1083.922963510399	16
2	5384	1084.333464170193	15
2	5388	1084.681622378565	16
2	5389	1085.246289577374	15
2	5393	1085.504426443829	16
2	5394	1086.364470358325	15
2	5397	1087.511709802544	14
2	5401	1087.850359516634	15
2	5403	1088.644259878501	16
2	5404	1088.688799644673	15
2	5407	1089.795334616715	14
2	5411	1090.524402161892	15
2	5412	1090.695866715575	14
2	5416	1090.926260400585	15
2	5417	1091.498143920621	14
2	5420	1092.44932031058	13
2	5424	1092.573538816174	14
2	5426	1093.278295522143	15
2	5427	1093.351151595118	14
2	5431	1093.496839898383	15
2	5433	1093.726340419992	16
2	5434	1094.217453105322	15
2	5438	1094.754843307021	16
2	5439	1095.361087624676	15
2	5443	1095.498109472577	16
2	5445	1095.684442814784	17
2	5446	1096.221026401635	16
2	5450	1096.511833519761	17
2	5451	1097.187931339856	16
2	5456	1098.127843784302	15
2	5460	1099.016186544886	16
2	5461	1099.085495390597	15
2	5465	1100.118091271418	16
2	5466	1100.284414328116	15
2	5470	1100.398704961422	16
2	5471	1101.30896568293	15
2	5475	1101.880869055163	16
2	5477	1101.892005804775	17
2	5478	1102.346639432239	16
2	5482	1103.248825837926	17
2	5483	1103.469110128509	16
2	5487	1104.012840155729	17
2	5490	1104.57368090315	16
2	5494	1105.179886085502	17
2	5495	1105.394992021231	16
2	5499	1105.741374335571	17
2	5500	1106.309037069364	16
2	5504	1106.926154337832	17
2	5505	1107.462452004051	16
2	5508	1108.34866450079	15
2	5512	1108.906007429996	16
2	5513	1109.312450679058	15
2	5518	1110.337346727999	14
2	5522	1110.910213601938	15
2	5524	1111.226459235727	16
2	5525	1111.374633861279	15
2	5528	1112.386980856342	14
2	5531	1113.381357730219	13
2	5534	1114.376275540368	12
2	5537	1115.230590239485	11
2	5541	1115.853852799032	12
2	5542	1116.403773864583	11
2	5546	1116.678972840773	12
2	5547	1117.324735396393	11
2	5551	1117.615231985366	12
2	5552	1118.353154501822	11
2	5556	1118.392475819087	12
2	5558	1119.017712363711	13
2	5559	1119.261933907997	12
2	5563	1119.560187267972	13
2	5565	1120.123297041444	14
2	5567	1120.285768839077	15
2	5569	1120.289939401586	16
2	5570	1120.356707314439	15
2	5574	1121.018669036228	16
2	5575	1121.508426883574	15
2	5579	1121.735522436623	16
2	5580	1122.613634655475	15
2	5583	1123.769471029508	14
2	5586	1124.774385643228	13
2	5589	1125.599697432238	12
2	5593	1126.397073695704	13
2	5594	1126.41546098873	12
2	5598	1126.439639084501	13
2	5599	1127.480964588877	12
2	5602	1128.483007502873	11
2	5606	1128.516503995301	12
2	5608	1129.086298240667	13
2	5609	1129.584871324935	12
2	5612	1130.687403656115	11
2	5615	1131.695685069581	10
2	5619	1132.449896183988	11
2	5620	1132.519104081245	10
2	5624	1133.537485315881	11
2	5625	1133.60519304326	10
2	5629	1133.734609020861	11
2	5630	1134.763124410195	10
2	5633	1135.637084100621	9
2	5637	1135.82510689938	10
2	5639	1136.406721634225	11
2	5640	1136.757140780373	10
2	5644	1137.689640687759	11
2	5645	1137.828618979307	10
2	5649	1138.061383583737	11
2	5650	1138.707588430533	10
2	5654	1138.837872013131	11
2	5655	1139.784797056524	10
2	5659	1140.296554555853	11
2	5660	1140.649030461201	10
2	5664	1140.825908130856	11
2	5666	1141.101601117836	12
2	5668	1141.266657897579	13
2	5669	1141.47053572707	12
2	5673	1142.151436838	13
2	5675	1142.250060461149	14
2	5676	1142.545057253392	13
2	5680	1142.713304395863	14
2	5682	1143.197260857433	15
2	5683	1143.559967603666	14
2	5687	1144.083062319065	15
2	5688	1144.520018293654	14
2	5692	1145.429699638174	15
2	5693	1145.553340834697	14
2	5697	1146.033923660952	15
2	5698	1146.66891493559	14
2	5702	1146.824868811209	15
2	5704	1146.987353577114	16
2	5706	1147.33000669652	17
2	5707	1147.730254560095	16
2	5711	1148.252610835122	17
2	5713	1148.502959243508	18
2	5715	1148.558772855592	19
2	5716	1148.742147029322	18
2	5719	1149.6970726984	17
2	5723	1150.56100859154	18
2	5724	1150.757836952378	17
2	5727	1151.897857656834	16
2	5733	1152.368683911079	17
2	5734	1152.721376021617	16
2	5737	1153.68734530801	15
2	5740	1154.50585898202	14
2	5744	1154.576002780612	15
2	5746	1154.63644663158	16
2	5748	1155.195306797832	17
2	5749	1155.47036520172	16
2	5753	1155.588939408487	17
2	5755	1155.97392314147	18
2	5756	1156.306031553858	17
2	5759	1157.109031400123	16
2	5763	1157.843000207215	17
2	5764	1158.147136764174	16
2	5768	1158.271090994308	17
2	5770	1158.426143979537	18
2	5772	1158.876772488809	19
2	5773	1159.016934487542	18
2	5777	1159.508010208195	19
2	5778	1160.0411075639	18
2	5782	1160.921703707618	19
2	5783	1161.034148579782	18
2	5787	1161.634820219826	19
2	5789	1161.641017728439	20
2	5790	1162.155141911509	19
2	5794	1163.073056376203	20
2	5795	1163.256530018656	19
2	5799	1163.437086074302	20
2	5800	1164.210175896476	19
2	5806	1164.935139021745	20
2	5807	1165.074467664531	19
2	5810	1165.988316522858	18
2	5814	1166.784092673064	19
2	5815	1167.058785385772	18
2	5820	1168.025962610304	17
2	5824	1168.37533002565	18
2	5826	1168.748128761621	19
2	5827	1169.044310595974	18
2	5831	1169.568913061606	19
2	5832	1170.238003389205	18
2	5836	1170.261310143923	19
2	5838	1170.964648274776	20
2	5839	1171.385465923644	19
2	5843	1171.816485345443	20
2	5844	1172.397458482947	19
2	5848	1172.403862694041	20
2	5850	1172.559461999698	21
2	5852	1173.27572638579	22
2	5853	1173.3836488089	21
2	5856	1174.306263867341	20
2	5860	1174.570551598985	21
2	5861	1175.318266916316	20
2	5864	1176.296791696589	19
2	5868	1176.988276276597	20
2	5869	1177.407482341159	19
2	5872	1178.417165543552	18
2	5876	1178.717943589811	19
2	5880	1179.402313973008	20
2	5881	1179.436139280483	19
2	5885	1179.946924982613	20
2	5886	1180.567782241054	19
2	5890	1181.178738744893	20
2	5891	1181.757785816439	19
2	5894	1182.661306690187	18
2	5898	1183.132376484617	19
2	5899	1183.670504004736	18
2	5902	1184.686938628037	17
2	5906	1185.349629495772	18
2	5908	1185.35318894188	19
2	5909	1185.527510600392	18
2	5913	1185.740407654173	19
2	5914	1186.662017036271	18
2	5918	1186.821492701638	19
2	5920	1187.556036644613	20
2	5921	1187.78388383076	19
2	5925	1187.998255633258	20
2	5928	1188.856439144112	19
2	5931	1189.910185506422	18
2	5935	1190.320074570396	19
2	5937	1190.861508948571	20
2	5938	1191.07726279138	19
2	5942	1191.126085567845	20
2	5943	1191.913362493779	19
2	5947	1191.931794136266	20
2	5949	1192.137844452437	21
2	5950	1192.977695293299	20
2	5954	1193.61090619691	21
2	5955	1194.025567314255	20
2	5959	1194.096800920887	21
2	5960	1195.090603766723	20
2	5963	1196.247930522582	19
2	5967	1196.520635867427	20
2	5968	1197.311650135501	19
2	5971	1198.194788730091	18
2	5975	1198.23983014096	19
2	5977	1198.522191815237	20
2	5979	1198.859837609449	21
2	5980	1199.185022099635	20
2	5984	1200.114938108807	21
2	5985	1200.311098311136	20
2	5988	1201.228314242738	19
2	5992	1201.979670992451	20
2	5994	1202.066174454452	21
2	5995	1202.322626551094	20
2	5999	1202.579680199981	21
2	6000	1203.474580104037	20
2	6003	1204.308899116929	19
2	6006	1205.206240473262	18
2	6010	1205.884401269165	19
2	6011	1206.064306425623	18
2	6015	1206.529426992655	19
2	6017	1206.6635567709	20
2	6018	1206.918884931545	19
2	6021	1207.732351630128	18
2	6025	1208.315221529043	19
2	6027	1208.425107777657	20
2	6029	1208.52631617042	21
2	6030	1208.779900243453	20
2	6033	1209.786479123908	19
2	6037	1210.914784973184	20
2	6038	1210.919068182207	19
2	6042	1211.744912940897	20
2	6043	1211.925304494559	19
2	6047	1212.451872520838	20
2	6048	1212.799318635876	19
2	6051	1213.811807374603	18
2	6055	1214.463170606562	19
2	6056	1214.766403268224	18
2	6060	1215.260145873223	19
2	6061	1215.747580210625	18
2	6065	1215.775705104375	19
2	6066	1216.615957150834	18
2	6070	1216.841079474165	19
2	6072	1217.556883470341	20
2	6073	1217.580164707491	19
2	6077	1218.552265364985	20
2	6078	1218.722110027859	19
2	6082	1219.360539647446	20
2	6083	1219.914716597127	19
2	6087	1220.128212067111	20
2	6088	1220.879700458648	19
2	6092	1221.005746414883	20
2	6094	1221.506299221113	21
2	6095	1221.684930644876	20
2	6100	1222.867078879608	19
2	6103	1223.685375173988	18
2	6107	1223.796553475984	19
2	6109	1224.445585371784	20
2	6110	1224.723346254455	19
2	6114	1225.385742110318	20
2	6115	1225.668272286413	19
2	6119	1225.872686915791	20
2	6120	1226.617313863562	19
2	6123	1227.54563426817	18
2	6127	1228.248264187393	19
2	6128	1228.729641944675	18
2	6132	1228.917141228546	19
2	6136	1229.661851052078	20
2	6137	1229.849403602949	19
2	6141	1230.198619535161	20
2	6142	1231.020560239761	19
2	6146	1231.285959177535	20
2	6147	1231.87965292441	19
2	6151	1231.918705634543	20
2	6153	1232.217000429651	21
2	6155	1232.565635394444	22
2	6157	1232.857568304544	23
2	6158	1232.878549697663	22
2	6162	1232.99320038526	23
2	6163	1233.989128642197	22
2	6166	1234.970625454321	21
2	6170	1235.636877527366	22
2	6171	1235.906243676826	21
2	6175	1236.093225685723	22
2	6176	1236.964233897015	21
2	6180	1237.150084277266	22
2	6181	1237.770102787151	21
2	6185	1238.166663776334	22
2	6186	1238.616695779788	21
2	6189	1239.783699794526	20
2	6192	1240.821542862563	19
2	6196	1240.826518133788	20
2	6198	1241.130531493052	21
2	6199	1241.821153439621	20
2	6203	1241.851222807654	21
2	6204	1242.871499760861	20
2	6207	1243.721071853342	19
2	6211	1244.532965640777	20
2	6213	1244.662471491716	21
2	6214	1244.788694887648	20
2	6217	1245.769773855007	19
2	6221	1246.211607626671	20
2	6222	1246.96164629482	19
2	6226	1247.075833104609	20
2	6227	1247.907317870988	19
2	6231	1248.045587281225	20
2	6234	1248.940385713747	19
2	6238	1249.126767413889	20
2	6239	1250.031602418741	19
2	6242	1251.065538279006	18
2	6245	1252.181936811322	17
2	6249	1252.234754201641	18
2	6251	1252.451429955024	19
2	6252	1253.307807522399	18
2	6255	1254.458960758282	17
2	6259	1254.632557497331	18
2	6261	1254.670440577585	19
2	6263	1254.814203112141	20
2	6265	1254.864589345531	21
2	6266	1255.317724162659	20
2	6270	1255.392101205672	21
2	6273	1256.514818541838	20
2	6277	1257.409609880951	21
2	6278	1257.529141285123	20
2	6282	1258.18730565787	21
2	6283	1258.701870711652	20
2	6286	1259.765113447645	19
2	6290	1260.055765668153	20
2	6292	1260.407757996709	21
2	6295	1260.68229900919	20
2	6298	1261.821303751544	19
2	6301	1262.650849366878	18
2	6304	1263.714024877586	17
2	6308	1264.592869104415	18
2	6310	1264.707883012672	19
2	6311	1264.732308680229	18
2	6314	1265.827303547263	17
2	6318	1266.120761651065	18
2	6320	1266.505838606735	19
2	6322	1266.820059809556	20
2	6323	1266.987181273419	19
2	6327	1267.013048040497	20
2	6328	1267.803957200832	19
2	6332	1268.427280222951	20
2	6334	1268.599401174583	21
2	6335	1268.868250509574	20
2	6338	1269.998200430385	19
2	6342	1270.713988308773	20
2	6343	1271.068726590312	19
2	6347	1271.803324178973	20
2	6348	1272.048342011346	19
2	6352	1272.892286541685	20
2	6353	1272.967077588978	19
2	6356	1273.871547593864	18
2	6359	1274.884914434364	17
2	6362	1275.741461519839	16
2	6365	1276.646502724977	15
2	6369	1277.424172157626	16
2	6371	1277.510961532811	17
2	6372	1277.81607455177	16
2	6375	1278.891216236667	15
2	6379	1279.001685542757	16
2	6381	1279.618529453094	17
2	6383	1279.72865796939	18
2	6385	1279.913584275664	19
2	6387	1279.996827951152	20
2	6388	1280.028086945263	19
2	6391	1281.048358211701	18
2	6394	1282.201149138657	17
2	6397	1283.068163071328	16
2	6401	1283.296076893466	17
2	6402	1284.143572859314	16
2	6406	1284.206350627888	17
2	6408	1284.268162277485	18
2	6409	1285.064965821744	17
2	6412	1285.957322955911	16
2	6416	1286.645875313534	17
2	6418	1286.65758686918	18
2	6420	1287.037297414847	19
2	6421	1287.12025150092	18
2	6425	1287.276523062705	19
2	6427	1287.956463716155	20
2	6428	1288.121048633136	19
2	6432	1288.222146315845	20
2	6433	1289.162875108082	19
2	6437	1289.846293230154	20
2	6439	1289.98765891309	21
2	6440	1290.318712882266	20
2	6444	1290.465688699837	21
2	6445	1291.203506552369	20
2	6449	1291.9229362678	21
2	6450	1292.187012525775	20
2	6454	1292.535245728917	21
2	6455	1293.146728915196	20
2	6458	1294.09541639838	19
2	6462	1294.586029356424	20
2	6464	1294.612760693136	21
2	6465	1295.267624000493	20
2	6469	1295.79807339634	21
2	6470	1296.404793437138	20
2	6473	1297.297630529977	19
2	6477	1297.69311536662	20
2	6479	1297.841031019826	21
2	6480	1298.125807279661	20
2	6485	1298.999826190468	19
2	6488	1299.907878102768	18
2	6491	1300.779475182887	17
2	6495	1301.394781835213	18
2	6496	1301.604582448523	17
2	6499	1302.590739160157	16
2	6503	1302.844485099672	17
2	6505	1303.051108896782	18
2	6506	1303.643017213824	17
2	6510	1304.519412849792	18
2	6512	1304.552942309978	19
2	6513	1304.697859729021	18
2	6517	1304.967462729993	19
2	6518	1305.730843170392	18
2	6522	1306.165437990637	19
2	6523	1306.656238309885	18
2	6527	1307.423390172532	19
2	6528	1307.844922173801	18
2	6532	1307.94764545045	19
2	6534	1308.510270808592	20
2	6535	1308.874193098149	19
2	6539	1309.151948784009	20
2	6540	1309.869959133151	19
2	6543	1310.69778555905	18
2	6547	1311.024478482483	19
2	6548	1311.547830976858	18
2	6552	1311.98188890005	19
2	6553	1312.61030471114	18
2	6557	1313.515877169006	19
2	6558	1313.720817389465	18
2	6561	1314.687581732902	17
2	6564	1315.55261965863	16
2	6568	1315.565626883487	17
2	6569	1316.559913894102	16
2	6573	1317.233132032765	17
2	6575	1317.611085940727	18
2	6576	1317.676338537723	17
2	6580	1317.862890587309	18
2	6581	1318.826395243719	17
2	6584	1319.815583414618	16
2	6587	1320.919103222933	15
2	6591	1321.203491097008	16
2	6592	1322.096566394843	15
2	6595	1323.022995244931	14
2	6599	1323.78163794454	15
2	6600	1324.202817267958	14
2	6604	1324.302743720623	15
2	6606	1324.762687548906	16
2	6607	1325.182493084982	15
2	6611	1325.386489304829	16
2	6613	1325.41233730737	17
2	6614	1326.001700947188	16
2	6618	1326.441548328904	17
2	6620	1326.457675770371	18
2	6622	1326.487631636639	19
2	6624	1326.914190102933	20
2	6625	1326.96609508352	19
2	6629	1327.750501523698	20
2	6631	1327.923784276297	21
2	6632	1327.959664240699	20
2	6636	1328.37536172435	21
2	6637	1329.117821044881	20
2	6641	1329.130109853886	21
2	6642	1330.237694534879	20
2	6645	1331.131398370616	19
2	6649	1331.710972938992	20
2	6650	1332.039243419967	19
2	6654	1332.306646848322	20
2	6656	1332.415612692088	21
2	6658	1332.60000536811	22
2	6659	1333.124326880961	21
2	6663	1333.505422846214	22
2	6665	1334.081493534177	23
2	6666	1334.143108029696	22
2	6670	1334.846654590294	23
2	6671	1335.001653809971	22
2	6675	1335.012525678761	23
2	6676	1335.838453339818	22
2	6680	1336.297419648252	23
2	6681	1336.710832273993	22
2	6685	1337.515812203666	23
2	6686	1337.792109927102	22
2	6690	1338.199750824551	23
2	6691	1338.712256175592	22
2	6695	1339.113330953721	23
2	6696	1339.654683498512	22
2	6701	1340.51854566311	21
2	6705	1340.71964259241	22
2	6706	1341.595625316757	21
2	6710	1341.681023902919	22
2	6711	1342.487418456315	21
2	6715	1342.573111652206	22
2	6716	1343.377205009698	21
2	6720	1343.788351535487	22
2	6723	1344.56687776431	21
2	6727	1345.307425377368	22
2	6728	1345.660783444564	21
2	6732	1346.029427241466	22
2	6734	1346.132158577304	23
2	6736	1346.456817474122	24
2	6737	1346.758905286654	23
2	6741	1347.012531052654	24
2	6742	1347.640535557116	23
2	6745	1348.512081523458	22
2	6749	1349.376350094536	23
2	6751	1349.451597796481	24
2	6752	1349.617558625745	23
2	6755	1350.588744136071	22
2	6759	1351.238527159371	23
2	6760	1351.645827104928	22
2	6766	1352.396715602024	23
2	6768	1352.637795790939	24
2	6769	1352.642564157056	23
2	6773	1353.571946997733	24
2	6774	1353.708534662271	23
2	6777	1354.838176779481	22
2	6781	1355.335388344223	23
2	6783	1355.568788431494	24
2	6784	1355.653011098909	23
2	6788	1356.727022068844	24
2	6789	1356.772204859401	23
2	6793	1357.288692028692	24
2	6795	1357.539437813289	25
2	6796	1357.830389989945	24
2	6799	1358.723982444159	23
2	6803	1359.204979905373	24
2	6804	1359.875796528287	23
2	6807	1360.912678273242	22
2	6811	1361.258741692509	23
2	6812	1361.837640626296	22
2	6817	1363.007611355498	21
2	6821	1363.200039865811	22
2	6822	1364.03034239871	21
2	6828	1364.569554026155	22
2	6829	1365.22125581739	21
2	6833	1365.560496068665	22
2	6835	1365.678716574689	23
2	6837	1366.155789320084	24
2	6838	1366.363717246368	23
2	6842	1366.58662457766	24
2	6843	1367.286395652532	23
2	6849	1368.266631593455	24
2	6850	1368.299808665864	23
2	6853	1369.395720481347	22
2	6857	1370.102337804175	23
2	6858	1370.396107622735	22
2	6862	1371.36064933096	23
2	6863	1371.510708576847	22
2	6866	1372.42989337159	21
2	6869	1373.523967982676	20
2	6873	1374.06571072259	21
2	6875	1374.11988668159	22
2	6876	1374.595274538487	21
2	6880	1374.694560259163	22
2	6882	1375.117849581817	23
2	6883	1375.522821312059	22
2	6887	1375.816844468758	23
2	6889	1376.139095238235	24
2	6891	1376.659194341893	25
2	6892	1376.678503643755	24
2	6896	1377.170982099867	25
2	6897	1377.661715222836	24
2	6901	1378.365400518128	25
2	6902	1378.622278534655	24
2	6906	1378.689750664795	25
2	6908	1379.377787104981	26
2	6909	1379.765933718566	25
2	6913	1380.093093127772	26
2	6915	1380.627054351749	27
2	6916	1380.864918566156	26
2	6920	1381.445117728478	27
2	6922	1381.617592930685	28
2	6923	1381.837180990945	27
2	6929	1382.600644642488	28
2	6930	1382.754370675735	27
2	6934	1382.873756300759	28
2	6935	1383.822016889728	27
2	6938	1384.794450760945	26
2	6941	1385.893511733166	25
2	6945	1386.189716656805	26
2	6947	1386.803697652428	27
2	6948	1386.899906853805	26
2	6954	1387.44708986834	27
2	6955	1387.937332158847	26
2	6959	1388.138319754749	27
2	6961	1388.912328824313	28
2	6962	1389.005613719704	27
2	6966	1389.291275106181	28
2	6967	1390.106948663326	27
2	6971	1390.124051654194	28
2	6972	1391.29467272296	27
2	6976	1391.677877965261	28
2	6977	1392.199358839294	27
2	6981	1392.302154766979	28
2	6982	1393.386497914357	27
2	6986	1393.436846069247	28
2	6988	1394.132835367411	29
2	6989	1394.195171265894	28
2	6996	1395.267286662975	27
2	7000	1395.632081068321	28
2	7002	1395.676798688241	29
2	7004	1395.690673555197	30
2	7006	1395.892597259291	31
2	7007	1396.137620500413	30
2	7010	1396.990358906456	29
2	7013	1398.098847793632	28
2	7017	1398.114343938655	29
2	7019	1398.876240036465	30
2	7020	1399.179126345117	29
2	7023	1399.991154559825	28
2	7026	1400.975183741965	27
2	7030	1401.016127844053	28
2	7032	1401.127189010091	29
2	7034	1401.853723085622	30
2	7035	1401.959482619476	29
2	7038	1403.061807877973	28
2	7042	1403.161730388422	29
2	7044	1403.382105977887	30
2	7046	1403.620244993004	31
2	7047	1404.135049236223	30
2	7051	1405.121740340731	31
2	7052	1405.313349531621	30
2	7056	1406.31653727721	31
2	7057	1406.380320206873	30
2	7061	1407.432866108538	31
2	7062	1407.522845780786	30
2	7066	1407.966727659308	31
2	7068	1408.42236440541	32
2	7069	1408.509023674328	31
2	7073	1408.90232622778	32
2	7074	1409.382200378209	31
2	7077	1410.456642664905	30
2	7081	1411.370021822588	31
2	7082	1411.479698102671	30
2	7087	1412.618906403735	29
2	7090	1413.547572401102	28
2	7094	1413.676149834293	29
2	7096	1414.057490295481	30
2	7098	1414.346566655814	31
2	7099	1414.426598373457	30
2	7102	1415.587866541586	29
2	7105	1416.429008019558	28
2	7109	1416.792102782489	29
2	7110	1417.510377285379	28
2	7114	1417.913166131753	29
2	7115	1418.621225227817	28
2	7119	1418.631795813564	29
2	7120	1419.71853794952	28
2	7124	1420.169698062157	29
2	7125	1420.785495604603	28
2	7129	1420.971144754264	29
2	7130	1421.884483212633	28
2	7134	1422.296181032479	29
2	7136	1422.444101923217	30
2	7138	1422.498369598453	31
2	7140	1422.648344830037	32
2	7142	1422.775590284277	33
2	7143	1422.864635434588	32
2	7147	1422.895132380633	33
2	7149	1423.428821358545	34
2	7150	1423.983314505154	33
2	7153	1425.032988872407	32
2	7156	1426.028228482911	31
2	7160	1426.497787491844	32
2	7161	1427.106612312635	31
2	7165	1427.38363709051	32
2	7166	1428.274263899149	31
2	7170	1428.670008527032	32
2	7172	1428.752349995323	33
2	7173	1429.41905735976	32
2	7176	1430.385687000797	31
2	7180	1431.199663549542	32
2	7181	1431.204785287593	31
2	7186	1432.15042805665	30
2	7190	1432.7038265993	31
2	7191	1433.298059585344	30
2	7194	1434.489839420866	29
2	7198	1434.711559762718	30
2	7200	1434.963121175667	31
2	7202	1434.993347293107	32
2	7204	1435.05631640541	33
2	7206	1435.057483241227	34
2	7209	1435.481734582994	33
2	7212	1436.482926433187	32
2	7215	1437.431645138495	31
2	7219	1437.967766944806	32
2	7220	1438.363607543175	31
2	7225	1439.410579884731	30
2	7229	1439.579670405625	31
2	7231	1439.814738423536	32
2	7232	1440.398903678664	31
2	7237	1441.308039583572	30
2	7241	1441.323806931896	31
2	7242	1442.384877267693	30
2	7246	1442.399323070929	31
2	7248	1442.706840096009	32
2	7249	1443.474720946633	31
2	7254	1444.489876822688	30
2	7258	1444.54174123514	31
2	7260	1445.049958099891	32
2	7261	1445.585256481476	31
2	7265	1445.780677645755	32
2	7266	1446.474021829318	31
2	7269	1447.647947819091	30
2	7272	1448.823381311938	29
2	7275	1449.829993987109	28
2	7279	1450.155707660735	29
2	7280	1450.788443579178	28
2	7284	1451.102514356483	29
2	7286	1451.467483606364	30
2	7287	1451.759848794181	29
2	7291	1452.583506876448	30
2	7292	1452.729477971166	29
2	7296	1453.405493063053	30
2	7297	1453.666980420544	29
2	7301	1454.030162641474	30
2	7309	1454.609899286285	31
2	7310	1454.836637401886	30
2	7314	1455.052991103998	31
2	7315	1455.721813298043	30
2	7318	1456.91389137118	29
2	7322	1457.21870039736	30
2	7323	1457.942674865228	29
2	7329	1458.232966730134	30
2	7331	1458.529346857876	31
2	7332	1458.99019794234	30
2	7336	1459.372477449822	31
2	7338	1459.450820438564	32
2	7340	1460.043152498276	33
2	7341	1460.141393305202	32
2	7345	1460.833575921171	33
2	7346	1461.015943051063	32
2	7349	1461.969159405705	31
2	7353	1462.493786005839	32
2	7354	1462.928682650652	31
2	7357	1463.806288308118	30
2	7361	1464.358819557662	31
2	7363	1464.434103643818	32
2	7365	1464.497130915725	33
2	7366	1464.728696224027	32
2	7369	1465.650941679281	31
2	7373	1465.845977555451	32
2	7375	1466.129196139805	33
2	7376	1466.534449376658	32
2	7379	1467.498356894523	31
2	7383	1467.898892352878	32
2	7385	1467.998161346678	33
2	7386	1468.408870550178	32
2	7389	1469.290519112654	31
2	7394	1470.189116250098	30
2	7398	1470.22663017968	31
2	7400	1470.636565650201	32
2	7403	1471.3245029324	31
2	7407	1471.60566304059	32
2	7409	1471.76311027065	33
2	7411	1472.188414012853	34
2	7412	1472.343886925679	33
2	7415	1473.292360543952	32
2	7418	1474.215632519805	31
2	7422	1474.656285326462	32
2	7424	1475.122012529455	33
2	7425	1475.187954355524	32
2	7429	1476.015327298503	33
2	7432	1476.34119309497	32
2	7437	1477.423798823291	31
2	7440	1478.228079838333	30
2	7444	1478.84172425467	31
2	7445	1479.186225497098	30
2	7450	1480.10359867162	29
2	7454	1481.139992878324	30
2	7455	1481.224316834592	29
2	7458	1482.273904912573	28
2	7462	1483.125446298436	29
2	7463	1483.15352181292	28
2	7467	1483.951680713972	29
2	7471	1484.000166015206	30
2	7472	1484.168100673546	29
2	7475	1485.25661767193	28
2	7479	1485.700183656167	29
2	7481	1485.884042943452	30
2	7482	1486.211093567432	29
2	7486	1486.662451583703	30
2	7487	1487.267497533308	29
2	7491	1487.271619564355	30
2	7493	1487.346588943611	31
2	7495	1487.497011868484	32
2	7496	1488.262318212008	31
2	7500	1488.384039890642	32
2	7502	1488.556543704934	33
2	7504	1488.991267673464	34
2	7505	1489.176875010254	33
2	7509	1489.566138944632	34
2	7510	1490.027975438656	33
2	7513	1491.139142102124	32
2	7517	1491.205840417377	33
2	7519	1491.399292041017	34
2	7521	1491.55641102262	35
2	7522	1492.251131624197	34
2	7526	1492.634591839334	35
2	7527	1493.280339516168	34
2	7531	1493.839974463688	35
2	7532	1494.388221407709	34
2	7536	1495.174711101053	35
2	7537	1495.379354106569	34
2	7541	1495.503455226517	35
2	7542	1496.192618838166	34
2	7545	1497.203229971816	33
2	7549	1497.533243417444	34
2	7551	1497.99608223641	35
2	7552	1498.095005801161	34
2	7556	1498.293022876801	35
2	7557	1498.912513404832	34
2	7561	1499.062368417637	35
2	7563	1499.64949687521	36
2	7564	1499.741197129645	35
2	7567	1500.713349399183	34
2	7571	1501.680848264574	35
2	7572	1501.836786969777	34
2	7576	1502.251048942458	35
2	7577	1502.87031027491	34
2	7581	1503.796499129319	35
2	7582	1503.818673026867	34
2	7586	1504.00105541157	35
2	7587	1504.922675440021	34
2	7591	1505.360199352163	35
2	7592	1505.734659724429	34
2	7596	1506.201996205393	35
2	7598	1506.526018581794	36
2	7599	1506.912560884215	35
2	7602	1508.014240853515	34
2	7606	1508.653487291011	35
2	7607	1508.885253237121	34
2	7610	1510.007584571678	33
2	7614	1510.021013812461	34
2	7616	1511.002372587402	35
2	7617	1511.129235319447	34
2	7621	1511.203366086625	35
2	7623	1511.982765554709	36
2	7624	1512.162415707324	35
2	7628	1512.279481538018	36
2	7629	1513.065660088815	35
2	7633	1514.125745198944	36
2	7634	1514.207336136073	35
2	7637	1515.058893962883	34
2	7640	1515.911655657951	33
2	7644	1516.848692078255	34
2	7645	1517.085755027671	33
2	7649	1517.189873741402	34
2	7651	1517.469203406349	35
2	7652	1517.944025024612	34
2	7656	1518.005512548108	35
2	7657	1518.874713410929	34
2	7661	1519.04226234367	35
2	7662	1519.714537123338	34
2	7665	1520.546065021519	33
2	7669	1521.228105490425	34
2	7670	1521.365522964418	33
2	7673	1522.53967992964	32
2	7677	1523.280059677397	33
2	7678	1523.63993274926	32
2	7681	1524.65052295069	31
2	7685	1525.084160546333	32
2	7687	1525.416974413743	33
2	7688	1525.80560959338	32
2	7692	1525.817775109148	33
2	7694	1526.065965421623	34
2	7695	1526.803250951998	33
2	7698	1527.604037467789	32
2	7701	1528.451155112617	31
2	7704	1529.64042895411	30
2	7708	1529.899796600429	31
2	7710	1530.226025390597	32
2	7712	1530.495767279531	33
2	7713	1530.70551337649	32
2	7716	1531.80230459229	31
2	7720	1532.084984149845	32
2	7722	1532.303585207289	33
2	7724	1532.672499639407	34
2	7725	1532.707488605128	33
2	7729	1532.796940688325	34
2	7731	1532.802772050156	35
2	7733	1533.639236284169	36
2	7734	1533.727776465592	35
2	7737	1534.875963076697	34
2	7740	1535.698595455782	33
2	7743	1536.770624346314	32
2	7747	1537.106995861563	33
2	7751	1537.624305944636	34
2	7752	1537.784988665981	33
2	7756	1538.089989924054	34
2	7758	1538.544892725793	35
2	7759	1538.667324037039	34
2	7763	1539.055039775527	35
2	7764	1539.813534986069	34
2	7768	1540.180726300052	35
2	7769	1540.910530454507	34
2	7773	1541.00674724442	35
2	7774	1541.763526907219	34
2	7778	1542.104331638704	35
2	7780	1542.170722732878	36
2	7782	1542.492322456041	37
2	7783	1542.843753606482	36
2	7786	1543.82780121903	35
2	7790	1543.882408413069	36
2	7792	1544.630230892715	37
2	7793	1544.672880225098	36
2	7796	1545.527663766435	35
2	7800	1545.559146061232	36
2	7801	1546.407651661272	35
2	7805	1546.603533237779	36
2	7806	1547.280009787745	35
2	7811	1548.30606824237	34
2	7815	1548.647061060611	35
2	7816	1549.116262221924	34
2	7819	1550.048859361215	33
2	7823	1550.049030406181	34
2	7827	1550.48432897656	35
2	7828	1551.198868289339	34
2	7832	1551.216498328555	35
2	7833	1552.125978918961	34
2	7836	1553.079004166956	33
2	7840	1553.950870930457	34
2	7842	1554.124223750411	35
2	7843	1554.187112197309	34
2	7847	1554.738727867172	35
2	7848	1555.020309075649	34
2	7851	1556.110119036428	33
2	7854	1557.165874727193	32
2	7857	1557.966459875304	31
2	7861	1558.696381346829	32
2	7862	1558.816909768741	31
2	7866	1558.828730284501	32
2	7868	1558.908403166212	33
2	7870	1559.027146804491	34
2	7871	1559.913947399921	33
2	7875	1560.399475785092	34
2	7876	1560.841065868858	33
2	7880	1561.137299639973	34
2	7881	1561.840037359606	33
2	7884	1562.768398103706	32
2	7888	1563.128963753181	33
2	7889	1563.709807846259	32
2	7892	1564.815431051917	31
2	7896	1565.213554955141	32
2	7898	1565.597755836238	33
2	7899	1565.708435026772	32
2	7902	1566.530370676361	31
2	7906	1566.844226847664	32
2	7907	1567.439101790294	31
2	7911	1567.728637174607	32
2	7913	1567.747986847035	33
[...]
5	132301	25478.378612690187	3322.7318091086
5	132316	25481.31838053954	4165.8739103123
5	132345	25487.851517871631	2910.6513469417
5	132482	25512.849794466005	1010.116751621
5	132499	25515.748569550881	1011.3430743319
5	132502	25516.623542031975	4178.4158857791
5	132560	25526.763677120816	3765.0596914468
5	132626	25540.953120151862	2924.8907347847
5	132633	25541.973737858097	2921.0333563415
5	132646	25544.956398958295	513.89284785982
5	132658	25548.703286624561	3340.6330947973
5	132744	25564.589359575932	1522.3036864482
5	132859	25589.645686273513	1523.93335134
5	132865	25591.645894767767	2485.0219171051
5	132934	25605.673574716183	3784.5463533808
5	132944	25607.903179875346	11160.836464807
5	133000	25615.921118771615	12071.490226584
5	133007	25616.832241419102	2488.0900085418
5	133018	25619.542147370852	7617.3330073638
5	133032	25621.316001938242	2487.2997243054
5	133055	25624.606673068232	1022.7649493857
5	133119	25637.150392164899	6571.275246468
5	133193	25651.299419381333	6564.9875697264
5	133323	25674.726516308964	4987.0440062142
5	133377	25682.444317903232	1024.0941398211
5	133385	25684.241841771222	2489.9797789806
5	133392	25685.175493138331	512.00404971884
5	133440	25693.20156037598	5413.152880156
5	133446	25695.138070967468	1020.4739903038
5	133517	25709.979891932244	2497.1080497078
5	133633	25733.348379125866	2947.9422372914
5	133716	25747.589025832387	4624.0106417626
5	133788	25762.266173391277	1523.125164278
5	133923	25786.601022095557	7992.7287321636
5	134112	25818.939090838793	1519.4973845531
5	134180	25833.507959066095	2010.1234304372
5	134187	25834.323007152552	5823.2464855062
5	134240	25845.628252148019	2962.9164538254
5	134296	25858.007445877928	4236.5233392804
5	134301	25859.002533973518	1014.7754384256
5	134306	25860.043146436333	504.73134194739
5	134329	25865.140591855484	2019.9437939668
5	134386	25876.942684569162	2506.2376039387
5	134443	25887.821371016325	5840.1954189041
5	134459	25891.798909914726	501.98687575586
5	134578	25912.283419360173	4667.6112200925
5	134694	25937.026556593691	505.27024950877
5	134714	25941.247133947302	502.8161721551
5	134742	25947.510344374131	7005.9378994615
5	134747	25948.433601236853	1527.1611564225
5	134815	25958.0450447123	2020.5131400559
5	134824	25959.072352286937	2976.6478983924
5	134907	25976.221318377036	2022.8430284188
5	134929	25980.409509838971	1016.6643245372
5	134932	25981.211963338072	4673.4948611506
5	135001	25996.243383740208	1524.0280149144
5	135006	25997.167892046871	5066.9086147143
5	135070	26009.053674156724	505.16376037241
5	135095	26014.110600712376	1026.8706255756
5	135300	26058.598971104477	1023.6579033049
5	135411	26079.371285830198	496.05714347727
5	135435	26083.427358925568	1532.8748951971
5	135580	26108.369622482584	494.46266531247
5	135585	26109.346935242267	1530.0381673683
5	135621	26117.173997513989	7443.9459012101
5	135745	26140.14776933197	8128.5409267251
5	135885	26164.979384233932	3446.7661044156
5	135944	26177.822070746718	504.56200874821
5	136075	26202.987631541153	512.99233283684
5	136097	26207.519962264073	1023.5098521887
5	136125	26212.899038424191	1015.8312222598
5	136140	26215.725226201244	7101.9815833273
5	136179	26220.37674762936	2032.5886289919
5	136186	26221.532353799638	1537.2823556978
5	136233	26230.364164270402	3462.7122986576
5	136243	26232.223409081751	5929.4368556543
5	136293	26241.882802410737	2031.465863175
5	136363	26254.232671486807	3007.8336079099
5	136418	26265.503021912219	3890.9445597941
5	136474	26275.766494304908	1029.8765936483
5	136558	26291.497959004286	509.43402640509
5	136659	26308.673650818446	1032.2172071434
5	136703	26318.816288379709	3021.9790007398
5	136745	26327.224619716909	3482.2221209844
5	136756	26329.940593529344	2532.5609910939
5	136803	26339.048511850779	4753.4373532369
5	136835	26345.083519401998	3905.4925253704
5	136952	26368.725594542678	3023.4918038489
5	137011	26380.46260429969	516.64659385355
5	137155	26408.156714931914	3931.6212425064
5	137206	26416.803090171274	1025.1340528391
5	137253	26426.024015445486	4356.3029585508
5	137290	26433.127452243249	1028.9647542556
5	137389	26450.265389703809	3498.4431044865
5	137431	26459.636565542723	1549.8378726473
5	137572	26484.336145557496	517.95377217059
5	137647	26499.069542522389	1544.8202300663
5	137716	26511.977072336092	8586.5161282144
5	137730	26514.098453276358	6387.7954093318
5	137757	26519.184822578575	3943.3105173357
5	137907	26548.359794701854	2563.5931564876
5	137988	26563.695417830101	3050.7682123907
5	137993	26564.801346806749	2056.8133810289
5	138058	26578.481877182271	2571.9037009652
5	138237	26612.273416196031	3972.9414744402
5	138280	26619.70336424386	9908.8645270453
5	138294	26622.043272423688	3525.2213657127
5	138297	26622.920098669305	3974.5558700667
5	138404	26644.435228919369	6432.2358145769
5	138412	26646.43366519496	4829.5677662177
5	138521	26667.893065153381	8327.5678212132
5	138528	26668.738073299585	3534.6435816697
5	138531	26669.642573132871	5652.6126557695
5	138605	26683.99824323006	3538.3385109419
5	138661	26696.361025353932	9307.7443844721
5	138703	26704.275100789816	1040.0159437636
5	138722	26707.226648057011	517.06670478757
5	138792	26719.618051039651	3990.6002952482
5	138927	26745.202602387073	1049.0995436946
5	139043	26769.551329376122	4850.7496153003
5	139046	26770.712576874478	3539.3286769158
5	139099	26779.306656857993	4418.4925318998
5	139102	26780.250849376007	2570.6056699879
5	139131	26785.862337821762	4850.6386296553
5	139188	26797.168887486628	8020.6293547135
5	139308	26823.763909906283	1047.1536578727
5	139353	26833.134070366755	9053.1310848724
5	139358	26834.018815069221	1049.5518431284
5	139412	26843.962361859852	2576.9391261086
5	139441	26849.126624805988	2073.8725224146
5	139535	26864.5766299223	3072.6471137625
5	139540	26865.379852098826	12602.588540977
5	139560	26869.749403675128	2075.4186242687
5	139632	26884.719344721685	3556.8911995403
5	139679	26894.272777093896	4023.2848364419
5	139751	26907.629564534635	5293.6990158976
5	139789	26913.757843690966	1568.0676330308
5	139893	26933.601855543207	539.79121782226
5	139918	26938.632647158995	4466.2734452256
5	139927	26941.709403196115	7288.1603994414
5	139961	26947.845418327067	2079.4847448989
5	139996	26954.33591932873	537.73031772267
5	140012	26957.978925420854	7690.6123200562
5	140072	26969.58374670823	4899.1540452797
5	140094	26973.653096178312	6125.9175607661
5	140131	26982.380991009109	2095.5436471989
5	140179	26989.803612833142	4044.8122139588
5	140187	26991.698292342245	8060.0087416914
5	140350	27021.647924870202	5321.4766043575
5	140481	27047.66333689461	2091.9759766425
5	140637	27076.991223633702	1065.1778919452
5	140735	27098.671050290525	1584.4347912122
5	140738	27099.668787190732	3593.7956557806
5	140763	27105.016494630692	5357.9058602675
5	140875	27127.543389758883	5780.0763613591
5	141012	27152.200293542766	10446.788175188
5	141226	27190.969771687264	9527.940539746
5	141241	27193.841885909575	4081.1977322943
5	141276	27198.816524687547	8872.1564827004
5	141301	27204.319519214562	2112.6883190488
5	141369	27218.530222238085	550.03644738313
5	141398	27225.699261206805	1587.2385570663
5	141411	27228.970254191428	10171.169165965
5	141515	27248.686206212312	1591.5909678843
5	141544	27253.846625964947	2107.4456294723
5	141559	27256.490523262459	546.56377532272
5	141627	27270.712508152469	4540.4962439061
5	141639	27272.663369894258	10506.475870634
5	141720	27287.409722425274	19529.673673947
5	141837	27310.704704020494	5817.7080409784
5	141917	27326.901222292191	11524.158708459
5	141985	27338.325215848022	547.63156536789
5	142053	27351.729434053551	15126.261231284
5	142075	27355.486822231996	540.63170357985
5	142106	27362.762565833653	2614.6615245919
5	142130	27368.972483174082	4559.7344272008
5	142201	27380.93565031164	4989.5764332175
5	142283	27398.502972338485	3621.0353775972
5	142306	27403.608161552667	547.35235926594
5	142334	27409.878582034582	3625.5000825481
5	142370	27416.332652513074	1609.7786710647
5	142409	27423.059960617728	2629.1812168519
5	142446	27429.877658954586	8218.8997008776
5	142534	27447.458954198236	8592.7065774845
5	142563	27452.471728677067	5845.0836818763
5	142647	27469.578117845344	8944.2516799401
5	142656	27470.700199210967	9274.7581447762
5	142713	27481.012746001919	5014.3351437201
5	142723	27483.179964717244	1090.0166054441
5	142733	27485.194516555358	5853.6590022665
5	142797	27497.051463633912	9625.7341204755
5	142813	27501.183863464134	1087.0121131734
5	142894	27518.279557090109	2639.2245878122
5	142906	27520.023195761484	1088.7845165055
5	142925	27522.850008341246	2120.4166511715
5	142981	27533.45207249126	1088.9139275171
5	142994	27536.458204984614	6671.9034553431
5	143008	27540.135891892058	1607.4455684883
5	143011	27541.005199902267	6281.0878791289
5	143064	27549.415811651708	7856.0301178294
5	143079	27552.775525242039	543.8477758869
5	143282	27590.330569023962	3639.8425165537
5	143319	27597.769575973272	2131.7272635737
5	143372	27608.506078251402	4130.8455297695
5	143394	27612.465329035974	7077.0311385504
5	143404	27614.402083207711	4130.783663725
5	143417	27617.382611514113	6306.2728584297
5	143568	27648.802419772233	5481.5942020504
5	143848	27702.731735930083	551.17629921258
5	143895	27712.19386043712	5077.458484687
5	143930	27717.52186789583	2668.6483508496
5	143937	27718.690202198695	4171.4477695563
5	143997	27730.540823814324	1630.518475771
5	144023	27734.281755507044	3684.2624679002
5	144109	27752.238620342271	3688.2108594143
5	144136	27757.07163026524	4183.6759846905
5	144170	27765.298271539297	560.49799622145
5	144228	27777.852299010617	8361.7047087916
5	144245	27780.851122957331	9445.6062689032
5	144374	27803.810624810824	7146.0942114312
5	144460	27820.345998644507	1112.1204368824
5	144486	27826.622496916032	10115.783061914
5	144526	27835.016270208225	3692.6053296703
5	144583	27845.895334670932	1115.116517114
5	144614	27852.526078139484	1112.750753478
5	144657	27859.66062130924	9808.4427107516
5	144682	27864.59778252957	558.0395032
5	144724	27874.537239063025	9819.8446231705
5	144732	27876.18337965287	15680.734804071
5	144747	27878.997862770275	559.90079931133
5	144774	27884.053584583715	2676.5996336213
5	144811	27890.954742293578	3194.6492514188
5	144816	27891.934583897569	8370.9303189491
5	144922	27913.274162582268	8774.7664944231
5	144936	27915.537138378487	562.3411286855
5	144990	27923.766659776361	2683.9540391375
5	145080	27942.077354084008	3700.7103204043
5	145100	27945.920942189131	8786.1078529194
5	145147	27954.274419545807	2170.2119225145
5	145163	27958.347318691627	3696.6537528803
5	145195	27964.843139450212	2689.7176349973
5	145208	27967.748926030339	14892.208368135
5	145249	27976.448542762696	5136.7394360338
5	145273	27980.043076766245	7206.2214764564
5	145303	27986.227842749433	13717.673706489
5	145341	27994.154627575409	8781.5051293927
5	145525	28026.941883241344	2167.2028710256
5	145569	28035.188306582306	3186.7533975788
5	145611	28044.828097747225	550.6761206623
5	145616	28045.905424019467	2168.4856523009
5	145661	28055.510759359278	4682.7805462676
5	145718	28067.261362087406	547.48850881088
5	145760	28075.082299299218	4686.7461385076
5	145829	28090.103344844615	546.61733970169
5	145893	28101.955998753719	4679.4896754955
5	145898	28103.108581409659	9872.0679137412
5	145946	28113.357965510489	2162.5464855352
5	146037	28132.978092575223	554.04077591884
5	146145	28151.203777978629	1653.5850462651
5	146184	28156.228627429404	2179.7639504995
5	146195	28159.154799848856	1659.495489711
5	146282	28176.668846589293	1664.4943054854
5	146311	28181.473432406749	556.30322485429
5	146325	28185.327023511718	8832.4201320669
5	146332	28186.313627637702	5166.2693763622
5	146360	28192.00017288333	1115.1848148807
5	146387	28196.727250829956	550.77609121885
5	146491	28218.157989034021	2173.2581159783
5	146496	28219.123482113389	4233.8501256656
5	146550	28228.555399741942	1110.0720770476
5	146578	28232.713552201318	3220.6485848206
5	146629	28243.335848965181	6896.7747076737
5	146703	28257.381403251611	4239.2835761849
5	146726	28262.464361938149	5192.3363171965
5	146784	28272.641629238486	557.17953208609
5	146787	28273.640502142127	13847.09623579
5	146861	28289.143210806851	1674.1053129882
5	146917	28301.222161391439	559.38610689917
5	146926	28302.08924772699	5650.7969951195
5	147005	28316.055522146883	4747.5513981187
5	147115	28337.436675544428	556.26794875835
5	147120	28338.533756000614	2714.9651994119
5	147132	28340.649247618923	1678.3188076137
5	147139	28341.79198665672	4247.2547370913
5	147162	28346.744531937195	1115.9502748557
5	147175	28349.964406240145	7712.6439330102
5	147185	28352.037341055992	1679.2155538406
5	147238	28362.896975230583	5217.6758328164
5	147249	28366.148004472319	1119.1445186676
5	147294	28373.145083986939	563.0112070464
5	147496	28409.473886497567	5221.9506550687
5	147505	28410.394752251046	12635.347908043
5	147611	28430.216617925062	10702.750665034
5	147726	28452.27957113494	17513.505645246
5	147866	28480.483157903766	8936.5627686292
5	147887	28485.297588909296	2210.7820683522
5	147976	28501.198503757055	1671.4552123138
5	148014	28509.349526516134	1670.9611673829
5	148180	28540.543027672985	6545.8928268787
5	148185	28541.68371126491	12701.59355551
5	148215	28547.462142793996	3241.5764069364
5	148283	28559.32843688547	6966.0614062035
5	148403	28581.943715431607	1672.9209099779
5	148483	28596.429458804311	2729.703925913
5	148493	28598.721356397004	13645.632896689
5	148501	28600.829924794169	2210.3282709676
5	148514	28604.027698385597	5704.4222503631
5	148566	28614.186528007939	9358.6426564868
5	148580	28616.071521548714	4262.5094406744
5	148583	28617.219206678561	1111.983875989
5	148653	28632.110473432086	1668.6957706133
5	148681	28638.103718641281	13371.225452549
5	148705	28642.46859154475	2733.3378311114
5	148767	28654.316063498307	7403.3306090195
5	148777	28656.104851067319	3246.9480297167
5	148798	28660.821102953304	7401.7092860598
5	148808	28663.017641319588	3240.4734369834
5	148831	28667.711953691181	5244.5099103827
5	148840	28670.853361489226	4753.3281684102
5	148906	28682.861794061934	1669.5050602111
5	148913	28683.666426774369	550.42712691219
5	148978	28696.414670823675	4265.3621002958
5	149167	28731.382134104309	1682.28053248
5	149173	28733.216190491313	4287.1857919391
5	149183	28735.2621103578	1683.5883867034
5	149262	28750.756292424233	6588.051089231
5	149282	28755.043704556369	3259.3067640048
5	149329	28764.102693025091	5263.7664170596
5	149378	28773.225585798334	2229.5164506657
5	149407	28780.62094415107	2748.2326024278
5	149525	28801.387288110304	562.33208458247
5	149538	28804.240240128125	3789.0005820661
5	149571	28811.00556927572	565.2031415639
5	149684	28833.884496633681	3793.9724850021
5	149740	28844.11922483162	4309.8584890393
5	149762	28848.183829277912	1689.1711179103
5	149804	28856.317791585504	3272.9439103815
5	149921	28879.848815102382	1690.8592945712
5	149967	28887.869497691161	2760.8412679959
5	150010	28896.60643082547	2757.4416466931
5	150028	28900.583251987556	1121.7770505168
5	150092	28912.583358336584	2240.7773512345
5	150144	28921.627047666785	3281.1491521851
5	150164	28925.863006741803	6219.077645863
5	150167	28926.788086595543	4315.6143026006
5	150185	28930.607804571342	6219.3026281818
5	150225	28938.262381243304	6643.4408935463
5	150322	28957.286177584779	1684.8451964205
5	150392	28968.756773433338	13862.607978387
5	150441	28975.855590502887	563.55363363943
5	150461	28979.884429421525	1687.4283132261
5	150563	29003.378452163438	5301.8339799322
5	150597	29009.413123235074	566.29590771807
5	150600	29010.21933976986	2771.1206791005
5	150664	29021.725933103138	2772.9033914006
5	150773	29041.715718887528	1125.4951054454
5	150805	29047.818734522504	6679.7225558022
5	150947	29073.436968595688	7537.04896332
5	150982	29080.450231950045	2785.5805334689
5	151004	29084.831891030226	6260.280064561
5	151034	29091.245949542209	8739.0710255577
5	151051	29095.940218567257	4827.3583968958
5	151134	29110.846924696084	4832.5585521983
5	151165	29118.432867369022	1689.5883789237
5	151408	29164.477462931411	579.71809031711
5	151490	29182.919526450862	4333.6005257253
5	151545	29193.758168394831	9939.7240900564
5	151550	29194.917129696873	2248.0429778557
5	151569	29197.92257633653	3309.9873965708
5	151615	29207.228964051851	1136.4232077986
5	151665	29215.36113217209	577.16058321614
5	151697	29221.055100359083	8767.2104215105
5	151750	29231.998047367451	1134.1095652455
5	151821	29245.066382293371	2236.9485996041
5	151860	29251.831071387851	10677.468682073
5	151941	29266.999443287743	4843.7702689041
5	152035	29284.042284295862	2797.6309923169
5	152141	29306.37808526481	2258.5811339685
5	152195	29318.312893567761	3834.1175952495
5	152261	29329.908234675568	1140.1267196678
5	152297	29336.315305172991	1140.6015110202
5	152418	29358.824140243108	1695.5851538305
5	152421	29359.905971132374	3326.5964344048
5	152498	29374.619739259376	1142.5309252666
5	152523	29379.494333854752	8810.3295803998
5	152548	29383.9867082087	2805.6298289062
5	152573	29388.460126875868	3852.2998686791
5	152634	29399.613278206406	4875.1304195424
5	152669	29406.491019211958	3324.0049190129
5	152686	29409.74264600814	1139.6198152326
5	152693	29410.6141204775	2812.1775510451
5	152755	29423.029509938385	4883.2299499205
5	152789	29430.617423942282	570.29469978544
5	152910	29451.531928827397	1702.7094459163
5	152936	29455.603447676233	3846.6235101296
5	153000	29467.420942226209	3334.1868826319
5	153019	29470.538420115754	4886.6999834785
5	153049	29476.381723427836	4382.6510130334
5	153059	29478.490658700064	1697.7666969568
5	153106	29487.293325554271	3856.4964492741
5	153226	29509.740139293268	7215.9946873186
5	153240	29513.881413072783	2814.920742538
5	153294	29526.030146838509	7220.0128917797
5	153309	29528.633744797453	4895.0419802272
5	153378	29541.674283819056	3864.4272848556
5	153453	29556.371389746353	3339.1339323367
5	153481	29561.867888923794	563.99638193159
5	153486	29562.992053995527	5393.1918572075
5	153529	29571.855206105172	2817.7362977992
5	153536	29572.829008564971	566.4769215009
5	153627	29593.881606139117	5874.4211847583
5	153684	29605.138047149745	569.23003586585
5	153723	29611.762287154388	5397.3245936917
5	153741	29615.775162530937	5400.1414114315
5	153810	29629.113875932305	2818.5825025813
5	153832	29632.960230871069	2814.2879137449
5	153850	29635.070349135961	2814.1731556512
5	153881	29641.914897728491	8109.1999463108
5	153898	29645.010055808224	1707.0644887522
5	154015	29666.658943130881	3358.1902411158
5	154089	29682.726505245515	571.85814801174
5	154141	29693.411548015442	569.2578423449
5	154167	29697.225131723996	6841.3028018837
5	154194	29702.104695628456	13489.211357376
5	154267	29717.449339946605	3883.2994525805
5	154312	29726.528901176773	2817.8920841949
5	154332	29730.727887209192	570.29691490475
5	154467	29755.856707103703	3370.0140148665
5	154487	29760.098378336583	7293.3184760714
5	154538	29769.346108813458	4905.4912148559
5	154664	29794.98883269966	1710.6495068685
5	154671	29795.934433947842	1154.1511318104
5	154689	29799.762296725589	6871.6932307284
5	154728	29807.356075265876	4401.34678882
5	154828	29827.420713993591	4909.9970640934
5	154855	29832.552508952712	2270.7039154851
5	154868	29835.301887745468	2272.4958597283
5	154875	29836.314376687037	1704.6858335225
5	154927	29848.735271429143	15485.132441115
5	154962	29855.791492741986	579.9232914953
5	154991	29862.42509759009	4918.5975658406
5	155021	29868.49499738101	8569.1147634825
5	155061	29876.570652607884	1162.4557048435
5	155112	29890.001841868051	2845.0991938744
5	155220	29910.255706071444	5444.9633554015
5	155250	29916.171861743145	1159.9321102016
5	155255	29917.050904972535	1724.03575202
5	155306	29926.285039995109	8187.795012068
5	155413	29945.333966196573	7354.2848179469
5	155511	29960.940763991012	5967.1284922478
5	155609	29981.184301480243	9405.8059487561
5	155661	29990.858511595952	583.98292943236
6	372	99.199249567503	5.362806770146
6	542	145.641138633014	15.518348642066
6	565	154.777869605362	1.099666530639
6	1107	267.98847923125	60.631347057461
6	1194	284.797903293138	70.296560765353

