version 2
run Second_exit_9-18-20191114-11:42:56-9017
attr configname Second_exit_9
attr datetime 20191114-11:42:56
attr experiment Second_exit_9
attr inifile omnetpp.ini
attr iterationvars ""
attr iterationvarsf ""
attr measurement ""
attr network ResponseTimeNetwork
attr processid 9017
attr repetition 18
attr replication #18
attr resultdir results
attr runnumber 18
attr seedset 18
param **.Source.interArrivalTime exponential(5s)
param **.jobPriority bernoulli(0.6)
param **.PS.serviceTimeU1 "uniform(0.8s, 1.2s)"
param **.PS.serviceTimeU2 "uniform(1.8s, 2.2s)"
param **.SS1.serviceTime exponential(1s)
param **.SS2.serviceTime exponential(1.2s)
param **.PS.exitProbability bernoulli(0.9)

vector 0 ResponseTimeNetwork.SS1 queueLength:vector ETV
attr interpolationmode sample-hold
attr title "queue length, vector"
vector 1 ResponseTimeNetwork.QueueU1 queueLength:vector ETV
attr interpolationmode sample-hold
attr title "queue length, vector"
vector 2 ResponseTimeNetwork.sink lifeTimeU1:vector ETV
attr interpolationmode none
attr title "lifetime of arrived jobs U1, vector"
attr unit s
vector 3 ResponseTimeNetwork.sink totalServiceTimeU1:vector ETV
attr interpolationmode none
attr title "the total time spent  by arrived jobs U1, vector"
attr unit s
vector 4 ResponseTimeNetwork.sink lifeTime:vector ETV
attr interpolationmode none
attr title "lifetime of arrived jobs, vector"
attr unit s
vector 5 ResponseTimeNetwork.sink totalServiceTime:vector ETV
attr interpolationmode none
attr title "the total time spent  by arrived jobs, vector"
attr unit s
vector 6 ResponseTimeNetwork.QueueU2 queueLength:vector ETV
attr interpolationmode sample-hold
attr title "queue length, vector"
1	51755	10000.075433970876	218
1	51757	10000.177892159316	219
1	51759	10000.427262593275	220
1	51761	10000.505776001034	221
1	51762	10000.645392515799	220
1	51766	10001.017956444042	221
1	51767	10001.553814316923	220
1	51771	10001.771311409862	221
1	51773	10001.795112846351	222
1	51775	10002.09678477463	223
1	51776	10002.509356286293	222
1	51779	10003.312630079417	221
1	51783	10004.037143160389	222
1	51784	10004.23945329926	221
1	51788	10005.126544776504	222
1	51789	10005.23201326049	221
1	51793	10006.241432832399	222
1	51794	10006.415566476165	221
1	51798	10006.438902234492	222
1	51799	10007.450513755726	221
1	51803	10008.428035493514	222
1	51804	10008.567438879432	221
1	51807	10009.696252903445	220
1	51810	10010.659422710454	219
1	51813	10011.687835195949	218
1	51816	10012.520737839313	217
1	51819	10013.43930285667	216
1	51823	10013.514514806619	217
1	51824	10014.271300700222	216
1	51827	10015.097777920038	215
1	51831	10015.852610927682	216
1	51832	10015.920520377819	215
1	51835	10017.091878219609	214
1	51839	10017.62876864571	215
1	51840	10017.996006419611	214
1	51843	10018.798122548413	213
1	51847	10019.355691387249	214
1	51848	10019.653146419123	213
1	51851	10020.703629070807	212
1	51855	10020.900637642792	213
1	51856	10021.724920831721	212
1	51859	10022.54966068343	211
1	51863	10023.153648054075	212
1	51864	10023.552258345678	211
1	51868	10024.480267201584	212
1	51869	10024.651473050758	211
1	51873	10024.718065537233	212
1	51874	10025.681216370787	211
1	51878	10026.29256695177	212
1	51879	10026.874353174407	211
1	51882	10027.976730374999	210
1	51885	10029.144411823999	209
1	51889	10029.786986623069	210
1	51890	10029.984048027925	209
1	51894	10030.237396168864	210
1	51895	10030.836234676566	209
1	51899	10031.535335253797	210
1	51900	10031.863758024674	209
1	51904	10032.609588768969	210
1	51905	10032.848055462081	209
1	51908	10033.673945497356	208
1	51911	10034.687710040815	207
1	51915	10034.933723527011	208
1	51917	10035.223320179543	209
1	51919	10035.381001705603	210
1	51920	10035.808338650789	209
1	51923	10036.638342862584	208
1	51927	10036.996541443152	209
1	51928	10037.538052319277	208
1	51932	10037.776178692225	209
1	51933	10038.732579611249	208
1	51936	10039.857799995325	207
1	51940	10039.98831186304	208
1	51942	10040.125658255677	209
1	51944	10040.411743497214	210
1	51945	10040.769499076351	209
1	51948	10041.672372064933	208
1	51951	10042.704159650307	207
1	51954	10043.669156668715	206
1	51957	10044.740919046111	205
1	51961	10045.524254469929	206
1	51962	10045.753481323745	205
1	51968	10046.522875490989	206
1	51969	10046.562037208404	205
1	51973	10046.632029158663	206
1	51974	10047.717464525073	205
1	51978	10048.490505687392	206
1	51979	10048.701839808288	205
1	51983	10049.656554341683	206
1	51984	10049.84822304324	205
1	51987	10050.740792174365	204
1	51991	10051.187021796277	205
1	51993	10051.22227285974	206
1	51994	10051.64278769885	205
1	51997	10052.680958484214	204
1	52000	10053.712831359644	203
1	52005	10054.628573813763	202
1	52009	10054.680889223829	203
1	52010	10055.4349335122	202
1	52014	10055.535048477621	203
1	52015	10056.394008919977	202
1	52018	10057.378436184682	201
1	52021	10058.543889440697	200
1	52025	10058.943422244171	201
1	52027	10059.006400668528	202
1	52028	10059.525062762674	201
1	52032	10059.987509721289	202
1	52033	10060.36239296478	201
1	52036	10061.182562011208	200
1	52040	10061.666929745331	201
1	52041	10062.317413847435	200
1	52044	10063.481932788163	199
1	52048	10063.767446164257	200
1	52049	10064.358248560044	199
1	52053	10064.925461861029	200
1	52055	10065.145890993297	201
1	52056	10065.214793940733	200
1	52060	10065.455380450971	201
1	52061	10066.3718710105	200
1	52065	10066.998344934597	201
1	52066	10067.348862495559	200
1	52070	10067.395102742648	201
1	52072	10067.949696970888	202
1	52073	10068.157236290171	201
1	52077	10068.226882070059	202
1	52079	10068.686093428797	203
1	52081	10068.836977239865	204
1	52082	10069.262623317267	203
1	52086	10069.292954738579	204
1	52087	10070.443862056739	203
1	52091	10070.598158965837	204
1	52095	10070.676539531657	205
1	52097	10071.197003277888	206
1	52098	10071.482788437519	205
1	52102	10072.21391499905	206
1	52103	10072.351021535702	205
1	52107	10072.44912572907	206
1	52109	10073.056741174272	207
1	52110	10073.243028926764	206
1	52114	10074.325573557888	207
1	52116	10074.395818040394	208
1	52117	10074.426834187571	207
1	52121	10074.921941998218	208
1	52122	10075.409401015852	207
1	52126	10076.082999715757	208
1	52127	10076.319717748285	207
1	52130	10077.232335941967	206
1	52133	10078.116768629764	205
1	52137	10078.748545915528	206
1	52139	10078.771646486036	207
1	52141	10078.793872098766	208
1	52142	10079.169023362276	207
1	52146	10079.431504626805	208
1	52148	10079.758265299107	209
1	52149	10080.13866016549	208
1	52153	10080.460269484569	209
1	52154	10081.181967201186	208
1	52158	10081.329339503108	209
1	52160	10081.941430893152	210
1	52162	10082.173888918081	211
1	52163	10082.260643953187	210
1	52167	10082.405208105176	211
1	52169	10082.635740714258	212
1	52170	10083.309199680583	211
1	52174	10083.748357421859	212
1	52175	10084.1547045732	211
1	52178	10085.240754998856	210
1	52181	10086.295690795415	209
1	52185	10086.732825447075	210
1	52186	10087.327092048162	209
1	52190	10087.907445314838	210
1	52191	10088.163426907369	209
1	52194	10089.037194734075	208
1	52198	10089.149018021251	209
1	52199	10089.864718063463	208
1	52203	10090.725135225287	209
1	52205	10090.879824061014	210
1	52206	10090.891444549904	209
1	52210	10091.509260565319	210
1	52211	10091.829990423945	209
1	52215	10092.70011314552	210
1	52216	10092.792976542943	209
1	52219	10093.971776962568	208
1	52223	10094.777263124608	209
1	52224	10094.790671557569	208
1	52228	10094.852467896398	209
1	52230	10095.516901801179	210
1	52232	10095.616627411004	211
1	52233	10095.717350994804	210
1	52237	10096.24429784604	211
1	52238	10096.688726007295	210
1	52242	10097.714811303626	211
1	52243	10097.845594587838	210
1	52247	10098.592560127475	211
1	52248	10098.748555288007	210
1	52251	10099.580538790402	209
1	52255	10099.624273008368	210
1	52256	10100.513103669704	209
1	52259	10101.503701888592	208
1	52263	10101.512331404238	209
1	52264	10102.535801294175	208
1	52268	10102.699892340521	209
1	52269	10103.522542716292	208
1	52273	10103.804140586828	209
1	52275	10104.187544849323	210
1	52279	10104.283517647253	211
1	52280	10104.375733990138	210
1	52283	10105.355901573514	209
1	52287	10105.538533545076	210
1	52288	10106.360152705674	209
1	52291	10107.382977321473	208
1	52294	10108.238226393153	207
1	52298	10108.658146947715	208
1	52299	10109.174918502484	207
1	52302	10109.996867668637	206
1	52306	10110.621710506423	207
1	52307	10110.799093258389	206
1	52310	10111.915325118237	205
1	52313	10112.888759949998	204
1	52317	10113.943434230082	205
1	52319	10114.010240680489	206
1	52320	10114.026700095375	205
1	52323	10114.985082580716	204
1	52326	10116.128531295535	203
1	52329	10117.032017713048	202
1	52332	10118.163630717908	201
1	52335	10119.301138419853	200
1	52339	10119.545837951986	201
1	52340	10120.132423656536	200
1	52346	10120.82554994179	201
1	52347	10121.027730835424	200
1	52350	10122.056412595705	199
1	52353	10122.882744952951	198
1	52361	10123.406557545073	199
1	52362	10123.909396116536	198
1	52366	10124.318724796794	199
1	52368	10124.645187297648	200
1	52370	10124.70515192055	201
1	52371	10124.726020774718	200
1	52374	10125.784502968665	199
1	52377	10126.85700014048	198
1	52381	10127.470647533997	199
1	52382	10127.766105418659	198
1	52386	10127.844464213431	199
1	52388	10128.716723632139	200
1	52389	10128.926133297297	199
1	52392	10129.96254327391	198
1	52396	10130.532915276589	199
1	52398	10130.92491606678	200
1	52399	10131.106250513631	199
1	52402	10132.160703328631	198
1	52406	10133.018345770101	199
1	52408	10133.153203798392	200
1	52409	10133.190226823843	199
1	52412	10134.327586232132	198
1	52416	10135.267822519137	199
1	52417	10135.379703323177	198
1	52420	10136.497068692843	197
1	52424	10136.848658258886	198
1	52426	10136.990032410599	199
1	52428	10137.204031636029	200
1	52429	10137.442585368926	199
1	52433	10137.452177276337	200
1	52434	10138.30068507074	199
1	52438	10138.830464482825	200
1	52440	10138.904165743504	201
1	52442	10139.018105621424	202
1	52443	10139.246666108822	201
1	52447	10139.821141338532	202
1	52449	10140.238073953818	203
1	52450	10140.348391109803	202
1	52453	10141.244197692261	201
1	52456	10142.225373369926	200
1	52459	10143.176333884714	199
1	52463	10143.853097554253	200
1	52464	10144.336245930387	199
1	52468	10145.107123591162	200
1	52470	10145.144632036869	201
1	52471	10145.207155351533	200
1	52475	10145.441134659665	201
1	52477	10145.705162800802	202
1	52479	10146.162421942642	203
1	52480	10146.219946407905	202
1	52483	10147.171887530392	201
1	52486	10148.096457550308	200
1	52489	10149.167424583162	199
1	52493	10149.762697328479	200
1	52494	10150.197195400863	199
1	52497	10151.199700594048	198
1	52500	10152.001395173284	197
1	52504	10152.065113427714	198
1	52505	10153.089913714404	197
1	52508	10154.06737168851	196
1	52512	10154.229240615832	197
1	52513	10154.909032907902	196
1	52517	10154.915504293283	197
1	52519	10155.067420505195	198
1	52520	10155.979742704338	197
1	52524	10156.279961107182	198
1	52526	10156.664641810093	199
1	52528	10156.673956976457	200
1	52529	10157.101166167303	199
1	52533	10157.442722110196	200
1	52535	10157.845907555424	201
1	52536	10158.184896575666	200
1	52540	10158.582059928094	201
1	52541	10159.081170919358	200
1	52545	10160.121497629187	201
1	52546	10160.145716428391	200
1	52550	10160.966083149507	201
1	52551	10161.23176042373	200
1	52555	10161.293529193839	201
1	52557	10161.454165575087	202
1	52558	10162.213858923509	201
1	52561	10163.021104921873	200
1	52565	10163.414612498291	201
1	52567	10163.487544317388	202
1	52568	10164.094253622002	201
1	52572	10164.127326238332	202
1	52574	10164.841061466754	203
1	52575	10164.929545500136	202
1	52579	10165.43815922658	203
1	52580	10166.051725136868	202
1	52584	10166.517339309736	203
1	52585	10166.875651019912	202
1	52589	10167.041612439199	203
1	52591	10167.638835050495	204
1	52592	10167.863723544132	203
1	52596	10167.888314320235	204
1	52597	10168.869489294484	203
1	52601	10169.039827044659	204
1	52603	10169.553812329523	205
1	52604	10169.687677822269	204
1	52607	10170.85919181519	203
1	52611	10171.562784763932	204
1	52612	10171.917274593104	203
1	52615	10172.950423687239	202
1	52619	10173.26606407283	203
1	52620	10173.916082722236	202
1	52624	10174.229731038264	203
1	52625	10175.073822519377	202
1	52629	10175.11981893481	203
1	52631	10175.501811459026	204
1	52632	10175.979998118531	203
1	52635	10176.803026063934	202
1	52639	10177.552048034082	203
1	52640	10177.959498250864	202
1	52644	10178.10063883482	203
1	52646	10178.851835936642	204
1	52648	10178.955112136018	205
1	52649	10179.148385095324	204
1	52653	10179.84274225536	205
1	52654	10180.076602143895	204
1	52658	10180.208672998351	205
1	52659	10180.985563724961	204
1	52663	10181.769936380823	205
1	52664	10182.134502531037	204
1	52668	10182.253642412155	205
1	52670	10183.189393730855	206
1	52671	10183.231720588364	205
1	52675	10183.462347324465	206
1	52676	10184.304961188238	205
1	52679	10185.28362243465	204
1	52683	10185.434408755918	205
1	52685	10185.850510252976	206
1	52686	10186.163441125032	205
1	52689	10187.335776641228	204
1	52692	10188.336623675757	203
1	52698	10188.930771928323	204
1	52699	10189.271790728447	203
1	52703	10189.541969700599	204
1	52705	10189.672858344099	205
1	52707	10190.120532673927	206
1	52709	10190.160616380216	207
1	52710	10190.423373709534	206
1	52714	10190.718998500708	207
1	52715	10191.288412659623	206
1	52718	10192.242497795735	205
1	52722	10192.663958366363	206
1	52724	10193.091261433993	207
1	52725	10193.155851994183	206
1	52729	10194.107863074164	207
1	52730	10194.21092775828	206
1	52734	10195.093389879686	207
1	52735	10195.24717898146	206
1	52739	10195.549232436941	207
1	52740	10196.109698218207	206
1	52744	10196.203048601057	207
1	52746	10196.245232597444	208
1	52747	10197.229897131777	207
1	52751	10197.382915371313	208
1	52752	10198.197578275676	207
1	52756	10198.198205754056	208
1	52758	10198.77328051881	209
1	52759	10199.241011165368	208
1	52763	10200.007518958387	209
1	52765	10200.061243387107	210
1	52766	10200.224586241326	209
1	52772	10200.58183747473	210
1	52773	10201.422560898221	209
1	52779	10201.451616671009	210
1	52780	10202.248446104868	209
1	52788	10203.229617139988	210
1	52789	10203.290555236215	209
1	52793	10204.166986367254	210
1	52794	10204.263131282578	209
1	52798	10204.878984599295	210
1	52799	10205.068204676925	209
1	52803	10205.439184562449	210
1	52805	10205.914862487683	211
1	52806	10206.102877470205	210
1	52810	10206.21250014304	211
1	52812	10206.550018895032	212
1	52813	10207.011210707209	211
1	52816	10208.030006182014	210
1	52819	10209.09589823988	209
1	52822	10210.058414288151	208
1	52825	10211.049840866408	207
1	52829	10211.302831281734	208
1	52831	10211.953129428166	209
1	52832	10212.180825483246	208
1	52835	10213.005397100939	207
1	52839	10213.492344822899	208
1	52841	10213.750869507134	209
1	52843	10213.817290055005	210
1	52844	10213.855569110165	209
1	52848	10213.977556354908	210
1	52849	10214.798399507912	209
1	52853	10214.875023674267	210
1	52855	10214.981200185262	211
1	52857	10215.285280671081	212
1	52858	10215.82367656483	211
1	52862	10215.902821318496	212
1	52863	10216.74534839085	211
1	52867	10217.781873180999	212
1	52868	10217.860782882764	211
1	52872	10218.324871926051	212
1	52873	10219.052300649143	211
1	52877	10220.029305002479	212
1	52879	10220.186839439015	213
1	52880	10220.187314684323	212
1	52884	10220.516776235978	213
1	52887	10221.291811161867	212
1	52891	10221.433742183669	213
1	52893	10221.574463133824	214
1	52895	10221.82510615885	215
1	52896	10222.483665264683	214
1	52899	10223.621237177966	213
1	52902	10224.507929027086	212
1	52906	10224.983147272559	213
1	52907	10225.325664506858	212
1	52910	10226.147880536137	211
1	52914	10226.237214126743	212
1	52916	10226.653930838124	213
1	52918	10226.845348914364	214
1	52919	10227.177320412086	213
1	52922	10228.055812416045	212
1	52925	10229.219511809671	211
1	52929	10230.106396607973	212
1	52930	10230.336069764575	211
1	52933	10231.365107570408	210
1	52940	10232.419852466701	209
1	52944	10232.671053542871	210
1	52946	10232.727641048512	211
1	52948	10233.13825799411	212
1	52949	10233.565426902851	211
1	52953	10234.385956725215	212
1	52955	10234.51335124866	213
1	52956	10234.7497800123	212
1	52960	10234.787677066337	213
1	52962	10235.66722286812	214
1	52964	10235.856917598245	215
1	52965	10235.941807237925	214
1	52968	10236.760988014849	213
1	52971	10237.892445555242	212
1	52975	10238.638392768435	213
1	52976	10238.798545077821	212
1	52981	10239.757958617532	211
1	52985	10239.816904061028	212
1	52986	10240.762149732006	211
1	52989	10241.823708213777	210
1	52993	10241.899656041964	211
1	52995	10242.196327658235	212
1	52996	10242.821976249483	211
1	53000	10243.094766870502	212
1	53002	10243.314012713622	213
1	53004	10243.702252956773	214
1	53005	10243.775618198332	213
1	53009	10243.847986145684	214
1	53011	10244.513369252065	215
1	53013	10244.70990141843	216
1	53014	10244.903509557624	215
1	53019	10245.838741797772	214
1	53023	10246.424609731257	215
1	53025	10246.571739733589	216
1	53026	10246.709044010662	215
1	53029	10247.720301554636	214
1	53033	10247.845914689219	215
1	53034	10248.645871142396	214
1	53038	10249.551398878169	215
1	53039	10249.816466370323	214
1	53042	10250.759612077666	213
1	53045	10251.831723926408	212
1	53049	10252.137048517009	213
1	53051	10252.700840286687	214
1	53052	10252.88832694274	213
1	53056	10253.35480136135	214
1	53057	10253.776609939249	213
1	53061	10253.919338217765	214
1	53063	10254.604668191419	215
1	53065	10254.882893998026	216
1	53066	10254.959000711893	215
1	53070	10255.343137124467	216
1	53072	10255.736954766237	217
1	53073	10256.030807339871	216
1	53077	10256.192490426773	217
1	53079	10256.303907910411	218
1	53080	10256.86913630134	217
1	53084	10256.98925389663	218
1	53086	10257.294746947463	219
1	53088	10257.737159528206	220
1	53090	10257.835561881496	221
1	53091	10257.918002932151	220
1	53094	10258.737461976432	219
1	53097	10259.612244291235	218
1	53100	10260.435740800299	217
1	53104	10260.979016176753	218
1	53106	10261.036098983699	219
1	53107	10261.316139674936	218
1	53111	10261.587245973886	219
1	53113	10261.626015847098	220
1	53114	10262.179083416615	219
1	53117	10263.032587525998	218
1	53121	10263.067866616939	219
1	53123	10263.169963935185	220
1	53124	10263.843233825178	219
1	53127	10265.002735188888	218
1	53131	10265.997702986598	219
1	53132	10266.04286580375	218
1	53135	10267.089031821029	217
1	53139	10267.77974080348	218
1	53141	10267.878519989926	219
1	53143	10267.953430144885	220
1	53145	10268.052256397271	221
1	53146	10268.086801959207	220
1	53150	10268.752440265081	221
1	53152	10269.010593251209	222
1	53153	10269.03401834807	221
1	53156	10270.154179550247	220
1	53159	10271.007875432731	219
1	53164	10272.042526458488	218
1	53167	10272.880051793349	217
1	53171	10273.129201068781	218
1	53175	10273.93839331433	219
1	53176	10274.003350413037	218
1	53180	10274.060165186636	219
1	53182	10274.062531600521	220
1	53184	10274.333606203806	221
1	53185	10274.86626291825	220
1	53188	10275.797082899888	219
1	53192	10275.916605710186	220
1	53194	10276.176307029076	221
1	53196	10276.210442237332	222
1	53198	10276.841653346635	223
1	53199	10276.85592179215	222
1	53203	10277.066272284596	223
1	53204	10277.999251254373	222
1	53208	10278.579504514304	223
1	53209	10278.851057937653	222
1	53213	10279.040237257997	223
1	53215	10279.193583712666	224
1	53216	10280.020801674579	223
1	53220	10281.067243864311	224
1	53221	10281.208454715558	223
1	53225	10281.395814710314	224
1	53228	10282.290440496341	223
1	53232	10282.540055085435	224
1	53233	10283.112837641877	223
1	53236	10284.243299572174	222
1	53240	10284.743121721851	223
1	53241	10285.072083611139	222
1	53245	10285.192007639546	223
1	53248	10285.935584777878	222
1	53251	10287.129948097379	221
1	53255	10287.940601377398	222
1	53257	10287.979800376047	223
1	53258	10288.031127509386	222
1	53262	10288.403818086028	223
1	53264	10288.740999269021	224
1	53265	10289.219387225252	223
1	53269	10289.360164488756	224
1	53270	10290.352357202493	223
1	53273	10291.428963995356	222
1	53276	10292.485891599677	221
1	53280	10292.87389607316	222
1	53282	10292.880234401725	223
1	53283	10293.615309239648	222
1	53286	10294.452799854431	221
1	53289	10295.389407248892	220
1	53293	10295.593731991791	221
1	53295	10295.936676271798	222
1	53296	10296.281145590548	221
1	53300	10296.358213218183	222
1	53302	10296.749076630623	223
1	53304	10296.94252670229	224
1	53305	10297.343063542437	223
1	53308	10298.36714897864	222
1	53312	10298.853737749357	223
1	53313	10299.175407219869	222
1	53319	10300.030178956326	223
1	53320	10300.040856121671	222
1	53323	10300.961513897595	221
1	53327	10301.506258910073	222
1	53328	10301.767218976659	221
1	53332	10302.505576947272	222
1	53333	10302.619718065304	221
1	53337	10302.939501098525	222
1	53338	10303.474233974056	221
1	53342	10304.089311969139	222
1	53344	10304.278175924754	223
1	53345	10304.504598480655	222
1	53348	10305.40058838735	221
1	53352	10305.640480684177	222
1	53355	10306.483702135465	221
1	53359	10306.970456661512	222
1	53361	10307.2391150734	223
1	53362	10307.509980296723	222
1	53366	10308.139868552785	223
1	53367	10308.536792211055	222
1	53371	10308.718767562238	223
1	53372	10309.61497525294	222
1	53376	10309.912854670275	223
1	53377	10310.484670227493	222
1	53380	10311.350642478379	221
1	53384	10311.460865540004	222
1	53386	10312.209388379431	223
1	53387	10312.503381577885	222
1	53391	10312.661285065511	223
1	53392	10313.439831697108	222
1	53395	10314.470610596431	221
1	53399	10314.544342333433	222
1	53400	10315.379674539255	221
1	53404	10315.772373632092	222
1	53405	10316.390695419913	221
1	53409	10316.934010173466	222
1	53410	10317.573634662298	221
1	53414	10318.024458766025	222
1	53415	10318.665632118662	221
1	53418	10319.56718141139	220
1	53424	10320.355932547011	221
1	53425	10320.441773540252	220
1	53428	10321.534034830802	219
1	53433	10322.625465128855	218
1	53437	10322.888337934101	219
1	53439	10323.166544524025	220
1	53441	10323.173149223385	221
1	53442	10323.677495799405	220
1	53446	10323.861098992112	221
1	53447	10324.789534695545	220
1	53450	10325.898908403894	219
1	53454	10326.121707055031	220
1	53456	10326.202444887867	221
1	53457	10327.012655761564	220
1	53461	10327.815900743938	221
1	53462	10327.877628151519	220
1	53466	10328.87198884079	221
1	53467	10328.911247383063	220
1	53471	10329.225541654809	221
1	53472	10329.781708753766	220
1	53475	10330.61617104244	219
1	53479	10331.376110869585	220
1	53480	10331.497063573362	219
1	53483	10332.695101291133	218
1	53487	10333.032760602083	219
1	53488	10333.557542205142	218
1	53492	10334.390078065127	219
1	53493	10334.406327950122	218
1	53496	10335.502765773894	217
1	53499	10336.330294699972	216
1	53503	10336.525786694539	217
1	53504	10337.218213223671	216
1	53508	10338.201912503703	217
1	53509	10338.254681400867	216
1	53513	10338.478052232606	217
1	53515	10338.748588094577	218
1	53516	10339.29358392377	217
1	53520	10339.459353829814	218
1	53522	10339.694821767753	219
1	53523	10340.167760895571	218
1	53527	10340.310058467463	219
1	53530	10341.155003498407	218
1	53534	10341.543042015213	219
1	53536	10341.879623746843	220
1	53537	10342.239509946672	219
1	53542	10343.264250404859	218
1	53546	10343.543390208068	219
1	53547	10344.226027900545	218
1	53551	10344.440506938131	219
1	53553	10345.098249693069	220
1	53554	10345.127332166588	219
1	53558	10345.45996660607	220
1	53559	10345.962683134439	219
1	53562	10346.765762124869	218
1	53565	10347.819856154366	217
1	53569	10348.101972908809	218
1	53571	10348.416288686655	219
1	53572	10348.929619142419	218
1	53576	10349.366487668396	219
1	53579	10349.835895193467	218
1	53583	10350.034237616222	219
1	53584	10350.661229220783	218
1	53588	10351.411973847164	219
1	53590	10351.489945893202	220
1	53591	10351.711316354112	219
1	53594	10352.86359353662	218
1	53597	10353.905274224938	217
1	53601	10354.023556124684	218
1	53603	10354.795113807407	219
1	53604	10354.981023040139	218
1	53608	10355.484770401627	219
1	53609	10355.984006885071	218
1	53613	10356.028403065775	219
1	53615	10356.688303432255	220
1	53616	10356.921487906952	219
1	53620	10357.436555057202	220
1	53621	10357.765703247678	219
1	53625	10358.008603710365	220
1	53627	10358.304005524643	221
1	53629	10358.386732864601	222
1	53630	10358.868199732438	221
1	53634	10359.252589131999	222
1	53635	10359.875272171017	221
1	53639	10360.567546543916	222
1	53640	10360.88279791661	221
1	53643	10361.764096703384	220
1	53647	10362.203033446608	221
1	53648	10362.751254258122	220
1	53651	10363.570184652231	219
1	53654	10364.55439528907	218
1	53658	10365.031524737384	219
1	53660	10365.350930277438	220
1	53661	10365.436560445934	219
1	53664	10366.421353905372	218
1	53668	10367.343064382185	219
1	53669	10367.359913126662	218
1	53673	10367.727118798508	219
1	53674	10368.179094212878	218
1	53680	10368.831978931939	219
1	53681	10369.335044368546	218
1	53685	10369.835967042987	219
1	53686	10370.371097133871	218
1	53690	10370.685010285513	219
1	53692	10370.95691884682	220
1	53694	10371.119896165369	221
1	53696	10371.13727281804	222
1	53697	10371.447136350166	221
1	53701	10372.482451309275	222
1	53702	10372.588202626448	221
1	53705	10373.42907503853	220
1	53709	10373.824236081734	221
1	53711	10373.874946410507	222
1	53713	10373.957624375059	223
1	53714	10374.319797700089	222
1	53717	10375.195975514506	221
1	53721	10375.497897313557	222
1	53723	10376.053298966934	223
1	53724	10376.101024062005	222
1	53727	10376.917224248969	221
1	53731	10377.566439475117	222
1	53732	10378.058414181606	221
1	53736	10378.228627905599	222
1	53737	10379.106194750317	221
1	53741	10379.717151971527	222
1	53743	10379.938576481626	223
1	53744	10380.007767874007	222
1	53747	10380.808868519408	221
1	53750	10381.810361207282	220
1	53756	10382.486822896575	221
1	53757	10382.979236532194	220
1	53761	10383.797640722384	221
1	53762	10384.108649411616	220
1	53765	10384.988103084737	219
1	53769	10385.206773580594	220
1	53771	10385.278184005029	221
1	53773	10385.539169037816	222
1	53775	10385.846946558596	223
1	53776	10385.92676523794	222
1	53780	10386.150228989282	223
1	53782	10386.707743539324	224
1	53783	10387.085673739487	223
1	53788	10388.045475102221	222
1	53792	10388.459745173801	223
1	53793	10389.22386027901	222
1	53797	10389.984982133514	223
1	53798	10390.171322404226	222
1	53802	10390.580146746662	223
1	53803	10391.065667407872	222
1	53807	10391.482458591869	223
1	53808	10392.235560585936	222
1	53811	10393.112882014276	221
1	53814	10394.070866136631	220
1	53818	10394.199792321899	221
1	53819	10395.176070929324	220
1	53824	10396.313599846331	219
1	53827	10397.185296334704	218
1	53830	10398.138990878971	217
1	53834	10398.897703590619	218
1	53835	10398.965279725386	217
1	53839	10398.993994308165	218
1	53840	10400.038069253048	217
1	53843	10401.157370457059	216
1	53846	10402.34537326303	215
1	53850	10403.505651799363	216
1	53851	10403.519346456515	215
1	53855	10403.810082810303	216
1	53856	10404.440728600981	215
1	53859	10405.453886288503	214
1	53863	10405.457490187795	215
1	53865	10405.539762182012	216
1	53869	10406.049011331039	217
1	53871	10406.212781245076	218
1	53873	10406.528733846611	219
1	53874	10406.610527511226	218
1	53878	10407.360031021735	219
1	53879	10407.715462725056	218
1	53883	10408.105758303101	219
1	53885	10408.442250480003	220
1	53886	10408.632741692202	219
1	53890	10408.649788319154	220
1	53892	10408.968789648321	221
1	53893	10409.76622631746	220
1	53897	10409.965903542386	221
1	53898	10410.919056991121	220
1	53902	10411.363481976891	221
1	53904	10411.464715564521	222
1	53905	10411.728530455386	221
1	53909	10411.905977790098	222
1	53911	10411.967245611002	223
1	53913	10412.105695340981	224
1	53914	10412.785547223413	223
1	53917	10413.846420910401	222
1	53921	10414.315434736268	223
1	53923	10414.512571849624	224
1	53924	10414.916006167518	223
1	53928	10415.764689476978	224
1	53929	10415.82886765516	223
1	53933	10416.86094072683	224
1	53934	10416.890504382091	223
1	53938	10417.403553787138	224
1	53939	10418.062472468527	223
1	53942	10419.023497570218	222
1	53947	10419.89630387696	221
1	53951	10420.776852255851	222
1	53952	10420.873737734189	221
1	53956	10421.198469994504	222
1	53958	10421.525448388109	223
1	53959	10421.835320053814	222
1	53963	10422.339972698392	223
1	53965	10422.541363345645	224
1	53967	10422.841873023937	225
1	53968	10422.972636770276	224
1	53972	10422.981264608981	225
1	53973	10424.060812074044	224
1	53977	10424.550131518475	225
1	53978	10425.062004227289	224
1	53982	10425.456057874049	225
1	53983	10426.169455883843	224
1	53986	10427.058615110726	223
1	53989	10428.015635667094	222
1	53993	10428.290832122461	223
1	53995	10428.974773252011	224
1	53996	10429.129326912952	223
1	54000	10429.148097997735	224
1	54001	10430.315704906271	223
1	54005	10430.61229912635	224
1	54006	10431.285478372411	223
1	54010	10431.532683709344	224
1	54011	10432.341033772291	223
1	54017	10432.723280819383	224
1	54020	10433.168135202029	223
1	54024	10433.929177076335	224
1	54025	10434.107190397759	223
1	54028	10435.250899298308	222
1	54032	10435.712177222362	223
1	54034	10435.811552141713	224
1	54035	10436.327934972947	223
1	54039	10436.360230717995	224
1	54040	10437.195351372757	223
1	54043	10438.213383906432	222
1	54047	10438.487788972955	223
1	54048	10439.116956034586	222
1	54052	10439.35087891624	223
1	54053	10440.282631928291	222
1	54056	10441.242239411831	221
1	54060	10441.563584421107	222
1	54062	10441.777140582098	223
1	54066	10442.237527540911	224
1	54067	10442.35498851892	223
1	54070	10443.516100222435	222
1	54074	10444.060662825359	223
1	54075	10444.480009675775	222
1	54079	10445.006831663995	223
1	54081	10445.50738491999	224
1	54082	10445.631485203658	223
1	54086	10446.154655134373	224
1	54087	10446.503018326782	223
1	54090	10447.641260890853	222
1	54094	10447.795922102031	223
1	54096	10447.898571309025	224
1	54097	10448.542488932148	223
1	54101	10448.556702935292	224
1	54102	10449.660775052853	223
1	54106	10449.749727580424	224
1	54109	10450.832301829852	223
1	54112	10451.918986726742	222
1	54115	10452.85470911153	221
1	54119	10453.646837909774	222
1	54121	10453.763066342402	223
1	54122	10453.861849794447	222
1	54128	10454.355108948316	223
1	54130	10454.484726961094	224
1	54131	10454.755056185372	223
1	54135	10455.534680132995	224
1	54136	10455.613367536388	223
1	54140	10455.976666354071	224
1	54142	10456.477847596892	225
1	54143	10456.553366837654	224
1	54147	10456.670939803905	225
1	54149	10457.183703565116	226
1	54150	10457.637333409585	225
1	54154	10458.032007221879	226
1	54156	10458.317688990058	227
1	54157	10458.710944143314	226
1	54161	10459.12573905325	227
1	54163	10459.362805512376	228
1	54164	10459.882737461761	227
1	54168	10460.798531701441	228
1	54169	10460.863901622877	227
1	54173	10461.805560904554	228
1	54174	10461.896508591719	227
1	54178	10461.902338179375	228
1	54179	10462.95807442265	227
1	54182	10463.905773877729	226
1	54186	10464.580121201191	227
1	54189	10464.895732545484	226
1	54193	10465.126131795506	227
1	54194	10465.767275809966	226
1	54197	10466.96382249622	225
1	54201	10467.253801253115	226
1	54203	10467.487995046284	227
1	54204	10467.792916416846	226
1	54208	10467.848526067293	227
1	54209	10468.813673152033	226
1	54213	10469.382976291203	227
1	54214	10469.944722626362	226
1	54218	10470.045305151568	227
1	54219	10470.889327400368	226
1	54222	10471.796483095553	225
1	54226	10472.508736378382	226
1	54228	10472.742796918978	227
1	54229	10472.787877768282	226
1	54232	10473.738643743474	225
1	54236	10474.46981205584	226
1	54237	10474.867443028003	225
1	54241	10475.259734752729	226
1	54243	10475.449479206752	227
1	54244	10475.825968563374	226
1	54248	10475.899134966898	227
1	54249	10476.886041831229	226
1	54252	10478.005232934192	225
1	54256	10478.165387564717	226
1	54257	10478.859085827045	225
1	54260	10479.947884755213	224
1	54264	10480.102402951149	225
1	54266	10480.307496231856	226
1	54267	10481.032436302029	225
1	54271	10481.681983142407	226
1	54272	10481.856155122448	225
1	54276	10481.863350811291	226
1	54277	10482.837009695921	225
1	54281	10482.975448958688	226
1	54282	10483.777550781894	225
1	54285	10484.661582660958	224
1	54289	10485.640788400947	225
1	54290	10485.669845520243	224
1	54293	10486.60484269122	223
1	54297	10486.890318921711	224
1	54300	10487.670383992701	223
1	54303	10488.766998372975	222
1	54307	10489.123727796174	223
1	54308	10489.721354158784	222
1	54312	10489.832574332864	223
1	54314	10490.690758507373	224
1	54315	10490.753823515589	223
1	54318	10491.811721194259	222
1	54321	10492.898614660374	221
1	54325	10493.121411880865	222
1	54328	10494.062080978791	221
1	54332	10494.894271340999	222
1	54333	10495.079853857404	221
1	54337	10495.493678893943	222
1	54338	10496.111150895806	221
1	54342	10496.552621564806	222
1	54343	10497.034533273524	221
1	54347	10497.131052931904	222
1	54349	10497.970817648598	223
1	54350	10498.057296272183	222
1	54354	10498.572440773405	223
1	54355	10498.857479936818	222
1	54359	10499.395506918338	223
1	54362	10499.832661100386	222
1	54366	10500.491783863062	223
1	54367	10500.719751516732	222
1	54371	10501.292868713057	223
1	54373	10501.532254789266	224
1	54374	10501.752521748191	223
1	54377	10502.913821926156	222
1	54381	10503.591314311168	223
1	54382	10503.928785229756	222
1	54387	10504.73985965932	221
1	54390	10505.748658266759	220
1	54393	10506.574072698227	219
1	54396	10507.41121504158	218
1	54400	10507.436016581343	219
1	54401	10508.547386810745	218
1	54405	10508.605711991821	219
1	54406	10509.581780522319	218
1	54411	10510.742769073977	217
1	54415	10511.113716278281	218
1	54416	10511.732202771495	217
1	54420	10511.854542952596	218
1	54423	10512.572385381537	217
1	54427	10513.384321260566	218
1	54428	10513.628591330631	217
1	54432	10513.629513187548	218
1	54435	10514.535226285646	217
1	54439	10514.678082931298	218
1	54440	10515.710622776116	217
1	54444	10516.05629915846	218
1	54445	10516.729719870074	217
1	54449	10517.459136319855	218
1	54450	10517.611999402011	217
1	54454	10518.022238774448	218
1	54456	10518.196351946368	219
1	54457	10518.459389238434	218
1	54462	10519.533156883812	217
1	54465	10520.377233642528	216
1	54468	10521.453281755934	215
1	54473	10522.310640437438	214
1	54477	10522.347788461515	215
1	54478	10523.225301426838	214
1	54483	10524.133242857459	213
1	54487	10524.648400568811	214
1	54489	10524.693035316835	215
1	54490	10525.16588690989	214
1	54493	10526.149240868169	213
1	54497	10526.390040135196	214
1	54499	10526.509692599936	215
1	54502	10527.04328138335	214
1	54505	10528.098691312134	213
1	54509	10528.683178215742	214
1	54510	10529.086213249158	213
1	54514	10529.652985685666	214
1	54515	10529.895404790345	213
1	54519	10529.924980316012	214
1	54521	10530.097052991172	215
1	54522	10530.910140319917	214
1	54526	10530.994179036458	215
1	54528	10531.890408732804	216
1	54529	10532.0587446061	215
1	54533	10532.198361400851	216
1	54535	10532.892645530907	217
1	54536	10532.974212151118	216
1	54540	10533.167384152259	217
1	54541	10534.090586983696	216
1	54544	10535.19287993154	215
1	54548	10535.29912510386	216
1	54549	10536.093272665054	215
1	54554	10537.180298604168	214
1	54558	10537.193060401575	215
1	54559	10538.222052296069	214
1	54563	10538.463894816414	215
1	54565	10538.706229205683	216
1	54566	10539.1117509299	215
1	54569	10540.304240117413	214
1	54573	10540.347164797979	215
1	54575	10540.753664892963	216
1	54576	10541.438429583986	215
1	54580	10542.154241316735	216
1	54581	10542.24662566055	215
1	54584	10543.29479222	214
1	54587	10544.160497643243	213
1	54591	10544.334604801271	214
1	54592	10545.355218826051	213
1	54596	10545.499036352706	214
1	54598	10545.633121734203	215
1	54600	10545.93784566153	216
1	54601	10546.169534356988	215
1	54604	10547.018064839023	214
1	54608	10547.554581140928	215
1	54609	10548.078305259256	214
1	54613	10548.772679439408	215
1	54614	10549.041328176393	214
1	54618	10549.173153899048	215
1	54619	10550.087508352755	214
1	54623	10550.427927528124	215
1	54624	10550.991884267519	214
1	54628	10551.886928497636	215
1	54629	10552.079182506355	214
1	54633	10553.00585541114	215
1	54634	10553.16408284493	214
1	54637	10554.148305470871	213
1	54641	10554.223068170282	214
1	54643	10554.408620654199	215
1	54645	10554.920947215411	216
1	54647	10554.968614036934	217
1	54649	10555.029002654435	218
1	54650	10555.06148299305	217
1	54653	10556.09125808133	216
1	54657	10556.30931970506	217
1	54659	10556.531251282169	218
1	54660	10557.128737768346	217
1	54663	10558.001355472022	216
1	54667	10558.270072984256	217
1	54671	10558.792206050942	218
1	54672	10558.856140223705	217
1	54676	10559.272392699891	218
1	54678	10559.635861037023	219
1	54679	10559.720058926568	218
1	54682	10560.827338419203	217
1	54686	10561.420582847055	218
1	54687	10561.818082497455	217
1	54691	10561.9440046445	218
1	54693	10562.445721314121	219
1	54694	10562.667358857021	218
1	54697	10563.63187525319	217
1	54701	10564.401060887646	218
1	54702	10564.671888806951	217
1	54705	10565.7042305558	216
1	54709	10566.53203786631	217
1	54710	10566.746805840918	216
1	54714	10566.819979730789	217
1	54715	10567.551736980957	216
1	54719	10568.509448082411	217
1	54720	10568.576231163369	216
1	54723	10569.561785014906	215
1	54729	10570.463894204675	216
1	54730	10570.713503137418	215
1	54733	10571.77432835335	214
1	54737	10572.447595970649	215
1	54738	10572.619979887922	214
1	54741	10573.483703932446	213
1	54744	10574.514947217145	212
1	54747	10575.554916048889	211
1	54750	10576.750944666286	210
1	54753	10577.614959904273	209
1	54757	10578.416626547208	210
1	54758	10578.731192236767	209
1	54762	10579.835308141538	210
1	54763	10579.888552397304	209
1	54767	10580.851341760871	210
1	54769	10580.879394689357	211
1	54770	10581.050196159352	210
1	54774	10581.421619324226	211
1	54776	10581.655871475921	212
1	54777	10582.010812232364	211
1	54780	10582.946929833572	210
1	54784	10583.135239997621	211
1	54785	10583.907354952767	210
1	54788	10584.774425628874	209
1	54792	10584.994152011998	210
1	54793	10585.666773961857	209
1	54797	10586.508935706192	210
1	54798	10586.669886172656	209
1	54802	10587.179228933727	210
1	54804	10587.38816020537	211
1	54805	10587.499068584293	210
1	54809	10588.413877359386	211
1	54811	10588.448612213515	212
1	54812	10588.558436284214	211
1	54815	10589.649708736688	210
1	54819	10589.861410942107	211
1	54820	10590.658724759892	210
1	54824	10590.813699041393	211
1	54826	10591.57255779908	212
1	54827	10591.795306559466	211
1	54831	10592.368664090624	212
1	54835	10592.575992760302	213
1	54836	10592.824130772241	212
1	54840	10593.927091141331	213
1	54841	10593.937941884809	212
1	54844	10595.061309002061	211
1	54848	10595.158849940368	212
1	54852	10595.44973955009	213
1	54853	10595.971320686956	212
1	54857	10596.804414793465	213
1	54858	10597.144103224297	212
1	54862	10597.164126319077	213
1	54864	10597.663556615059	214
1	54865	10598.011885941588	213
1	54868	10599.183916267288	212
1	54874	10599.615385112886	213
1	54876	10599.948455168069	214
1	54877	10600.033137551417	213
1	54883	10600.144040784697	214
1	54885	10600.493746033271	215
1	54887	10600.606268978315	216
1	54888	10600.937220972498	215
1	54892	10602.011119816475	216
1	54893	10602.060654291605	215
1	54897	10602.144983390393	216
1	54899	10602.318559022599	217
1	54902	10603.131896870585	216
1	54906	10603.579503478615	217
1	54908	10603.743494340559	218
1	54909	10604.207884999273	217
1	54913	10604.256162994503	218
1	54915	10604.488488414143	219
1	54917	10604.751920163395	220
1	54919	10605.088314462344	221
1	54920	10605.353999219929	220
1	54924	10606.05831847373	221
1	54925	10606.256473910344	220
1	54928	10607.316435488315	219
1	54932	10607.784840836985	220
1	54934	10607.895488369254	221
1	54936	10608.350125722045	222
1	54937	10608.436054262148	221
1	54941	10608.89268088422	222
1	54942	10609.464769816307	221
1	54946	10609.631012811414	222
1	54948	10609.651082204297	223
1	54950	10609.773869205899	224
1	54951	10610.352941935418	223
1	54955	10610.409574791806	224
1	54957	10610.796969317783	225
1	54958	10611.33242552858	224
1	54962	10612.285795167055	225
1	54963	10612.444497180918	224
1	54966	10613.597524628883	223
1	54970	10614.502716049303	224
1	54971	10614.692998246291	223
1	54974	10615.6603639978	222
1	54978	10615.912595199426	223
1	54980	10616.124272267609	224
1	54981	10616.47060143389	223
1	54985	10617.183360090235	224
1	54987	10617.343889884185	225
1	54988	10617.659973787146	224
1	54992	10617.780186769764	225
1	54994	10618.280909454447	226
1	54996	10618.711307118925	227
1	54998	10618.768557857719	228
1	54999	10618.825754982515	227
1	55003	10619.710325014654	228
1	55004	10619.820467738903	227
1	55008	10619.889559589857	228
1	55012	10620.303611386013	229
1	55013	10620.989925314675	228
1	55016	10621.919060935642	227
1	55020	10622.02462502019	228
1	55022	10622.183051185924	229
1	55024	10622.192860597906	230
1	55025	10622.789036746233	229
1	55029	10623.626277664915	230
1	55031	10623.772407151946	231
1	55032	10623.808651153187	230
1	55036	10624.22086350647	231
1	55037	10624.75561391609	230
1	55041	10624.854786419197	231
1	55042	10625.642970291434	230
1	55046	10625.844774650761	231
1	55047	10626.53809497934	230
1	55050	10627.721908465588	229
1	55053	10628.80121016605	228
1	55057	10628.884337186406	229
1	55059	10629.063359189793	230
1	55060	10629.715785136914	229
1	55064	10630.365441935336	230
1	55065	10630.550246370865	229
1	55069	10630.89432228067	230
1	55071	10631.432030158145	231
1	55072	10631.435670340994	230
1	55076	10632.346360177109	231
1	55077	10632.408618415055	230
1	55080	10633.504881360383	229
1	55084	10634.048213483702	230
1	55085	10634.568520992809	229
1	55088	10635.741896476039	228
1	55092	10635.822017635985	229
1	55093	10636.601519774647	228
1	55097	10637.06457573696	229
1	55098	10637.648372509611	228
1	55102	10637.684826585575	229
1	55106	10638.250875899996	230
1	55108	10638.288843178363	231
1	55110	10638.587163427847	232
1	55111	10638.758722774686	231
1	55115	10638.926852100767	232
1	55117	10639.520308067276	233
1	55118	10639.858391713166	232
1	55122	10639.983539920862	233
1	55124	10640.199612322572	234
1	55125	10640.745143984911	233
1	55128	10641.799476480392	232
1	55131	10642.620610686579	231
1	55135	10643.141949860481	232
1	55136	10643.58609481156	231
1	55139	10644.475290272666	230
1	55143	10644.645763001223	231
1	55147	10644.910805522658	232
1	55148	10645.632048300935	231
1	55152	10646.501417075573	232
1	55153	10646.666730341876	231
1	55157	10647.070519349942	232
1	55160	10647.825817226807	231
1	55163	10648.832791547014	230
1	55166	10650.031202442574	229
1	55170	10650.312376093109	230
1	55171	10651.015608686863	229
1	55174	10652.021902271083	228
1	55178	10652.887926817643	229
1	55180	10652.984358513552	230
1	55181	10653.16593801724	229
1	55185	10653.995245838777	230
1	55187	10654.110672834842	231
1	55188	10654.361427071786	230
1	55192	10654.700446257788	231
1	55194	10654.702636003363	232
1	55196	10655.204177191647	233
1	55197	10655.260719026162	232
1	55201	10655.547915906939	233
1	55202	10656.422163492071	232
1	55206	10656.435788498766	233
1	55207	10657.390440362322	232
1	55210	10658.258409204989	231
1	55214	10658.336732859813	232
1	55216	10658.413773933231	233
1	55217	10659.135714644104	232
1	55220	10660.332912615783	231
1	55224	10660.58526746403	232
1	55226	10661.348232334801	233
1	55227	10661.489980133999	232
1	55231	10661.646055142127	233
1	55232	10662.634199966308	232
1	55236	10662.916451618272	233
1	55237	10663.523570998762	232
1	55241	10663.582355860533	233
1	55244	10664.421775964465	232
1	55248	10664.952499277323	233
1	55249	10665.246523610227	232
1	55252	10666.268317369841	231
1	55256	10667.144994635449	232
1	55257	10667.270449783843	231
1	55261	10667.671944480772	232
1	55262	10668.456378741287	231
1	55266	10669.150899529049	232
1	55267	10669.326154728145	231
1	55273	10669.886760098435	232
1	55274	10670.380450943862	231
1	55278	10670.644410064112	232
1	55280	10671.179339602489	233
1	55282	10671.270857956337	234
1	55283	10671.342224582196	233
1	55286	10672.413463032809	232
1	55290	10672.441448508363	233
1	55291	10673.562442536191	232
1	55295	10673.784266530354	233
1	55296	10674.625903776199	232
1	55300	10675.583994005877	233
1	55301	10675.805348035604	232
1	55305	10676.081946963391	233
1	55307	10676.771652115723	234
1	55308	10676.938270704452	233
1	55312	10677.041783429281	234
1	55313	10678.136432253666	233
1	55317	10678.88905461313	234
1	55318	10679.260213064499	233
1	55322	10679.418080240732	234
1	55324	10679.764485384897	235
1	55325	10680.116301467459	234
1	55329	10680.901363190163	235
1	55330	10681.271816252548	234
1	55335	10682.404516047429	233
1	55339	10682.737882921683	234
1	55341	10682.963606831971	235
1	55342	10683.451349181872	234
1	55346	10684.018922719948	235
1	55347	10684.365830147084	234
1	55350	10685.527379569043	233
1	55354	10685.533413181844	234
1	55356	10686.204180038476	235
1	55357	10686.531886197445	234
1	55361	10686.547899688789	235
1	55362	10687.406761639756	234
1	55365	10688.270266876188	233
1	55369	10688.321854191931	234
1	55371	10688.690554386849	235
1	55373	10688.999316279729	236
1	55374	10689.362064193752	235
1	55378	10689.578947876519	236
1	55379	10690.220629167654	235
1	55383	10690.892226338799	236
1	55384	10691.070644233287	235
1	55388	10691.213346128708	236
1	55389	10691.953087466401	235
1	55395	10692.348214685707	236
1	55397	10692.409447600598	237
1	55399	10692.49878436399	238
1	55400	10692.970530116563	237
1	55403	10693.934480789029	236
1	55407	10694.475939231003	237
1	55409	10694.545283076176	238
1	55411	10694.789816356437	239
1	55412	10694.951625668169	238
1	55416	10695.06480543625	239
1	55418	10695.178640226293	240
1	55419	10695.887738967692	239
1	55423	10696.742122919291	240
1	55424	10697.071548710024	239
1	55428	10697.250741736098	240
1	55429	10698.172773841029	239
1	55433	10698.193998847778	240
1	55434	10699.226663012529	239
1	55440	10699.302474081509	240
1	55441	10700.028569394542	239
1	55445	10700.245932648541	240
1	55446	10701.092685183516	239
1	55450	10701.525152496607	240
1	55452	10701.899254987276	241
1	55453	10702.020571874833	240
1	55459	10702.528402296707	241
1	55460	10703.125258248678	240
1	55464	10703.528361211168	241
1	55465	10704.172524901672	240
1	55468	10705.245693760092	239
1	55472	10706.253660323817	240
1	55473	10706.341383238702	239
1	55477	10706.344621756378	240
1	55478	10707.449037330045	239
1	55482	10707.824694867282	240
1	55483	10708.448845724209	239
1	55486	10709.636076180829	238
1	55490	10710.309211717099	239
1	55491	10710.829305031156	238
1	55495	10711.620176373727	239
1	55496	10711.97345201355	238
1	55500	10712.334482796656	239
1	55501	10712.87151524751	238
1	55504	10713.750252084439	237
1	55508	10714.447844191331	238
1	55511	10714.715453739004	237
1	55514	10715.55054772832	236
1	55518	10715.718982521569	237
1	55519	10716.351682643784	236
1	55522	10717.313956122665	235
1	55525	10718.453362293082	234
1	55529	10718.948457560171	235
1	55530	10719.291880468472	234
1	55534	10720.198839888982	235
1	55535	10720.204155794072	234
1	55538	10721.327387046448	233
1	55543	10722.393082496344	232
1	55547	10723.22239155681	233
1	55548	10723.431143595937	232
1	55552	10723.647583181153	233
1	55554	10724.361692193994	234
1	55555	10724.422975089035	233
1	55558	10725.583437268815	232
1	55562	10725.628759756358	233
1	55564	10726.170862125365	234
1	55565	10726.659874512262	233
1	55568	10727.527506445634	232
1	55571	10728.565304251208	231
1	55575	10728.669709096791	232
1	55577	10728.681700583065	233
1	55579	10728.685618985469	234
1	55581	10729.301379482866	235
1	55583	10729.420603151156	236
1	55585	10729.645410064217	237
1	55586	10729.760242391105	236
1	55590	10729.998667170951	237
1	55591	10730.694298654149	236
1	55595	10730.995109056352	237
1	55597	10731.414659139754	238
1	55598	10731.764624409198	237
1	55605	10732.649981435674	236
1	55609	10732.82659173067	237
1	55611	10732.876586859606	238
1	55612	10733.701956640842	237
1	55616	10734.208353057966	238
1	55617	10734.819804827968	237
1	55621	10734.9241780209	238
1	55624	10735.867344169511	237
1	55627	10737.019777216116	236
1	55631	10737.64822490734	237
1	55632	10737.8725519714	236
1	55635	10738.723151996365	235
1	55639	10739.369699906046	236
1	55640	10739.708404144092	235
1	55644	10740.453655163453	236
1	55646	10740.594739811645	237
1	55647	10740.675198191876	236
1	55651	10741.075556223526	237
1	55652	10741.503776615305	236
1	55656	10741.957481296011	237
1	55657	10742.530442162795	236
1	55660	10743.569221007923	235
1	55664	10743.859460068263	236
1	55665	10744.407546196604	235
1	55669	10744.450892637548	236
1	55670	10745.588273407617	235
1	55674	10746.264860043527	236
1	55675	10746.55010428662	235
1	55679	10747.069032304135	236
1	55680	10747.624292566819	235
1	55684	10747.826559799805	236
1	55685	10748.596923322609	235
1	55688	10749.743191935221	234
1	55691	10750.709751618101	233
1	55695	10750.711399710505	234
1	55697	10751.302057806145	235
1	55698	10751.689094999066	234
1	55702	10751.903150166623	235
1	55704	10752.184227685581	236
1	55705	10752.692474050174	235
1	55709	10752.940882141436	236
1	55710	10753.892255263502	235
1	55714	10754.068952606761	236
1	55715	10754.834649768571	235
1	55719	10754.850155253757	236
1	55720	10755.818191180105	235
1	55724	10756.007107902177	236
1	55725	10756.880296659476	235
1	55728	10757.777805186535	234
1	55731	10758.692072510726	233
1	55735	10759.20763181872	234
1	55737	10759.63737313517	235
1	55738	10759.704227780557	234
1	55741	10760.579750216293	233
1	55746	10761.700588898646	232
1	55750	10761.937520120375	233
1	55751	10762.505349845631	232
1	55754	10763.612560418813	231
1	55758	10764.080252366062	232
1	55760	10764.168669841813	233
1	55762	10764.573939245231	234
1	55763	10764.802799246559	233
1	55766	10765.720858356921	232
1	55769	10766.874584110552	231
1	55773	10767.427455899965	232
1	55774	10767.92942996007	231
1	55778	10768.173271068008	232
1	55779	10768.992296584608	231
1	55783	10769.604416421292	232
1	55784	10770.067540427582	231
1	55788	10770.289504828003	232
1	55790	10770.692322931521	233
1	55791	10771.064742352353	232
1	55795	10772.04669149277	233
1	55796	10772.078405215224	232
1	55799	10773.080857142905	231
1	55803	10773.096509275053	232
1	55805	10773.314605437873	233
1	55806	10774.252084018389	232
1	55810	10774.986971965084	233
1	55811	10775.18356385809	232
1	55815	10775.423225047807	233
1	55817	10775.752428470506	234
1	55819	10776.047219519363	235
1	55821	10776.186163097941	236
1	55822	10776.222587597096	235
1	55825	10777.356718486739	234
1	55829	10777.676826731383	235
1	55830	10778.333513278147	234
1	55833	10779.136121096933	233
1	55837	10779.151429484373	234
1	55839	10780.010500023778	235
1	55841	10780.211287866329	236
1	55842	10780.21133743078	235
1	55846	10781.232707089188	236
1	55847	10781.242883157735	235
1	55851	10781.887543629	236
1	55853	10781.907024559683	237
1	55855	10782.23655510929	238
1	55857	10782.380444854132	239
1	55858	10782.38981181039	238
1	55861	10783.345130773452	237
1	55865	10783.50311751092	238
1	55866	10784.489228408229	237
1	55870	10785.23405098155	238
1	55873	10785.464317234796	237
1	55876	10786.376715185684	236
1	55879	10787.517346785595	235
1	55883	10787.771804961394	236
1	55885	10788.151215575303	237
1	55887	10788.227884280295	238
1	55888	10788.573896540799	237
1	55891	10789.746657797326	236
1	55894	10790.732989757419	235
1	55897	10791.572940314845	234
1	55901	10792.182153650506	235
1	55902	10792.526260015745	234
1	55906	10792.526896725296	235
1	55908	10792.967592920425	236
1	55909	10793.526927278381	235
1	55912	10794.587461519711	234
1	55918	10794.758862984865	235
1	55919	10795.735816145785	234
1	55922	10796.73289790396	233
1	55925	10797.596169333629	232
1	55930	10798.633631203513	231
1	55933	10799.825309375397	230
1	55937	10799.95659132231	231
1	55939	10800.581357040544	232
1	55940	10800.997002778485	231
1	55944	10801.459841649238	232
1	55945	10802.132199134029	231
1	55951	10802.555981035775	232
1	55952	10802.972689559221	231
1	55956	10803.127195629644	232
1	55958	10803.820173892335	233
1	55959	10804.058920598034	232
1	55962	10805.108653841358	231
1	55965	10806.135763763547	230
1	55969	10806.665678008559	231
1	55971	10806.702207647888	232
1	55972	10807.120437407684	231
1	55976	10807.897097730059	232
1	55977	10808.155022101853	231
1	55981	10808.304910604283	232
1	55982	10809.214475520238	231
1	55986	10810.253661441498	232
1	55987	10810.2890515863	231
1	55991	10810.415705880121	232
1	55993	10811.168325800954	233
1	55994	10811.287458920948	232
1	55998	10811.695900900424	233
1	55999	10812.095201306328	232
1	56003	10812.37654955627	233
1	56005	10813.172209828287	234
1	56006	10813.185676001388	233
1	56010	10813.26065897167	234
1	56011	10814.009861198816	233
1	56015	10814.666068211015	234
1	56016	10814.81454249686	233
1	56020	10815.371500531233	234
1	56022	10815.806712800911	235
1	56023	10815.936322195366	234
1	56027	10816.640463474966	235
1	56028	10817.093277636267	234
1	56032	10818.129578537907	235
1	56033	10818.177146150734	234
1	56036	10819.060687811769	233
1	56040	10819.46485553505	234
1	56042	10819.659897833437	235
1	56043	10820.252067573092	234
1	56046	10821.237828180383	233
1	56050	10821.829746704818	234
1	56052	10821.923596548593	235
1	56053	10822.152411969009	234
1	56057	10822.217092556921	235
1	56058	10823.284877358473	234
1	56062	10823.618740318974	235
1	56063	10824.097756466552	234
1	56067	10824.557370298738	235
1	56069	10824.7157447197	236
1	56070	10825.14931339091	235
1	56074	10825.349108800344	236
1	56076	10825.360662536096	237
1	56077	10826.305321272186	236
1	56081	10826.382738833568	237
1	56082	10827.148268582488	236
1	56085	10828.186383034105	235
1	56089	10828.436205384117	236
1	56091	10828.881212265627	237
1	56094	10829.037872565168	236
1	56098	10829.668960354151	237
1	56100	10829.896641304468	238
1	56101	10829.944185208253	237
1	56105	10830.061697048827	238
1	56107	10830.779297324897	239
1	56109	10831.085644951365	240
1	56110	10831.111581081807	239
1	56113	10832.134809699937	238
1	56116	10833.251161710642	237
1	56120	10833.424742358156	238
1	56122	10834.103104208219	239
1	56123	10834.213042987421	238
1	56127	10834.336053241454	239
1	56129	10834.366838634284	240
1	56130	10835.078799736876	239
1	56133	10835.938505916953	238
1	56136	10836.749719301242	237
1	56140	10836.87890593461	238
1	56141	10837.573182568609	237
1	56146	10838.73382373676	236
1	56150	10839.274649791653	237
1	56151	10839.868875588386	236
1	56155	10840.657094904259	237
1	56156	10840.740817261397	236
1	56160	10840.992912610682	237
1	56162	10841.581614183602	238
1	56163	10841.674436521347	237
1	56167	10841.746975161041	238
1	56168	10842.657088756471	237
1	56171	10843.591827653351	236
1	56175	10843.627767550068	237
1	56177	10843.720954205653	238
1	56179	10843.729000101457	239
1	56181	10843.997602650237	240
1	56183	10844.644627558423	241
1	56184	10844.684246940075	240
1	56190	10844.998365351816	241
1	56192	10845.017278561541	242
1	56194	10845.549371733009	243
1	56195	10845.562338888089	242
1	56198	10846.435897392968	241
1	56202	10846.900668283812	242
1	56204	10847.253140079612	243
1	56205	10847.59719958259	242
1	56208	10848.468642576134	241
1	56211	10849.645265482648	240
1	56215	10850.079262297626	241
1	56217	10850.155256077693	242
1	56218	10850.790863266683	241
1	56222	10851.009042697598	242
1	56224	10851.523104743173	243
1	56225	10851.950084432497	242
1	56228	10852.961395879745	241
1	56232	10853.139204567016	242
1	56233	10853.868770476434	241
1	56237	10854.72264649893	242
1	56238	10854.776977923981	241
1	56242	10855.354076726625	242
1	56244	10855.40765519019	243
1	56246	10855.729642653712	244
1	56247	10855.896193393882	243
1	56251	10856.3610484478	244
1	56252	10856.943435334697	243
1	56257	10857.964165741395	242
1	56260	10859.021572097674	241
1	56263	10860.220301901367	240
1	56266	10861.179223171533	239
1	56270	10861.259426367324	240
1	56271	10862.068363991291	239
1	56274	10863.138009585538	238
1	56278	10863.248647244344	239
1	56280	10863.767588097757	240
1	56281	10864.236634743032	239
1	56284	10865.060202661068	238
1	56288	10865.102399469979	239
1	56290	10865.666775865493	240
1	56291	10865.918096510046	239
1	56294	10866.844997276184	238
1	56297	10867.940524367061	237
1	56301	10868.060132727965	238
1	56303	10868.554631281596	239
1	56304	10868.908359814533	238
1	56308	10869.728912206307	239
1	56309	10869.916341153816	238
1	56313	10870.015977123133	239
1	56314	10870.849342333995	238
1	56318	10871.182989738316	239
1	56319	10872.038588250898	238
1	56323	10872.141065855753	239
1	56324	10872.847346938778	238
1	56328	10872.961585888902	239
1	56329	10873.711065496601	238
1	56332	10874.657724341567	237
1	56335	10875.51453945367	236
1	56339	10875.823504560941	237
1	56340	10876.523924568858	236
1	56344	10877.280506178752	237
1	56345	10877.355101792984	236
1	56348	10878.384451049384	235
1	56352	10878.857867243928	236
1	56354	10879.006099381967	237
1	56356	10879.252149961577	238
1	56357	10879.323276259009	237
1	56361	10879.381211502674	238
1	56362	10880.324671910707	237
1	56365	10881.319542620987	236
1	56369	10881.844335485573	237
1	56370	10882.140929519482	236
1	56373	10883.33127504392	235
1	56376	10884.174526893072	234
1	56379	10884.986163737722	233
1	56383	10885.138951730844	234
1	56385	10885.765330067117	235
1	56387	10885.824514089387	236
1	56389	10885.838994765274	237
1	56391	10885.98004578368	238
1	56392	10886.089594757561	237
1	56396	10887.032653905171	238
1	56398	10887.038023787588	239
1	56399	10887.149950025514	238
1	56403	10887.875961666224	239
1	56404	10888.087454570834	238
1	56408	10888.295214187686	239
1	56410	10888.493590635224	240
1	56412	10888.789906398344	241
1	56413	10889.283921823841	240
1	56417	10889.294922212062	241
1	56418	10890.215844946731	240
1	56422	10890.3375192268	241
1	56423	10891.265687591214	240
1	56426	10892.071481626857	239
1	56430	10892.281885472471	240
1	56434	10892.969812961715	241
1	56435	10893.209567414228	240
1	56439	10893.251970533496	241
1	56441	10893.536021086604	242
1	56443	10894.163524240577	243
1	56444	10894.404102254942	242
1	56448	10894.856017815137	243
1	56451	10895.387897342261	242
1	56455	10895.450670234232	243
1	56456	10896.237699608602	242
1	56459	10897.308693376281	241
1	56463	10897.424038356268	242
1	56465	10898.102007207409	243
1	56466	10898.178939399686	242
1	56470	10898.414290722408	243
1	56471	10899.249127451428	242
1	56475	10900.063097478655	243
1	56478	10900.331893479922	242
1	56482	10900.336221109833	243
1	56483	10901.176785426685	242
1	56486	10902.299675939144	241
1	56490	10902.915670022441	242
1	56491	10903.446524443669	241
1	56495	10904.08625679754	242
1	56497	10904.304218407013	243
1	56498	10904.362684503855	242
1	56501	10905.264307409158	241
1	56504	10906.069828186283	240
1	56510	10906.320100713246	241
1	56512	10906.557690418091	242
1	56513	10906.973070626432	241
1	56516	10907.88071448105	240
1	56520	10907.944052793217	241
1	56521	10908.794107867317	240
1	56524	10909.989854332531	239
1	56528	10910.139780108307	240
1	56530	10910.73535644947	241
1	56531	10911.155448081629	240
1	56535	10911.277514536889	241
1	56537	10911.596966306336	242
1	56538	10912.036414190201	241
1	56541	10912.915502442611	240
1	56545	10913.558411890046	241
1	56546	10913.855797286989	240
1	56550	10913.97416003984	241
1	56551	10914.667835508386	240
1	56555	10914.881386562951	241
1	56557	10914.959031781358	242
1	56558	10915.854028205486	241
1	56562	10916.26712892268	242
1	56563	10916.764593186701	241
1	56567	10917.169196217337	242
1	56569	10917.820471206053	243
1	56570	10917.946688881988	242
1	56573	10919.050116747717	241
1	56576	10920.002519924014	240
1	56579	10920.984170212883	239
1	56582	10921.881065703749	238
1	56585	10923.07866444458	237
1	56589	10923.199651221892	238
1	56591	10923.41730715955	239
1	56592	10924.029814237177	238
1	56596	10924.874991159334	239
1	56597	10924.9788533873	238
1	56600	10925.88354605614	237
1	56604	10926.357043625532	238
1	56605	10927.023152870226	237
1	56608	10928.183591031849	236
1	56612	10928.450174943535	237
1	56614	10928.522198177662	238
1	56616	10929.271756532427	239
1	56617	10929.308185961477	238
1	56620	10930.378430912558	237
1	56624	10930.60693075973	238
1	56625	10931.271042074084	237
1	56629	10931.339648948814	238
1	56631	10931.437874496693	239
1	56633	10931.804606673446	240
1	56634	10932.088752706635	239
1	56638	10932.418759485412	240
1	56640	10932.708211844233	241
1	56641	10933.030433774653	240
1	56644	10934.211185594468	239
1	56647	10935.320225814643	238
1	56651	10935.373275601803	239
1	56653	10935.491074166843	240
1	56654	10936.163831573545	239
1	56657	10937.089430954966	238
1	56660	10938.261651679135	237
1	56664	10938.773925888618	238
1	56666	10939.25894265746	239
1	56667	10939.455237813301	238
1	56670	10940.325695207908	237
1	56674	10940.548043265889	238
1	56675	10941.469186711504	237
1	56679	10941.643013792948	238
1	56681	10941.821148930902	239
1	56683	10942.030002874762	240
1	56684	10942.423418257299	239
1	56687	10943.253429156642	238
1	56691	10943.310326030696	239
1	56692	10944.418397849619	238
1	56696	10944.549614651317	239
1	56698	10945.050421330078	240
1	56700	10945.265832621637	241
1	56702	10945.406814981851	242
1	56703	10945.586493520911	241
1	56706	10946.39078652431	240
1	56710	10946.707807612049	241
1	56712	10946.786290723631	242
1	56714	10946.914288767186	243
1	56715	10947.566419423471	242
1	56719	10948.051110846951	243
1	56720	10948.632066480635	242
1	56723	10949.528710791102	241
1	56726	10950.402357488597	240
1	56729	10951.205302628042	239
1	56733	10951.476207236002	240
1	56734	10952.323187186481	239
1	56737	10953.179173520399	238
1	56741	10953.235947156598	239
1	56743	10953.99152094852	240
1	56744	10954.369756255677	239
1	56748	10955.202548721793	240
1	56750	10955.273552086585	241
1	56751	10955.45716402969	240
1	56755	10955.488569115383	241
1	56757	10956.291229680079	242
1	56758	10956.418346750184	241
1	56761	10957.456355306699	240
1	56764	10958.321405758902	239
1	56768	10959.074660820622	240
1	56769	10959.247471194069	239
1	56773	10959.359821899012	240
1	56775	10959.679247801578	241
1	56777	10959.689250317161	242
1	56778	10960.139891575097	241
1	56781	10960.988264477911	240
1	56785	10961.303019105918	241
1	56786	10962.128640178038	240
1	56790	10962.380129751756	241
1	56792	10962.623011359899	242
1	56794	10962.72355371968	243
1	56796	10963.223924231158	244
1	56797	10963.237933300348	243
1	56801	10963.542972624721	244
1	56803	10963.77108800451	245
1	56804	10964.090450956585	244
1	56808	10965.000775388856	245
1	56810	10965.065377962699	246
1	56811	10965.10133250971	245
1	56814	10966.169664776797	244
1	56818	10967.156230166612	245
1	56819	10967.160784819169	244
1	56822	10968.136214112403	243
1	56826	10968.373758636893	244
1	56828	10969.115096023955	245
1	56829	10969.286283792375	244
1	56833	10969.398641399103	245
1	56835	10969.628969140039	246
1	56836	10970.275471643271	245
1	56840	10970.415473524435	246
1	56842	10970.429751904342	247
1	56844	10971.020198123415	248
1	56845	10971.23323038193	247
1	56848	10972.175143279886	246
1	56852	10972.974316207701	247
1	56853	10973.366261257703	246
1	56857	10973.655745656162	247
1	56859	10973.772040264435	248
1	56861	10974.32542742472	249
1	56862	10974.552170475485	248
1	56865	10975.470406346867	247
1	56869	10975.646520400017	248
1	56870	10976.453223016212	247
1	56875	10977.603586373111	246
1	56879	10977.773198453164	247
1	56880	10978.703009861806	246
1	56883	10979.509648625185	245
1	56887	10979.59319060772	246
1	56889	10979.716433185321	247
1	56891	10980.04550978668	248
1	56892	10980.378929226757	247
1	56896	10981.055822668915	248
1	56897	10981.47164007165	247
1	56901	10981.506492088563	248
1	56902	10982.479455099073	247
1	56905	10983.301777104852	246
1	56909	10983.418643410461	247
1	56910	10984.194201741093	246
1	56914	10984.788546523211	247
1	56915	10985.333363952306	246
1	56918	10986.440077974466	245
1	56922	10986.582074489368	246
1	56924	10986.60310991905	247
1	56926	10986.975228054048	248
1	56927	10987.554996984271	247
1	56931	10987.933791618547	248
1	56932	10988.536314889421	247
1	56935	10989.599487260361	246
1	56939	10990.614170583307	247
1	56940	10990.784098928612	246
1	56944	10991.037996439934	247
1	56945	10991.774057366703	246
1	56949	10992.063971504981	247
1	56950	10992.78849619795	246
1	56954	10993.461449435805	247
1	56955	10993.854852746803	246
1	56959	10993.880396406815	247
1	56960	10994.944060471005	246
1	56964	10995.308237786608	247
1	56965	10996.035123166911	246
1	56969	10996.158851559707	247
1	56970	10996.947881062612	246
1	56975	10998.013330070213	245
1	56979	10998.229651414809	246
1	56981	10998.470411451174	247
1	56983	10998.934345340256	248
1	56984	10999.090195646793	247
1	56987	11000.274792482615	246
1	56991	11000.498278560545	247
1	56993	11000.76976868248	248
1	56994	11001.172011613384	247
1	56997	11002.051327075627	246
1	57001	11002.292927808514	247
1	57002	11003.010002657961	246
1	57005	11003.898320911083	245
1	57009	11004.34435111977	246
1	57010	11004.881324610304	245
1	57014	11005.244048380787	246
1	57015	11005.975696050379	245
1	57019	11006.130500090752	246
1	57021	11006.587946427008	247
1	57024	11006.837513274423	246
1	57027	11007.654563498872	245
1	57031	11007.806515398841	246
1	57032	11008.613741774953	245
1	57036	11009.212076103391	246
1	57038	11009.53276457678	247
1	57039	11009.563231991793	246
1	57043	11009.961305848802	247
1	57045	11010.315085212658	248
1	57046	11010.640451552908	247
1	57050	11011.00001423155	248
1	57052	11011.370170275079	249
1	57053	11011.667677308063	248
1	57057	11012.3002837526	249
1	57058	11012.687414505056	248
1	57062	11013.044723718555	249
1	57064	11013.192880693867	250
1	57065	11013.744815098311	249
1	57069	11014.197488730419	250
1	57070	11014.895690848588	249
1	57074	11015.799405913825	250
1	57075	11016.074270756545	249
1	57079	11016.739917439009	250
1	57080	11017.182632294951	249
1	57084	11017.413741288767	250
1	57086	11018.055402923588	251
1	57087	11018.078168933654	250
1	57091	11018.558946184697	251
1	57092	11019.275244268684	250
1	57096	11019.614231445973	251
1	57098	11019.949182417643	252
1	57099	11020.151840303282	251
1	57102	11021.121980092305	250
1	57106	11021.371024478628	251
1	57107	11021.960481149148	250
1	57110	11022.943056115791	249
1	57114	11023.41246956462	250
1	57115	11023.76079245834	249
1	57118	11024.668793941944	248
1	57122	11025.109219822269	249
1	57124	11025.410636204594	250
1	57125	11025.796098784174	249
1	57129	11025.984963076412	250
1	57131	11026.643750096651	251
1	57132	11026.649602888248	250
1	57138	11027.629428261246	251
1	57139	11027.648254563476	250
1	57143	11028.055148989211	251
1	57144	11028.723056137285	250
1	57148	11028.796947293826	251
1	57151	11029.592574392634	250
1	57155	11029.915846543476	251
1	57156	11030.592618715486	250
1	57160	11031.388389745807	251
1	57163	11031.707391704714	250
1	57167	11032.018358166219	251
1	57168	11032.621799220892	250
1	57171	11033.671491749587	249
1	57175	11034.400970929306	250
1	57176	11034.762157257835	249
1	57180	11035.093287273757	250
1	57181	11035.607499581019	249
1	57184	11036.517139187364	248
1	57187	11037.696275818909	247
1	57191	11038.430408982106	248
1	57192	11038.614160844034	247
1	57195	11039.798462341821	246
1	57199	11040.786990866262	247
1	57200	11040.882950972581	246
1	57204	11040.925325309729	247
1	57206	11041.617187071377	248
1	57207	11041.785146530347	247
1	57211	11042.28595012515	248
1	57212	11042.744156455251	247
1	57216	11043.246866897188	248
1	57218	11043.302395410692	249
1	57220	11043.418064196063	250
1	57221	11043.866086022651	249
1	57224	11045.036497577468	248
1	57228	11045.639604150853	249
1	57232	11045.988137554616	250
1	57233	11046.114923023155	249
1	57237	11046.556418487993	250
1	57238	11047.136027996803	249
1	57242	11048.26411268739	250
1	57243	11048.275985993447	249
1	57246	11049.373700610923	248
1	57249	11050.188754151205	247
1	57253	11050.52052846561	248
1	57255	11050.638924739556	249
1	57256	11051.256791084635	248
1	57260	11051.670636569384	249
1	57263	11052.232645266971	248
1	57266	11053.270193846153	247
1	57269	11054.263344803827	246
1	57273	11054.545882356046	247
1	57274	11055.064809661361	246
1	57277	11055.9135632596	245
1	57281	11056.020751383865	246
1	57283	11056.280913561181	247
1	57286	11056.75752114719	246
1	57289	11057.807790729406	245
1	57293	11057.864020367281	246
1	57295	11057.924472347535	247
1	57297	11057.988582075893	248
1	57299	11058.162980210108	249
1	57300	11058.662657967026	248
1	57304	11059.05977372047	249
1	57306	11059.268307923015	250
1	57308	11059.456109549146	251
1	57309	11059.751905711184	250
1	57312	11060.801541564244	249
1	57315	11061.615233643356	248
1	57319	11061.980057548715	249
1	57320	11062.560367936085	248
1	57323	11063.441390980504	247
1	57326	11064.588148813698	246
1	57330	11064.882885214799	247
1	57331	11065.607140865739	246
1	57335	11065.614458361031	247
1	57337	11065.886865063871	248
1	57339	11065.954641994504	249
1	57340	11066.608238361686	248
1	57343	11067.704641453087	247
1	57347	11068.208339170458	248
1	57349	11068.619771953654	249
1	57350	11068.658183637172	248
1	57354	11068.865263652464	249
1	57355	11069.625035575502	248
1	57358	11070.821033846405	247
1	57362	11070.914359450779	248
1	57364	11071.25695465778	249
1	57366	11071.262405309635	250
1	57367	11071.992567344014	249
1	57370	11072.974874886781	248
1	57374	11073.39305142778	249
1	57375	11074.017886795294	248
1	57379	11074.072590675874	249
1	57381	11074.39591295507	250
1	57382	11075.197929394901	249
1	57385	11076.149816332203	248
1	57389	11076.44834227298	249
1	57391	11076.473080074159	250
1	57393	11076.719077398747	251
1	57394	11077.121210071821	250
1	57398	11077.919407903677	251
1	57399	11077.927425561384	250
1	57402	11078.9561512759	249
1	57408	11079.688058974049	250
1	57410	11079.711149540767	251
1	57411	11079.930979844187	250
1	57415	11079.935914831068	251
1	57416	11080.888436764017	250
1	57419	11081.804178527653	249
1	57423	11082.068771478144	250
1	57424	11082.790268822018	249
1	57427	11083.807892658565	248
1	57430	11084.957158100143	247
1	57433	11085.89960731259	246
1	57437	11086.337680346818	247
1	57439	11087.026579476008	248
1	57440	11087.03181945952	247
1	57444	11087.829447839032	248
1	57446	11088.032728389844	249
1	57447	11088.19263568614	248
1	57451	11088.233945700016	249
1	57453	11088.925483308953	250
1	57454	11089.060882120583	249
1	57457	11090.077172784418	248
1	57461	11090.266238286325	249
1	57463	11090.548014416154	250
1	57464	11090.934766368386	249
1	57468	11091.536023064353	250
1	57469	11091.865052408916	249
1	57473	11092.730843024587	250
1	57475	11092.761053314078	251
1	57476	11092.77839845466	250
1	57479	11093.812630333756	249
1	57482	11094.677925265958	248
1	57486	11094.747599116438	249
1	57488	11095.036401668769	250
1	57489	11095.574999320698	249
1	57493	11095.587685140286	250
1	57495	11095.687368229143	251
1	57496	11096.450601240718	250
1	57500	11097.015708384643	251
1	57502	11097.127286071495	252
1	57503	11097.574803427239	251
1	57507	11098.236413256929	252
1	57509	11098.385486788904	253
1	57510	11098.433664404699	252
1	57513	11099.612933535879	251
1	57517	11100.321138642403	252
1	57521	11100.539433983247	253
1	57522	11100.802346127485	252
1	57526	11100.852702732757	253
1	57527	11101.757923219451	252
1	57530	11102.783824433112	251
1	57534	11102.826508246622	252
1	57535	11103.785619072994	251
1	57539	11103.913528859146	252
1	57540	11104.788804443838	251
1	57544	11105.379482858162	252
1	57546	11105.719128779947	253
1	57547	11105.723348015739	252
1	57551	11105.967333168392	253
1	57553	11106.273113453125	254
1	57555	11106.369539221571	255
1	57557	11106.669345580813	256
1	57558	11106.792221118329	255
1	57562	11107.153957100495	256
1	57563	11107.633528174559	255
1	57567	11107.681241524138	256
1	57569	11108.168269564971	257
1	57570	11108.789682472596	256
1	57573	11109.621667973517	255
1	57577	11110.025566582571	256
1	57578	11110.518585341895	255
1	57581	11111.600733820634	254
1	57585	11111.70979449633	255
1	57587	11112.432862461616	256
1	57589	11112.607701994127	257
1	57590	11112.727961745957	256
1	57594	11113.121733860797	257
1	57595	11113.895549916761	256
1	57598	11114.958117441	255
1	57601	11115.787436045153	254
1	57605	11116.090752937406	255
1	57607	11116.098227826379	256
1	57609	11116.555915253888	257
1	57610	11116.712740138644	256
1	57614	11117.037283441799	257
1	57615	11117.798823241057	256
1	57619	11117.871686982745	257
1	57622	11118.977584827883	256
1	57626	11119.109562978457	257
1	57627	11119.819517439516	256
1	57631	11120.383360599126	257
1	57632	11120.690193097206	256
1	57635	11121.717271222552	255
1	57639	11121.806097319602	256
1	57641	11122.382603776611	257
1	57642	11122.524457423301	256
1	57645	11123.345380728883	255
1	57649	11123.681283920539	256
1	57650	11124.156246900563	255
1	57654	11124.748567172838	256
1	57656	11124.828571044746	257
1	57658	11125.067271430425	258
1	57659	11125.243972556484	257
1	57665	11125.688863542751	258
1	57666	11126.084329311368	257
1	57670	11126.454349105504	258
1	57671	11126.950084841535	257
1	57675	11127.399846728987	258
1	57676	11128.097291509159	257
1	57680	11128.159797538108	258
1	57681	11129.150625258874	257
1	57685	11129.283539070432	258
1	57688	11130.105992401115	257
1	57691	11131.149368630632	256
1	57695	11131.967153381458	257
1	57696	11132.26903770855	256
1	57699	11133.120260618351	255
1	57703	11133.358317221848	256
1	57705	11133.872865107485	257
1	57707	11133.991455071619	258
1	57708	11134.002999198719	257
1	57712	11134.874329979121	258
1	57713	11135.11077667028	257
1	57717	11136.159947981417	258
1	57718	11136.276718057509	257
1	57722	11136.395435568185	258
1	57723	11137.433702006101	257
1	57727	11138.333863541067	258
1	57728	11138.529744289725	257
1	57732	11138.750597946044	258
1	57734	11139.438154365598	259
1	57735	11139.452307496502	258
1	57739	11139.964842029416	259
1	57740	11140.446694512389	258
1	57743	11141.642077421773	257
1	57747	11142.61281110793	258
1	57748	11142.671097258296	257
1	57752	11142.688591158885	258
1	57756	11143.086518372201	259
1	57757	11143.49188217875	258
1	57760	11144.395651210196	257
1	57764	11144.786739310028	258
1	57766	11145.028701387012	259
1	57767	11145.517312931366	258
1	57771	11145.786320562973	259
1	57773	11145.892617950569	260
1	57775	11146.125634003493	261
1	57776	11146.608695445772	260
1	57780	11146.9684717648	261
1	57781	11147.775620370082	260
1	57784	11148.727297295167	259
1	57788	11149.282205589007	260
1	57790	11149.355540308539	261
1	57791	11149.556363015811	260
1	57795	11150.177820923699	261
1	57796	11150.395509597103	260
1	57800	11150.50401081394	261
1	57803	11151.421025744363	260
1	57807	11151.611856340804	261
1	57808	11152.352313946191	260
1	57811	11153.377911353208	259
1	57815	11153.402710049852	260
1	57817	11153.436604038888	261
1	57818	11154.370640990328	260
1	57822	11154.551216518801	261
1	57823	11155.20340202209	260
1	57826	11156.267089077927	259
1	57829	11157.239836353998	258
1	57833	11157.973982393046	259
1	57834	11158.317356429811	258
1	57837	11159.188379097919	257
1	57841	11159.62829424225	258
1	57842	11160.014982782959	257
1	57845	11160.95433918536	256
1	57849	11161.972035646569	257
1	57850	11162.13005017564	256
1	57854	11162.664801831856	257
1	57855	11163.031628548729	256
1	57858	11164.227852057948	255
1	57861	11165.268218292765	254
1	57865	11165.442811095507	255
1	57866	11166.203406712696	254
1	57870	11166.95676389462	255
1	57871	11167.131244613793	254
1	57875	11167.622841061225	255
1	57876	11168.255844195657	254
1	57880	11168.682405776275	255
1	57882	11169.243585589422	256
1	57883	11169.447737896074	255
1	57887	11170.325157764877	256
1	57888	11170.54551866651	255
1	57892	11170.596700432228	256
1	57894	11170.997243677787	257
1	57896	11171.449253632217	258
1	57897	11171.572289791801	257
1	57901	11171.7361877595	258
1	57902	11172.561416937881	257
1	57906	11172.706194303771	258
1	57907	11173.499139580321	257
1	57910	11174.306392463301	256
1	57914	11174.910008053468	257
1	57915	11175.221117603876	256
1	57919	11175.444787656812	257
1	57921	11175.516212112446	258
1	57923	11176.270725106468	259
1	57924	11176.293441687435	258
1	57928	11176.900556103021	259
1	57929	11177.292338127647	258
1	57933	11178.090453111655	259
1	57934	11178.253668923494	258
1	57939	11179.284096252271	257
1	57943	11179.918898671701	258
1	57944	11180.174237529007	257
1	57948	11180.657035662017	258
1	57950	11180.877280873882	259
1	57951	11181.344002432754	258
1	57954	11182.157905652938	257
1	57957	11183.216964926669	256
1	57961	11183.996057423016	257
1	57963	11184.363627292916	258
1	57964	11184.367196248477	257
1	57968	11185.400438407845	258
1	57969	11185.483352211123	257
1	57972	11186.644764840981	256
1	57976	11186.745296172684	257
1	57977	11187.814692815026	256
1	57980	11188.650510550854	255
1	57983	11189.554505575826	254
1	57987	11190.055107286218	255
1	57988	11190.589649521844	254
1	57992	11191.424562104683	255
1	57993	11191.644746801914	254
1	57997	11191.651113081224	255
1	57999	11191.756671792238	256
1	58001	11192.079362090508	257
1	58003	11192.272996036692	258
1	58005	11192.311395570722	259
1	58006	11192.776684138184	258
1	58010	11192.914964470882	259
1	58011	11193.60621794202	258
1	58015	11193.752618665417	259
1	58016	11194.536447522702	258
1	58019	11195.660799586779	257
1	58023	11195.888305173089	258
1	58024	11196.731714652112	257
1	58028	11197.648625063816	258
1	58030	11197.774006941118	259
1	58031	11197.831085552095	258
1	58034	11198.822915210674	257
1	58038	11199.752269751794	258
1	58041	11200.018501529383	257
1	58044	11201.030410421087	256
1	58048	11201.486707211574	257
1	58050	11202.14967661765	258
1	58052	11202.198035007324	259
1	58053	11202.210100353981	258
1	58057	11203.012152152125	259
1	58058	11203.134393564152	258
1	58062	11203.152299519996	259
1	58064	11204.078546175738	260
1	58065	11204.230113694264	259
1	58069	11205.045568336406	260
1	58070	11205.109169960214	259
1	58074	11205.235532443438	260
1	58076	11205.897221771601	261
1	58077	11205.985292272275	260
1	58081	11206.349444273436	261
1	58082	11207.072823019145	260
1	58085	11208.232000405533	259
1	58089	11208.941165974717	260
1	58090	11209.086555335304	259
1	58094	11209.113491277034	260
1	58096	11209.714173294196	261
1	58098	11209.952638529463	262
1	58099	11210.208262688766	261
1	58105	11210.696010308603	262
1	58106	11211.239762939053	261
1	58110	11211.422711488384	262
1	58111	11212.119783995772	261
1	58115	11212.966729207367	262
1	58116	11213.109804666328	261
1	58119	11214.304365627288	260
1	58124	11215.414787059284	259
1	58128	11216.249449628446	260
1	58129	11216.382220215078	259
1	58134	11217.218742739137	258
1	58138	11217.221818966606	259
1	58139	11218.398382209155	258
1	58143	11218.532190368549	259
1	58144	11219.361416604749	258
1	58147	11220.456605802856	257
1	58151	11221.304916105176	258
1	58153	11221.460545510917	259
1	58154	11221.508398470196	258
1	58158	11221.65357934456	259
1	58161	11222.608648204624	258
1	58165	11222.71312355083	259
1	58167	11223.175775312863	260
1	58169	11223.385646295602	261
1	58172	11223.459982517834	260
1	58176	11223.504611356556	261
1	58178	11223.984492321496	262
1	58179	11224.507927436668	261
1	58182	11225.308666969377	260
1	58186	11226.124553684565	261
1	58188	11226.158199430508	262
1	58189	11226.259849323525	261
1	58192	11227.266643812514	260
1	58196	11227.715565395123	261
1	58198	11228.273310637466	262
1	58199	11228.325455375115	261
1	58203	11228.951425932463	262
1	58204	11229.160506645876	261
1	58208	11229.748083414004	262
1	58210	11230.083420886284	263
1	58211	11230.329024757172	262
1	58216	11231.305299541268	261
1	58219	11232.396611603356	260
1	58223	11232.427088269396	261
1	58225	11232.994129810632	262
1	58226	11233.227538713167	261
1	58229	11234.199334413564	260
1	58233	11234.214050607151	261
1	58235	11234.492686562365	262
1	58237	11235.059436172096	263
1	58238	11235.234133323008	262
1	58241	11236.087744860356	261
1	58245	11236.770069641537	262
1	58247	11236.856790668424	263
1	58248	11237.189316205126	262
1	58252	11237.869151128117	263
1	58253	11238.266100911335	262
1	58257	11238.798081968676	263
1	58259	11238.824167132298	264
1	58261	11239.06088402295	265
1	58262	11239.278854368539	264
1	58266	11240.052424905294	265
1	58267	11240.306646495411	264
1	58271	11240.308246381597	265
1	58272	11241.338213116774	264
1	58275	11242.14246969028	263
1	58279	11242.56789697439	264
1	58280	11243.010869829362	263
1	58284	11243.160215330581	264
1	58285	11244.026312006922	263
[...]
6	116256	22413.878866157412	1766
6	116277	22417.058294631056	1767
6	116319	22424.923229681973	1768
6	116377	22437.644455001652	1769
6	116446	22449.727459807495	1770
6	116482	22456.536458251268	1771
6	116494	22458.562388221013	1772
6	116608	22478.35672227503	1773
6	116744	22505.727942931241	1774
6	116808	22517.262232895764	1775
6	116919	22540.405357533971	1776
6	117043	22560.861097631132	1777
6	117130	22576.0501794452	1778
6	117170	22584.473408375353	1779
6	117195	22589.219128549087	1780
6	117249	22598.82993092077	1781
6	117322	22612.334910056439	1782
6	117336	22614.0189717295	1783
6	117372	22620.026839658679	1784
6	117480	22640.09843186183	1785
6	117504	22643.905691271915	1786
6	117610	22666.475604504899	1787
6	117731	22693.224289839138	1788
6	117823	22710.299861464519	1789
6	117968	22735.866008658726	1790
6	117985	22738.85848507609	1791
6	118016	22743.93618727921	1792
6	118188	22776.671294393318	1793
6	118195	22778.291598429295	1794
6	118203	22779.718697975649	1795
6	118246	22787.377901237293	1796
6	118256	22789.074206170038	1797
6	118272	22792.891932859041	1798
6	118341	22803.834225700857	1799
6	118354	22807.12753391616	1800
6	118410	22817.322293455481	1801
6	118523	22837.471515440731	1802
6	118525	22837.665348942649	1803
6	118562	22844.873610722552	1804
6	118608	22853.062441819879	1805
6	118659	22861.441499388193	1806
6	118681	22866.060310626141	1807
6	118717	22872.059003012531	1808
6	118732	22875.560341928974	1809
6	118791	22885.868650476355	1810
6	118854	22898.409700015707	1811
6	118978	22920.674424869684	1812
6	118992	22922.963652958493	1813
6	119369	22996.618250475525	1814
6	119384	23000.156945897919	1815
6	119440	23011.618145094162	1816
6	119503	23025.450585728834	1817
6	119799	23085.128939452986	1818
6	119934	23109.71112922852	1819
6	119951	23111.727608243655	1820
6	119964	23114.870215518089	1821
6	120044	23129.676027854273	1822
6	120159	23149.935145113167	1823
6	120215	23160.313769830468	1824
6	120316	23179.685630733378	1825
6	120358	23186.718515816055	1826
6	120401	23194.35686161891	1827
6	120445	23202.237256716478	1828
6	120492	23211.624039461032	1829
6	120497	23212.602381986243	1830
6	120596	23232.395000456984	1831
6	120607	23235.442402735651	1832
6	120692	23249.847540132451	1833
6	120729	23257.420306751389	1834
6	120759	23262.820433236382	1835
6	120884	23286.523217431803	1836
6	120896	23287.983658096225	1837
6	120901	23289.253005426568	1838
6	120903	23289.260949910404	1839
6	120914	23290.273602345405	1840
6	120983	23303.082917290355	1841
6	121073	23320.130038637075	1842
6	121119	23328.037101688204	1843
6	121155	23334.154950051984	1844
6	121184	23339.215721755377	1845
6	121191	23340.125189526597	1846
6	121206	23343.002981723208	1847
6	121214	23344.518475023422	1848
6	121226	23347.218234331819	1849
6	121253	23351.478299985159	1850
6	121391	23378.561581500817	1851
6	121411	23382.677784344066	1852
6	121418	23383.990539373959	1853
6	121634	23425.894996862024	1854
6	121661	23430.288979716115	1855
6	121663	23430.796363843242	1856
6	121741	23448.252580804644	1857
6	121781	23456.635131865697	1858
6	121786	23457.098531601706	1859
6	121833	23468.675390958492	1860
6	121851	23472.164796437516	1861
6	121913	23483.857111451711	1862
6	122025	23503.106627294612	1863
6	122232	23542.086403119702	1864
6	122246	23543.888142263628	1865
6	122381	23567.787982975976	1866
6	122408	23572.749038452655	1867
6	122420	23574.516916218423	1868
6	122445	23580.063090888739	1869
6	122490	23588.833111808769	1870
6	122503	23591.298498672067	1871
6	122510	23592.695559111939	1872
6	122544	23598.494737914364	1873
6	122654	23620.480189060625	1874
6	122663	23621.931991001305	1875
6	122735	23634.253716540168	1876
6	122822	23651.348302224389	1877
6	122824	23651.482602987542	1878
6	122831	23652.658767472903	1879
6	122932	23675.45587797183	1880
6	123016	23692.324614871369	1881
6	123027	23693.629907499471	1882
6	123029	23693.670266098493	1883
6	123118	23710.662139329848	1884
6	123221	23731.586995301665	1885
6	123247	23735.895386052873	1886
6	123268	23740.315255890705	1887
6	123296	23744.788089548424	1888
6	123380	23760.807777056315	1889
6	123457	23775.360392205273	1890
6	123516	23788.881859706075	1891
6	123638	23811.193199940416	1892
6	123673	23818.113571568169	1893
6	123728	23827.024226725559	1894
6	123765	23831.948752066867	1895
6	123800	23838.864237877826	1896
6	123817	23841.432183281432	1897
6	123870	23852.804844296741	1898
6	123911	23859.806179190761	1899
6	123916	23861.52597263016	1900
6	123949	23867.726015876238	1901
6	124044	23887.437027370506	1902
6	124083	23896.360598855786	1903
6	124088	23897.726208027326	1904
6	124306	23937.925787672829	1905
6	124375	23951.537162052789	1906
6	124443	23962.948079668348	1907
6	124464	23965.976294344677	1908
6	124502	23974.068279054086	1909
6	124579	23986.466961549525	1910
6	124631	23995.982078875574	1911
6	124693	24007.202608019742	1912
6	124771	24025.208675847201	1913
6	124839	24038.779541884304	1914
6	124841	24039.191294099128	1915
6	124959	24061.301050275502	1916
6	125049	24081.258570175831	1917
6	125071	24085.219363073826	1918
6	125239	24116.778164970323	1919
6	125297	24129.589234136366	1920
6	125317	24133.226945493706	1921
6	125371	24143.974697596208	1922
6	125420	24152.88013804978	1923
6	125536	24174.216666047349	1924
6	125541	24175.67317355949	1925
6	125566	24180.1748566024	1926
6	125606	24189.014829868839	1927
6	125625	24192.250485745533	1928
6	125668	24200.973355148252	1929
6	125690	24204.175421306003	1930
6	125692	24204.825374482083	1931
6	125974	24256.67298959515	1932
6	126051	24272.304654279017	1933
6	126076	24277.372323333345	1934
6	126146	24291.056092497408	1935
6	126185	24296.412216225779	1936
6	126234	24306.286878933334	1937
6	126240	24306.579084445691	1938
6	126356	24329.066038121687	1939
6	126428	24342.947962697481	1940
6	126518	24363.700485429263	1941
6	126783	24414.332840315429	1942
6	126821	24422.304875376724	1943
6	126844	24427.183222910421	1944
6	126912	24439.455641434868	1945
6	126914	24439.525131211163	1946
6	126969	24449.703812112839	1947
6	127014	24458.796120834565	1948
6	127117	24478.695407127191	1949
6	127147	24484.884640932218	1950
6	127210	24499.321215872958	1951
6	127448	24542.135249676552	1952
6	127481	24547.458933174743	1953
6	127486	24548.852372206544	1954
6	127668	24584.95923460098	1955
6	127672	24585.146234376605	1956
6	127826	24612.855127009222	1957
6	127918	24630.894207560248	1958
6	128020	24649.73463635151	1959
6	128050	24655.868068261124	1960
6	128165	24678.896059452912	1961
6	128184	24681.310035360656	1962
6	128296	24703.7304370145	1963
6	128323	24708.913688220329	1964
6	128417	24731.953692327284	1965
6	128434	24735.230933130583	1966
6	128650	24776.002184168502	1967
6	128704	24786.662688548489	1968
6	128724	24789.871945336547	1969
6	128911	24827.050940012334	1970
6	128934	24832.80975389689	1971
6	128971	24839.014323102065	1972
6	129014	24845.492946863441	1973
6	129016	24846.138191583345	1974
6	129021	24847.211588502587	1975
6	129069	24854.745040237099	1976
6	129190	24878.242109068215	1977
6	129252	24888.623909134927	1978
6	129262	24890.456576155593	1979
6	129280	24893.794178135502	1980
6	129284	24894.112497932495	1981
6	129387	24914.497962105131	1982
6	129425	24922.315318576442	1983
6	129571	24951.952201531758	1984
6	129609	24957.751415266519	1985
6	129720	24979.288057015644	1986
6	129835	24999.818770373195	1987
6	129842	25001.021313326374	1988
6	129882	25009.525282608864	1989
6	130349	25101.434389098937	1990
6	130425	25114.969555976224	1991
6	130528	25135.457509295026	1992
6	130590	25147.933550744595	1993
6	130597	25149.189045682183	1994
6	130733	25175.258271178527	1995
6	130756	25179.915950854088	1996
6	130807	25192.773037963278	1997
6	130820	25196.215538656356	1998
6	130867	25203.47679844188	1999
6	130900	25208.423577763877	2000
6	130912	25210.348460634968	2001
6	130958	25218.582864185372	2002
6	131028	25231.594493212591	2003
6	131073	25238.367782805991	2004
6	131085	25240.932218202241	2005
6	131322	25286.596758215097	2006
6	131362	25295.32882219997	2007
6	131455	25314.651253786652	2008
6	131614	25347.680192958153	2009
6	131732	25369.911457762153	2010
6	131744	25371.739853456757	2011
6	131794	25383.471185682307	2012
6	131812	25387.852230327969	2013
6	131907	25404.787435311125	2014
6	132022	25428.107886679268	2015
6	132065	25435.318253181734	2016
6	132097	25442.561405882882	2017
6	132121	25447.012070835907	2018
6	132128	25448.287998139708	2019
6	132151	25452.665835116499	2020
6	132182	25457.651838157527	2021
6	132211	25462.56390003507	2022
6	132225	25464.638561711632	2023
6	132272	25471.003142410966	2024
6	132314	25480.72520419239	2025
6	132338	25486.311237537022	2026
6	132411	25498.824020973517	2027
6	132447	25505.432851540952	2028
6	132714	25558.71128757476	2029
6	132724	25561.026591691552	2030
6	132737	25563.160505281989	2031
6	132747	25564.737201038201	2032
6	132768	25570.213936982373	2033
6	132882	25596.143571357084	2034
6	132905	25600.458848146483	2035
6	132918	25603.021827601917	2036
6	132922	25603.67861473879	2037
6	133021	25620.05279879242	2038
6	133078	25629.169875806241	2039
6	133186	25650.261678072984	2040
6	133285	25668.986592515631	2041
6	133334	25675.815730532652	2042
6	133358	25679.392829444198	2043
6	133388	25684.541675800328	2044
6	133397	25685.962556019312	2045
6	133474	25701.998560102904	2046
6	133726	25748.959749233843	2047
6	133733	25750.480609164556	2048
6	133758	25756.03774088383	2049
6	133801	25764.936455005236	2050
6	133863	25776.771012885999	2051
6	133876	25779.498727796339	2052
6	133947	25790.857603932727	2053
6	133965	25794.16032187367	2054
6	133974	25795.509699550434	2055
6	134021	25803.522210286787	2056
6	134059	25810.42140312946	2057
6	134551	25908.783792307342	2058
6	134566	25909.636348882826	2059
6	134702	25938.463095213067	2060
6	134764	25950.670936189114	2061
6	134770	25950.822118648033	2062
6	134813	25957.543536969622	2063
6	134943	25983.295379897708	2064
6	134954	25984.560717657694	2065
6	135031	26001.234127039864	2066
6	135060	26006.627214635933	2067
6	135103	26015.966672097027	2068
6	135189	26034.275204414932	2069
6	135204	26037.317282042799	2070
6	135220	26041.330374373167	2071
6	135240	26045.138217091174	2072
6	135281	26054.498545990034	2073
6	135385	26074.965442497434	2074
6	135545	26100.881876099948	2075
6	135568	26105.797905989619	2076
6	135669	26126.8428924863	2077
6	135705	26132.615226726134	2078
6	135748	26140.295084731986	2079
6	135815	26151.37595167857	2080
6	136012	26191.607072987447	2081
6	136090	26205.714470690562	2082
6	136095	26206.786396580824	2083
6	136105	26209.078390343912	2084
6	136161	26218.033740264141	2085
6	136241	26231.886155814657	2086
6	136256	26234.715629461777	2087
6	136318	26246.622916893044	2088
6	136324	26246.832687005341	2089
6	136371	26255.374198921086	2090
6	136444	26269.304571655322	2091
6	136526	26285.431965000537	2092
6	136779	26334.295592534612	2093
6	136898	26357.854923696043	2094
6	137080	26393.611370794334	2095
6	137091	26394.570922446915	2096
6	137114	26398.481088196208	2097
6	137173	26411.348862463367	2098
6	137181	26413.172490092215	2099
6	137306	26436.631235603463	2100
6	137327	26439.447888383596	2101
6	137446	26462.283692736081	2102
6	137518	26475.820405805985	2103
6	137530	26477.236565965609	2104
6	137535	26478.246565755088	2105
6	137736	26515.323828956552	2106
6	137931	26553.906597519502	2107
6	137952	26558.69907300128	2108
6	137982	26562.652800039049	2109
6	137986	26563.458652672517	2110
6	138074	26581.741619914931	2111
6	138104	26588.224657390212	2112
6	138189	26603.59413593565	2113
6	138271	26617.383568059707	2114
6	138278	26619.221037188897	2115
6	138472	26659.937140772441	2116
6	138497	26662.384903267509	2117
6	138563	26675.858444527071	2118
6	138676	26698.742556011064	2119
6	138678	26698.795231101495	2120
6	138709	26705.270965356047	2121
6	138715	26706.194678499438	2122
6	138742	26710.444971448255	2123
6	138752	26713.192064881443	2124
6	138823	26726.788886869259	2125
6	138855	26732.659749091562	2126
6	138921	26744.663012297401	2127
6	138974	26755.281066462804	2128
6	139097	26778.851061178136	2129
6	139115	26783.131819847997	2130
6	139176	26795.1350807318	2131
6	139245	26811.13237898337	2132
6	139259	26814.551361300612	2133
6	139533	26864.129398568658	2134
6	139538	26865.151435212545	2135
6	139556	26868.809374746718	2136
6	139598	26877.018484589686	2137
6	139617	26881.106897553701	2138
6	139677	26893.971980874278	2139
6	139684	26894.826297195237	2140
6	139706	26898.719326335571	2141
6	139732	26904.356730794532	2142
6	139886	26932.019391702299	2143
6	139950	26946.647089982019	2144
6	140223	26998.657416781186	2145
6	140269	27008.704399869053	2146
6	140397	27033.318503255094	2147
6	140502	27049.918334762235	2148
6	140608	27071.994182698521	2149
6	140621	27075.037852277886	2150
6	140696	27087.634426754867	2151
6	140811	27114.469110006371	2152
6	140843	27120.98234899296	2153
6	141066	27160.800169964647	2154
6	141095	27165.800206032766	2155
6	141236	27191.952900165196	2156
6	141256	27196.239479934806	2157
6	141285	27201.423700360538	2158
6	141414	27229.505245677914	2159
6	141461	27238.485586919377	2160
6	141494	27244.685555722085	2161
6	141583	27261.741026511322	2162
6	141645	27273.529596872285	2163
6	141778	27298.299376796731	2164
6	142046	27349.690130356848	2165
6	142159	27373.911411631274	2166
6	142171	27375.59548746436	2167
6	142197	27380.143567865197	2168
6	142199	27380.221915720246	2169
6	142204	27381.023427415069	2170
6	142449	27430.390716715807	2171
6	142464	27433.381153645387	2172
6	142477	27436.678239860963	2173
6	142499	27440.424244252298	2174
6	142522	27444.370295972058	2175
6	142586	27457.253666026277	2176
6	142619	27463.409350779334	2177
6	142636	27467.714779273789	2178
6	142768	27491.483341775349	2179
6	142773	27492.293837795912	2180
6	142775	27492.485655873433	2181
6	142838	27506.172511874788	2182
6	142923	27522.578443047116	2183
6	143243	27584.76579474481	2184
6	143271	27588.356038036589	2185
6	143273	27588.639978457051	2186
6	143322	27598.611376353893	2187
6	143489	27632.631812174628	2188
6	143491	27633.154856590263	2189
6	143579	27651.724413602026	2190
6	143693	27673.845282603773	2191
6	143747	27683.595863882592	2192
6	144287	27787.981012856915	2193
6	144401	27807.987787729429	2194
6	144546	27837.979384291811	2195
6	144569	27843.530194148408	2196
6	144637	27856.568477904493	2197
6	144653	27858.711918962801	2198
6	144678	27864.299468283573	2199
6	144685	27865.49215253615	2200
6	144709	27870.969898181048	2201
6	144714	27871.713547836103	2202
6	144854	27899.01841453491	2203
6	144945	27916.591958485668	2204
6	144966	27919.521142144602	2205
6	145179	27962.573577250574	2206
6	145262	27978.870190209627	2207
6	145271	27979.317402527501	2208
6	145318	27988.557264366455	2209
6	145398	28003.898821081292	2210
6	145419	28007.286241483764	2211
6	145501	28023.122976262908	2212
6	145521	28026.640386784997	2213
6	145575	28036.551337378234	2214
6	145632	28049.225511777209	2215
6	145644	28051.838195311862	2216
6	145671	28057.684054553743	2217
6	145827	28089.314162049945	2218
6	145841	28091.712009703501	2219
6	146061	28137.80266043261	2220
6	146219	28163.421680156195	2221
6	146418	28202.885957238007	2222
6	146469	28214.085548767546	2223
6	146560	28230.61664172139	2224
6	146634	28243.812381194747	2225
6	146646	28245.771444525149	2226
6	146666	28249.84187453707	2227
6	146741	28264.878672238205	2228
6	146745	28265.212449935966	2229
6	146765	28268.975361734529	2230
6	146803	28277.228955210266	2231
6	146847	28286.53264795576	2232
6	146900	28297.478336672046	2233
6	146915	28300.152033593368	2234
6	146938	28304.017770394248	2235
6	147123	28338.621912549588	2236
6	147170	28348.225598640956	2237
6	147273	28369.98430401598	2238
6	147419	28397.693997283011	2239
6	147431	28399.607310563231	2240
6	147444	28400.697924316281	2241
6	147485	28407.884828617989	2242
6	147494	28409.435466100963	2243
6	147535	28415.762426559779	2244
6	147552	28418.969801586474	2245
6	147588	28426.284445406721	2246
6	147598	28428.316921214907	2247
6	147626	28433.165269829827	2248
6	147731	28452.980030483637	2249
6	147893	28486.44356381915	2250
6	147912	28490.267959756598	2251
6	148061	28518.661085774198	2252
6	148164	28537.264066456839	2253
6	148486	28597.208400101061	2254
6	148520	28605.725172485566	2255
6	148530	28607.285639441633	2256
6	148569	28614.704239506997	2257
6	148576	28615.78375980457	2258
6	148708	28643.210579980721	2259
6	148740	28649.073313969913	2260
6	148816	28664.011912133065	2261
6	148821	28665.025128122387	2262
6	148846	28672.387629329251	2263
6	148933	28687.436365747898	2264
6	148974	28695.391189104074	2265
6	149094	28715.879343174648	2266
6	149322	28762.819170011089	2267
6	149345	28768.107705836801	2268
6	149353	28769.681365980216	2269
6	149433	28784.655305324943	2270
6	149459	28789.054089406324	2271
6	149466	28789.415843912072	2272
6	149523	28800.300780709517	2273
6	149710	28839.495876591842	2274
6	149738	28843.690769454381	2275
6	149745	28844.520168361262	2276
6	149784	28851.404686398206	2277
6	149840	28866.237322567496	2278
6	149859	28869.618486344394	2279
6	149864	28870.350651102557	2280
6	149899	28877.408496863483	2281
6	149959	28886.121901523656	2282
6	150003	28895.470983911306	2283
6	150071	28909.587324419851	2284
6	150076	28910.117808892915	2285
6	150180	28929.706357010904	2286
6	150237	28939.736059283677	2287
6	150257	28944.003573234952	2288
6	150273	28947.096351782225	2289
6	150355	28963.841165517731	2290
6	150381	28967.032059771459	2291
6	150385	28967.687757977463	2292
6	150421	28973.292353717667	2293
6	150452	28978.366067229964	2294
6	150634	29017.185513293834	2295
6	150662	29021.413582990104	2296
6	150674	29023.011473892065	2297
6	150695	29028.224919484554	2298
6	150790	29044.109961405604	2299
6	150810	29048.413507401757	2300
6	150889	29063.294225766341	2301
6	150928	29069.846461796245	2302
6	151002	29084.10923204723	2303
6	151017	29087.265415432973	2304
6	151070	29098.781073779561	2305
6	151161	29117.41630723983	2306
6	151192	29122.965431648686	2307
6	151275	29138.556270807184	2308
6	151339	29150.781521200257	2309
6	151474	29177.863624990051	2310
6	151540	29192.773796757103	2311
6	151651	29212.75826388505	2312
6	151711	29225.044314989949	2313
6	151745	29231.121184156117	2314
6	151846	29249.091940587844	2315
6	151962	29271.42589569135	2316
6	152066	29290.481363811658	2317
6	152079	29293.701069133865	2318
6	152124	29302.622707589219	2319
6	152540	29381.559653412072	2320
6	152554	29385.383174439104	2321
6	152590	29391.159527292402	2322
6	152642	29401.006312798029	2323
6	152679	29408.122757339853	2324
6	152779	29428.396426560425	2325
6	152784	29429.643378280514	2326
6	152799	29432.822435669325	2327
6	152865	29444.05182095627	2328
6	152874	29445.542933987555	2329
6	152919	29452.577226802716	2330
6	152971	29462.669808278456	2331
6	153003	29467.840773059726	2332
6	153067	29480.448060116997	2333
6	153104	29486.6486392726	2334
6	153430	29551.759868650286	2335
6	153544	29574.889506292949	2336
6	153593	29585.66628816187	2337
6	153641	29595.625876742334	2338
6	153761	29619.157097640801	2339
6	153786	29624.747931777864	2340
6	153803	29628.080273429996	2341
6	153830	29632.588895621389	2342
6	153839	29633.813531734743	2343
6	153876	29640.592831752918	2344
6	153889	29643.343045506172	2345
6	153901	29645.401105934456	2346
6	153957	29655.889220908028	2347
6	153980	29661.033953013323	2348
6	154003	29664.27514709423	2349
6	154188	29701.634177313091	2350
6	154235	29710.52915969414	2351
6	154247	29713.290779432748	2352
6	154386	29742.816471950599	2353
6	154443	29751.513759420503	2354
6	154455	29753.146069965884	2355
6	154504	29762.858398091807	2356
6	154536	29769.337723478795	2357
6	154657	29793.199552717091	2358
6	154699	29801.552584436606	2359
6	154841	29830.289118622828	2360
6	154861	29833.528568688747	2361
6	154871	29835.334645971958	2362
6	155080	29881.59687702468	2363
6	155094	29885.161772734656	2364
6	155120	29891.852227448637	2365
6	155163	29899.548078837813	2366
6	155280	29919.535689012082	2367
6	155284	29919.874919138842	2368
6	155439	29948.70159657203	2369
6	155591	29976.039258312147	2370
6	155616	29981.784938962511	2371
6	155636	29985.839066546604	2372
6	155701	29998.575773292676	2373

