version 2
run Second_exit_2-11-20191114-11:42:31-8887
attr configname Second_exit_2
attr datetime 20191114-11:42:31
attr experiment Second_exit_2
attr inifile omnetpp.ini
attr iterationvars ""
attr iterationvarsf ""
attr measurement ""
attr network ResponseTimeNetwork
attr processid 8887
attr repetition 11
attr replication #11
attr resultdir results
attr runnumber 11
attr seedset 11
param **.Source.interArrivalTime exponential(5s)
param **.jobPriority bernoulli(0.6)
param **.PS.serviceTimeU1 "uniform(0.8s, 1.2s)"
param **.PS.serviceTimeU2 "uniform(1.8s, 2.2s)"
param **.SS1.serviceTime exponential(1s)
param **.SS2.serviceTime exponential(1.2s)
param **.PS.exitProbability bernoulli(0.2)

vector 0 ResponseTimeNetwork.sink lifeTimeU1:vector ETV
attr interpolationmode none
attr title "lifetime of arrived jobs U1, vector"
attr unit s
vector 1 ResponseTimeNetwork.sink totalServiceTimeU1:vector ETV
attr interpolationmode none
attr title "the total time spent  by arrived jobs U1, vector"
attr unit s
vector 2 ResponseTimeNetwork.sink lifeTime:vector ETV
attr interpolationmode none
attr title "lifetime of arrived jobs, vector"
attr unit s
vector 3 ResponseTimeNetwork.sink totalServiceTime:vector ETV
attr interpolationmode none
attr title "the total time spent  by arrived jobs, vector"
attr unit s
vector 4 ResponseTimeNetwork.sink lifeTimeU2:vector ETV
attr interpolationmode none
attr title "lifetime of arrived jobs U2, vector"
attr unit s
vector 5 ResponseTimeNetwork.sink totalServiceTimeU2:vector ETV
attr interpolationmode none
attr title "the total time spent  by arrived jobs U2, vector"
attr unit s
vector 6 ResponseTimeNetwork.QueueU1 queueLength:vector ETV
attr interpolationmode sample-hold
attr title "queue length, vector"
vector 7 ResponseTimeNetwork.QueueU2 queueLength:vector ETV
attr interpolationmode sample-hold
attr title "queue length, vector"
vector 8 ResponseTimeNetwork.SS1 queueLength:vector ETV
attr interpolationmode sample-hold
attr title "queue length, vector"
vector 9 ResponseTimeNetwork.SS2 queueLength:vector ETV
attr interpolationmode sample-hold
attr title "queue length, vector"
0	12740	10000.533925485224	2.172855488443
0	12745	10002.400016773624	0.962273033056
0	12750	10007.695421703568	0.821999695804
0	12767	10019.154455923547	1.272018858808
0	12770	10020.340952349898	1.383069030744
0	12775	10023.124116895911	1.169420154858
0	12785	10034.057275068654	1.163759410288
0	12795	10045.468860457109	1.01013494879
0	12800	10064.258462093428	0.901462964527
0	12805	10076.310844466689	1.153940758388
0	12815	10082.192565485076	0.868816076126
0	12827	10087.711071317385	2.352481396119
0	12842	10090.528280825283	1.008290342264
0	12847	10091.512180349066	3.9489736558
0	12855	10093.869136061734	3.07675703787
0	12860	10095.289868272618	0.968763674237
0	12865	10119.495980328647	1.01608310584
0	12890	10150.810484310055	5.363903398532
0	12895	10153.037199482063	1.135299582221
0	12900	10159.142007433589	1.132447174378
0	12910	10162.988022073103	0.981152295042
0	12915	10164.458030012982	0.923533605877
0	12925	10168.857169172157	1.773391543296
0	12930	10171.670980339212	0.954444010928
0	12952	10184.185598188095	0.827200064156
0	12955	10185.039523300544	1.411624036512
0	12980	10219.084733142194	6.179972398173
0	12995	10243.364656361903	3.986996766695
0	13005	10248.043879889875	0.976346599683
0	13010	10252.074286705688	1.081159416586
0	13015	10254.221360882747	0.897231694963
0	13027	10262.390620943113	1.055477784108
0	13030	10263.371211942426	5.045096937174
0	13052	10288.694820389141	0.849216864258
0	13065	10297.916637380266	0.829018916003
0	13072	10302.823272419625	1.190704805311
0	13075	10304.018106190019	1.222664788603
0	13082	10316.742238979325	1.086630376801
0	13085	10317.632814118736	1.019311781102
0	13090	10318.72655935016	0.802727585472
0	13095	10320.425635051246	0.99879133217
0	13100	10322.022608386098	0.893263399694
0	13105	10323.101757872416	0.801108777057
0	13110	10332.469006188375	0.962273499556
0	13132	10345.255811518627	1.361606874863
0	13145	10350.857911884213	1.07110630814
0	13157	10365.878167202888	1.06017718548
0	13160	10366.714643264009	1.793620456233
0	13165	10368.735135952129	0.944467480667
0	13180	10372.140507605189	2.97022804562
0	13190	10380.159754542405	1.020955636911
0	13230	10412.8967872595	3.342100145985
0	13237	10414.936794408046	0.966556970216
0	13240	10415.834100754846	1.710503852822
0	13245	10422.864155237568	1.169586024899
0	13265	10455.214802012456	1.178473099414
0	13275	10465.506744104994	0.922061287891
0	13285	10468.19476761296	6.190781517404
0	13290	10471.068894238055	1.139971374068
0	13344	10524.815517424976	1.950457350588
0	13349	10525.680324583498	2.886867866478
0	13352	10526.648934392349	2.16088896424
0	13360	10528.790632681246	3.945532798183
0	13365	10536.294139761317	1.121256457921
0	13370	10539.897516750637	0.997735954914
0	13385	10584.790383515307	1.111688398849
0	13390	10594.595583444945	1.083825911209
0	13410	10642.992857941865	1.147063125949
0	13425	10663.372507838506	0.936589679308
0	13435	10699.907533683608	0.855170691572
0	13440	10704.315334383063	1.047836591396
0	13470	10719.094639724594	7.350667932696
0	13475	10726.698937158938	0.971281726286
0	13480	10730.650505292957	0.897685439605
0	13495	10756.551204413358	0.887050823029
0	13500	10759.929893579123	1.007293824572
0	13507	10766.937605610907	0.960326591134
0	13515	10769.415331193155	3.064677722317
0	13550	10791.574266948986	1.19783636285
0	13575	10804.038444455745	0.806430300511
0	13596	10810.971042611008	1.637823510357
0	13599	10811.775832189736	1.868767518767
0	13602	10812.683547853329	2.690992950021
0	13620	10820.425296697898	1.192807585001
0	13625	10832.778559783478	1.070103332028
0	13640	10841.939175406171	1.055623437371
0	13650	10847.119258410319	2.638011579031
0	13665	10860.245829844226	0.948768612649
0	13682	10874.855211651291	0.984914040659
0	13695	10878.032358384015	3.591272915586
0	13700	10894.875782841208	1.197922690958
0	13710	10905.341471716107	0.811822229996
0	13715	10911.213558783018	1.168722168542
0	13720	10913.467295746267	1.10123167932
0	13730	10926.033891675874	0.843105176464
0	13740	10938.623423631634	0.929438895267
0	13745	10943.905019663254	0.941845063586
0	13750	10952.473504158043	0.919498163182
0	13777	10960.836924123284	1.263073635142
0	13795	10965.740559928714	1.163128138892
0	13807	10974.238589266906	1.068284837529
0	13817	10976.418554678312	1.327622451187
0	13820	10977.298314408152	3.573701372694
0	13825	10987.13108914251	0.999206927698
0	13830	10990.106075481238	1.143729749322
0	13840	11000.599879993793	0.919946022145
0	13845	11004.298839090623	1.021021223161
0	13850	11006.58281430866	1.150866798684
0	13860	11013.484621023685	1.064838305023
0	13880	11040.277332787382	0.983218196873
0	13890	11046.176051975494	0.982765645906
0	13895	11049.765345675573	0.841014335118
0	13910	11059.846735144007	1.076427191775
0	13915	11064.743934565677	0.924303998332
0	13932	11102.736685928283	0.981672051921
0	13955	11114.864683566347	0.877271107025
0	13965	11124.920854904925	3.600973497599
0	13970	11130.359625522791	1.182054872531
0	13975	11133.999680146858	1.103868610039
0	13980	11149.974310508574	0.831194224954
0	13990	11153.163513846221	2.397150709141
0	13995	11165.099947143256	1.079700991604
0	14020	11182.734513155044	0.963198661804
0	14030	11187.933827315013	2.064086633907
0	14035	11188.947027709464	0.808622407913
0	14040	11198.984978907277	1.177299010195
0	14065	11224.595286748156	3.417998728918
0	14070	11227.562214609253	1.165451891255
0	14087	11234.4727364074	1.06371442657
0	14092	11235.384988135056	1.480732280861
0	14095	11236.349933459008	5.580026259306
0	14100	11239.540164993302	1.124087216705
0	14105	11246.293621035229	0.8772957162
0	14125	11266.088543872338	1.120616379287
0	14164	11294.955908745221	0.899570425693
0	14167	11296.006510893787	1.86581416275
0	14185	11306.273742403095	1.169577618316
0	14192	11311.230298868052	1.021218258142
0	14195	11312.225475602082	1.524601087001
0	14200	11313.485037711301	0.872562760767
0	14210	11318.735197605515	0.813737513311
0	14215	11320.782858362793	1.135149199981
0	14220	11323.557207557273	0.835732661001
0	14225	11326.655888916838	1.146301471721
0	14240	11341.28842390474	3.993229480962
0	14245	11342.628581908945	1.180998958554
0	14252	11349.195500789549	0.965771235898
0	14262	11351.453739750904	0.954850258306
0	14265	11352.42987388089	1.689498889516
0	14270	11359.282247602581	0.951058967598
0	14275	11360.740112331847	1.152981723938
0	14280	11368.345303205847	1.163274883665
0	14287	11373.120761009092	1.071558784228
0	14300	11378.644132284989	5.948500211941
0	14315	11385.832709681055	6.782607949522
0	14325	11410.776563423038	2.410688686349
0	14330	11425.926491416001	0.986293056142
0	14350	11433.143427256163	2.914282340862
0	14355	11438.6320960195	0.975378366746
0	14360	11441.920122643494	1.147745278105
0	14370	11447.878917445083	2.676859935139
0	14385	11454.049852820573	3.191460459209
0	14405	11477.437825603659	2.366589058629
0	14412	11487.137335761544	1.027995895781
0	14417	11488.315977990442	1.671091475231
0	14425	11492.497503632384	1.039746149816
0	14430	11494.822272760719	1.147173515521
0	14440	11498.000218950764	2.569939669936
0	14445	11506.074912359766	1.048157086503
0	14450	11514.392769475532	0.868513487
0	14455	11518.283581656364	0.9711016885
0	14475	11536.540118720114	0.865789200738
0	14480	11540.114387374042	1.182931880932
0	14487	11549.235713606792	0.991545864753
0	14512	11564.551730755667	0.996874555852
0	14517	11565.449161027695	1.34070934643
0	14520	11566.514699173856	1.813541700225
0	14532	11578.988709304297	1.006462773122
0	14535	11579.844722428454	1.470834522848
0	14542	11584.061262571232	0.992167682108
0	14545	11585.12371802123	1.851456251536
0	14555	11597.400401044682	1.089509953838
0	14562	11601.714600016206	0.86812879052
0	14582	11622.674134021721	1.050849789381
0	14592	11624.910120251777	1.183523310243
0	14595	11625.853122229504	3.332388298525
0	14600	11629.231324061683	1.131071195472
0	14605	11630.500963624473	1.154920807015
0	14615	11635.350225327761	2.347699331139
0	14620	11638.167075606939	1.082761590183
0	14637	11669.221787778846	0.888164964877
0	14640	11670.140144208631	1.775585335114
0	14654	11674.822517293225	1.016444477439
0	14659	11675.677136618922	1.439183976194
0	14675	11686.553575752596	1.111495085992
0	14700	11710.038818562613	2.500368301305
0	14705	11714.779202997964	0.918730814848
0	14710	11717.015244758951	0.983396392036
0	14720	11727.304684783212	2.125043703788
0	14737	11740.571958878742	1.171479638573
0	14742	11741.630869822682	2.022394153018
0	14750	11746.982118790475	1.101463098265
0	14762	11754.540836446017	1.15292660566
0	14765	11755.455434233073	1.582764620464
0	14784	11761.384126343375	0.800167965423
0	14789	11762.371602660308	1.470509240777
0	14792	11763.444936988207	2.26424682433
0	14800	11770.224714961675	0.870719810482
0	14810	11776.074895195221	0.84366813628
0	14815	11779.249323366345	0.8292438793
0	14832	11796.517100950112	0.890628878772
0	14835	11797.600240025451	3.174541411995
0	14840	11808.767451257323	1.005467824079
0	14845	11814.941545333625	0.897437662072
0	14852	11815.798115550758	0.824178657122
0	14875	11838.880190912786	0.865136604756
0	14890	11851.646970841159	1.074261687882
0	14900	11862.530008464936	2.530397029039
0	14905	11863.928622734944	0.971260048635
0	14915	11870.443474869016	1.184679501317
0	14922	11872.876106715788	1.182234882563
0	14945	11878.557935496702	5.497399847093
0	14955	11883.173238521843	1.2104511189
0	14980	11908.702381778642	1.019401315693
0	14989	11918.06956681095	1.140833512694
0	14992	11919.128963538892	1.249687657434
0	15004	11921.376188947706	1.356745938683
0	15007	11922.350617161932	1.709990117348
0	15017	11924.395288995912	1.572017331452
0	15022	11925.246592481693	3.988382674454
0	15035	11932.364208896891	0.87080724705
0	15045	11940.909733586389	1.126797397621
0	15100	11998.644606222459	1.021065976284
0	15110	12005.880945250278	2.341362651779
0	15115	12012.425282794495	0.829677342437
0	15135	12027.260154004059	3.074460902771
0	15145	12037.688931029616	1.010477303341
0	15150	12054.581250486583	0.870699728746
0	15170	12078.231320795709	0.896812617034
0	15185	12083.373239085998	3.929200207904
0	15190	12093.736758981801	1.055738051888
0	15195	12094.774977823908	0.992536875512
0	15202	12096.355328440721	1.157998343464
0	15205	12097.271518375872	0.975097270751
0	15234	12104.962915169189	4.52810476011
0	15237	12105.954915730955	3.161520621713
0	15262	12118.329108214027	2.439289427744
0	15265	12119.34925341571	1.85151088135
0	15280	12124.203952287857	4.392237531039
0	15285	12130.642518359482	1.181004618574
0	15290	12138.668714801418	0.958387461118
0	15295	12141.593655405945	1.105368712172
0	15305	12146.294614657421	3.427840244071
0	15327	12155.53743989032	0.909794544522
0	15330	12156.548364262024	5.179440990083
0	15345	12174.659623605899	2.926855213999
0	15350	12186.10227226412	0.868846858293
0	15355	12189.974926566109	0.883035468776
0	15370	12195.357591955235	1.097915173508
0	15380	12197.618112525806	5.36367120517
0	15385	12201.262853455034	1.144706221763
0	15392	12203.635551973841	0.899190739263
0	15395	12204.798113122898	1.566245447702
0	15422	12228.202133260273	0.973459292017
0	15447	12240.65740880451	1.540464613775
0	15455	12242.809885050532	5.202746075
0	15485	12265.420435559896	0.855833256617
0	15505	12285.750522427258	0.88634027373
0	15510	12290.290501520135	1.193112588581
0	15540	12309.346815686426	0.848594637029
0	15550	12318.831270607415	1.037838007417
0	15562	12327.509632568293	1.442314065144
0	15575	12330.674483941651	0.824579244945
0	15585	12343.912518262778	0.887766859028
0	15595	12360.07484642985	0.987391925044
0	15600	12364.7611120819	1.033756679948
0	15610	12374.785785324935	1.57221063828
0	15620	12385.544528327819	1.154019316845
0	15632	12394.080600545484	1.118709606677
0	15640	12397.576620107777	1.145985384192
0	15645	12401.084210905129	0.868840808328
0	15650	12403.985075312667	1.10802551331
0	15655	12413.029815597833	1.049347734451
0	15660	12416.591996127109	1.082859123405
0	15672	12429.118951858462	1.165830980614
0	15685	12432.639701466903	3.509984022398
0	15690	12441.67369233418	0.842229945306
0	15695	12447.375815609536	0.948015042301
0	15700	12470.187731409278	0.86679518763
0	15707	12475.043748302925	0.865964704752
0	15712	12475.929247632231	1.594176302572
0	15715	12476.959174603298	1.259962327223
0	15725	12494.140454239042	0.928265255131
0	15732	12505.070757058529	1.133953175414
0	15740	12508.487713407509	1.036098652985
0	15755	12516.066030423486	0.844223227352
0	15777	12531.887130507149	1.198103772209
0	15780	12532.695496065516	5.65977538055
0	15800	12540.312775476269	5.379457083644
0	15810	12544.488882031586	2.818678367835
0	15825	12553.931686460186	4.541365780185
0	15835	12557.380710237947	6.381733915779
0	15850	12560.527341284627	3.046775628533
0	15857	12561.846686382569	1.081148862932
0	15860	12562.78095738187	1.591349957217
0	15872	12577.005663340702	0.903837861866
0	15877	12577.823184362776	1.062329213471
0	15895	12582.598505113699	1.297514260069
0	15900	12592.7086262927	0.948362504505
0	15905	12596.900876467194	0.907109894976
0	15917	12607.565492673437	0.979986776505
0	15925	12609.441710006721	2.808318356584
0	15930	12624.755104879949	1.088238673005
0	15941	12635.715161691135	1.192214679811
0	15944	12636.656261865789	1.771562268157
0	15955	12646.288521481911	1.19875986902
0	15960	12667.31211081995	1.079499819037
0	15965	12669.785085285864	1.167217034567
0	15975	12674.921441900395	1.099856187869
0	16004	12692.079412822006	1.161463706288
0	16007	12693.23786721793	1.459477480456
0	16015	12696.862376143632	0.804264053795
0	16030	12718.493758081102	1.038294195104
0	16037	12724.119452966564	1.131090404466
0	16057	12729.504564465974	1.59544011806
0	16065	12731.618596618642	1.367611940623
0	16077	12757.467491202786	1.012341495883
0	16085	12759.555675226926	2.471394326343
0	16097	12767.954434272927	1.199734011106
0	16120	12783.790232212419	0.885474650282
0	16125	12787.502257767836	1.048977899551
0	16130	12790.329677621264	0.83609308647
0	16135	12792.254474135718	1.03725162372
0	16147	12794.780345373075	2.306722582987
0	16150	12795.688395465198	1.236460874528
0	16155	12798.10301972292	1.084053071216
0	16160	12800.256646788095	1.087499210332
0	16165	12807.908365232366	1.005782943685
0	16179	12813.6554689146	0.961566896364
0	16192	12816.367685015628	1.783678306642
0	16202	12818.10159426363	1.194572780066
0	16205	12819.099589173811	1.213479004006
0	16212	12821.298482046219	8.479497723803
0	16215	12822.46440662857	1.873664514648
0	16220	12833.665465246919	1.091539281793
0	16232	12843.781681080793	0.89894359326
0	16239	12844.906946842258	1.212432249031
0	16242	12845.930075996627	1.351865808621
0	16247	12846.897311854993	2.048968289023
0	16264	12850.088571213071	3.974568706445
0	16280	12864.117117122852	0.994039283507
0	16285	12870.48454059695	1.145840125158
0	16290	12876.353173495391	1.035664536152
0	16300	12880.549716852639	1.205831666456
0	16305	12882.397384155786	0.953558632638
0	16315	12900.600899050799	3.123425365326
0	16330	12908.94473719042	0.816353168432
0	16342	12929.757753079045	0.960001191031
0	16365	12939.961477131918	1.008581635822
0	16370	12948.208378478991	0.861323829833
0	16380	12951.868507227329	2.197200142177
0	16385	12970.154361651798	1.020471708663
0	16390	12971.568524075388	0.874933849368
0	16395	12980.012983355124	0.921043549664
0	16400	12982.507741023611	0.814453263208
0	16405	12992.155261731139	0.960900243092
0	16415	13011.309722475538	2.947686347427
0	16420	13024.110762104004	0.965093737748
0	16442	13037.865533122809	1.672472118489
0	16460	13048.159661036633	1.067313565221
0	16467	13059.181413812647	0.826115209237
0	16470	13060.367538142009	1.830022993476
0	16480	13075.510854049332	2.262073539222
0	16490	13085.208667760563	1.016914612241
0	16500	13104.925757095557	1.973781752428
0	16515	13123.223813405304	0.941322507057
0	16520	13129.510654880218	1.007212512288
0	16545	13149.711471364445	1.023946679663
0	16550	13161.765431815472	0.983225349709
0	16562	13164.630776095977	2.585593514363
0	16575	13172.816675252609	0.884533968288
0	16585	13180.605720002918	0.827846791968
0	16612	13197.812498607486	1.102729768492
0	16615	13198.828533545415	7.696537527914
0	16630	13204.70991728098	2.921279586014
0	16650	13221.07369774686	1.380764257216
0	16655	13222.79907123407	4.014178848622
0	16665	13234.695009068364	0.879319906794
0	16670	13250.322990911199	1.159681946132
0	16680	13255.585535737291	1.075008036848
0	16690	13257.356910337624	1.648478430728
0	16695	13259.659467725321	0.803731925879
0	16700	13264.726667600836	1.089960479457
0	16712	13271.989147714634	0.842911033332
0	16722	13274.257419014272	2.01737222167
0	16732	13277.024804634334	5.336761129763
0	16755	13285.238751207545	2.663550988665
0	16760	13291.579631093303	0.991914219782
0	16770	13304.059954079613	1.196997354273
0	16784	13311.833450193307	1.04619085351
0	16787	13312.956785773462	1.169128656581
0	16812	13320.084477703796	1.130256801751
0	16815	13320.975463382957	3.711163014641
0	16832	13346.00471690904	1.153413697984
0	16842	13348.259927781035	2.009960714204
0	16845	13349.331995127459	4.001200230342
0	16850	13351.645284915532	1.152178332862
0	16860	13357.757388745328	2.693644636279
0	16865	13364.120066547095	0.858679908793
0	16877	13371.335425839153	1.738165578714
0	16880	13372.433736457162	3.076950318738
0	16890	13387.048128514947	1.986032988528
0	16905	13397.792682593607	0.952025461942
0	16943	13409.247802179918	8.813516172752
0	16946	13410.050294491515	1.651840636402
0	16949	13411.218517863803	2.574716247623
0	16985	13432.95807104498	1.18174540801
0	16995	13438.196831615725	4.260624438597
0	17002	13439.889246471704	1.170766220801
0	17010	13458.848095905273	0.990477533732
0	17032	13477.257574127739	1.063014267106
0	17065	13498.150392308082	5.164129988211
0	17070	13512.772901348399	0.966136572976
0	17085	13522.304906205724	3.930104193361
0	17095	13526.149920939994	1.093748529162
0	17100	13535.155443869193	0.915584107302
0	17110	13544.181592756251	0.824680944998
0	17115	13554.551160359924	1.163280691113
0	17122	13557.711485344361	1.090508259367
0	17132	13559.590386387243	1.871238929724
0	17145	13565.111843818347	1.016615375504
0	17150	13571.393056650078	0.936456833594
0	17175	13598.876076083735	0.977766335104
0	17180	13604.101087982719	1.153660185449
0	17202	13625.180678626199	0.960062160628
0	17215	13641.490064554934	0.903365367744
0	17225	13644.532067550289	3.034990989832
0	17240	13653.568300995556	4.201628935428
0	17245	13656.093020394255	1.082621647511
0	17250	13670.615539846707	0.88353965655
0	17260	13687.496696595469	0.959021065198
0	17275	13699.968293446137	0.854867010657
0	17290	13708.848018796091	1.118234089762
0	17295	13711.888435405547	1.031136373524
0	17305	13713.833377328544	0.823302514944
0	17310	13716.180857397214	1.136627460457
0	17317	13719.34530138705	1.026422809437
0	17320	13720.171202839409	1.542234203953
0	17345	13750.078561283011	3.71408544971
0	17350	13751.518132927489	1.059753237665
0	17355	13752.657463559174	1.05951886205
0	17365	13766.058378289808	0.885151934531
0	17370	13768.788244428263	0.858718372602
0	17375	13770.002274314734	1.01288836645
0	17380	13771.537371536926	1.173695303593
0	17392	13787.833108452355	0.919096306618
0	17405	13797.464213426268	1.146981924307
0	17410	13802.319776645168	0.805472792778
0	17425	13815.820302106905	2.549985134104
0	17430	13820.209864055799	0.842532764468
0	17442	13826.071432467298	0.801498977281
0	17450	13830.42506202757	1.158469312638
0	17475	13840.34215690102	1.538339037731
0	17490	13851.105298042267	0.862208954524
0	17511	13855.070872639111	1.537379602177
0	17514	13855.940894096802	3.705872800388
0	17517	13857.05796116301	4.325575741466
0	17527	13872.724726640855	1.026378056221
0	17530	13873.747809106999	1.918307756557
0	17535	13875.709868473684	1.198504457437
0	17540	13895.394109737131	0.861816723179
0	17550	13901.1756806162	1.536319953785
0	17590	13948.573644968036	0.982755263243
0	17602	13950.466884158569	0.889998822566
0	17610	13957.833308186382	1.073350140546
0	17615	13967.374617529848	1.093248045538
0	17620	13980.93037238115	0.854667528905
0	17627	13983.97990491447	1.09248113716
0	17630	13984.886713912999	1.547887118367
0	17635	13986.047269514783	0.916109555494
0	17640	13992.387366019128	0.925514565501
0	17650	13999.978230487643	3.779277721626
0	17655	14001.812085725568	0.90315062739
0	17660	14021.010098361049	1.065820845217
0	17667	14023.020351434132	1.172015053406
0	17680	14026.866185861122	1.042596007511
0	17685	14028.008049290432	5.384255152349
0	17692	14031.189576688827	1.164522586297
0	17697	14032.063237402261	0.873834094645
0	17705	14041.086113112134	0.95105239423
0	17715	14052.760633430227	2.460970695854
0	17720	14055.155950553803	0.863469521888
0	17725	14063.016209325994	1.162603452429
0	17745	14076.36815630562	0.815413350984
0	17759	14083.542769115967	0.902571229264
0	17770	14086.659065709068	3.226095867192
0	17780	14093.656983556827	1.666077749979
0	17785	14098.877991624333	0.886020441167
0	17792	14106.148741597446	0.819352635927
0	17810	14114.881067186966	3.718349120044
0	17827	14122.828606979559	1.81019406054
0	17830	14123.683816265604	2.360297354015
0	17835	14127.16021039912	1.118415020034
0	17840	14129.093095263734	0.819869824033
0	17845	14133.924965183407	0.974904588796
0	17870	14149.400254474262	1.90690167524
0	17895	14168.542439410093	8.154081567283
0	17905	14174.762442003524	0.915285772085
0	17915	14181.142875929453	1.952115982331
0	17925	14197.070650313817	1.161078453995
0	17930	14200.706215780101	1.134175559506
0	17947	14213.6036483451	0.945304416493
0	17950	14214.638332117928	1.108615129823
0	17969	14245.644599668023	0.930533579737
0	17972	14246.658266253111	1.911846820024
0	17975	14247.774046025978	2.734693345569
0	17985	14251.652371107098	2.924695503564
0	17990	14253.146025981019	0.983488481119
0	18007	14258.909673879066	3.054031927621
0	18012	14259.98342253012	1.916890624424
0	18015	14260.784051018445	0.995655268189
0	18022	14266.624734032491	0.839238762297
0	18025	14267.663322632165	1.143701691868
0	18037	14282.084040892475	1.826576377983
0	18047	14286.990625283242	1.131529554725
0	18072	14299.074036926788	3.223001212246
0	18080	14301.346702546233	2.322404092168
0	18090	14325.914874951834	2.243540208133
0	18100	14333.127826435769	3.897588680904
0	18110	14337.392139056512	1.257385011288
0	18122	14342.296709449764	1.906497806579
0	18125	14343.328866172664	1.633135762995
0	18130	14347.244519816177	1.12613893915
0	18152	14365.42245612093	0.966572126932
0	18170	14369.606655430894	1.180690743495
0	18182	14378.903183424352	0.923341085762
0	18187	14379.78889299768	0.982436177938
0	18195	14395.594885495996	0.999239197839
0	18215	14409.036361598765	1.096134869191
0	18220	14413.286062272847	1.072276253998
0	18227	14414.573707427413	1.081754434854
0	18230	14415.67951874086	1.564588593765
0	18245	14435.833365353406	1.188222036125
0	18267	14456.552742328375	1.640259671932
0	18274	14457.402113702867	2.153717494958
0	18277	14458.377669036176	1.656956440691
0	18282	14459.207730084073	2.255784387999
0	18292	14462.757007991566	1.089396806713
0	18295	14463.871477349146	1.147711566898
0	18307	14467.682365471053	1.034418071806
0	18315	14470.797107893837	1.039440886304
0	18320	14472.538290751773	7.698558297911
0	18330	14481.497073226938	1.086495621782
0	18335	14517.609366336258	0.863546875771
0	18345	14529.633721607345	3.458911180495
0	18365	14536.900417744724	7.233665492034
0	18379	14544.456358864007	1.798777539855
0	18382	14545.468972903991	1.85163404626
0	18400	14552.163414856844	9.698898511212
0	18415	14559.28290839813	1.027156768367
0	18425	14562.02017772665	2.35365224661
0	18430	14566.48044442579	0.852191752195
0	18437	14573.880758267082	0.98369739363
0	18442	14575.049826746247	1.459484709107
0	18445	14576.097863846551	2.19763539305
0	18450	14579.311904235798	0.963337810803
0	18457	14582.728838450561	0.94565427294
0	18460	14583.635824459704	1.696740998824
0	18477	14596.796328968061	1.062947537098
0	18502	14604.107506730575	4.146365171389
0	18522	14609.553682364999	16.517249413045
0	18525	14610.701124556745	1.242682944779
0	18535	14620.002591146489	0.992988688871
0	18550	14625.615789441759	3.589859398913
0	18555	14626.869542084037	0.813631824777
0	18565	14631.117533074661	1.700529666724
0	18570	14650.068079294286	0.959743077494
0	18575	14654.09666572645	1.146244786028
0	18602	14674.057829914197	1.078085498791
0	18605	14675.039356115602	1.241128195091
0	18610	14676.288226108523	0.91198929036
0	18615	14677.459165953311	0.80289889304
0	18632	14686.213393023214	1.032226384711
0	18635	14687.406168383802	3.527970383706
0	18650	14718.739875330958	1.166953135375
0	18662	14725.199674070398	1.83355501373
0	18675	14730.614082049343	0.970377793629
0	18682	14737.783831906941	1.196687336732
0	18685	14738.810260134813	1.224672873114
0	18690	14753.770610740454	0.884146816377
0	18700	14757.006812929753	2.150037392033
0	18720	14782.099197307907	1.004995075986
0	18740	14802.551351975683	1.077832955774
0	18745	14813.242443104192	1.010561213829
0	18750	14819.417794019959	1.185844091699
0	18780	14837.549425147103	8.397235382847
0	18785	14839.732932961983	9.653625359044
0	18790	14841.207888456799	0.844808246568
0	18800	14848.614386966456	0.872273255978
0	18807	14852.36789751243	1.107816001773
0	18815	14858.284084771336	0.860074578878
0	18820	14861.622126645042	0.902412021626
0	18827	14864.320929522413	1.192821394838
0	18830	14865.356491460438	2.167279040081
0	18835	14868.701919307376	0.937204958033
0	18845	14875.978170901567	1.880305151162
0	18850	14878.381586487626	0.945349744614
0	18877	14892.543504546387	3.724422619269
0	18880	14893.711237121457	1.44071343541
0	18887	14895.162778955857	0.865003676899
0	18900	14905.845244806482	0.928320113942
0	18907	14907.39421940402	1.124685933534
0	18915	14915.861949910847	1.064346625563
0	18920	14925.003300209372	0.878077394888
0	18925	14931.615862739623	0.901121230982
0	18940	14944.989004848078	1.072763459478
0	18945	14950.317084472769	1.008840037603
0	18950	14956.513884593576	0.969016975723
0	18972	14970.209649267514	0.817935568281
0	18975	14971.06097791018	5.243678776687
0	18995	14977.798390111371	3.848697331394
0	19002	14980.662259811171	0.969900838379
0	19005	14981.78293814306	1.492404554661
0	19010	14986.961307271833	1.0613831155
0	19025	14994.820259177867	3.371085101603
0	19050	15011.352578822437	0.979327845029
0	19055	15012.318958642928	2.844696934085
0	19072	15017.863892807362	5.26673500103
0	19077	15018.686145870124	1.788221549817
0	19095	15026.838780139227	1.048053247388
0	19105	15029.005958860163	1.628148425748
0	19110	15031.831762748096	4.665155149061
0	19115	15041.795146317516	0.967954689264
0	19120	15044.553490151755	1.042665080447
0	19125	15053.452077304214	0.810503154062
0	19130	15061.234727210214	1.186625421513
0	19135	15068.063453210973	0.935581529513
0	19140	15074.8964192737	0.942670020089
0	19145	15081.164089133262	1.145319929812
0	19150	15087.410246346377	0.996507665515
0	19171	15092.307740478322	1.450623838704
0	19174	15093.271241068106	3.133449213877
0	19192	15099.608270348697	0.948932671361
0	19202	15101.730693343929	1.424146385331
0	19215	15113.101048737508	1.447038639426
0	19220	15121.319639606613	0.949758218508
0	19225	15127.750351494587	0.899444043823
0	19235	15141.561336764499	1.117952632159
0	19240	15143.84087752972	0.943010201864
0	19245	15147.835851017593	0.909245830402
0	19252	15150.262045529276	0.932459739689
0	19267	15153.37711209606	3.984043306518
0	19270	15154.527162097931	1.992156745785
0	19275	15156.458825779809	6.183318794791
0	19285	15160.080692989602	0.874012402911
0	19314	15190.612365115782	1.036772249118
0	19344	15196.917201879597	1.77659546242
0	19347	15198.012868260476	7.951755370805
0	19350	15198.935660140752	6.025988876759
0	19357	15201.513583541782	1.176257636771
0	19375	15217.966686132924	0.839342578966
0	19380	15221.162368713987	1.160643938556
0	19385	15235.098027789979	0.876098315138
0	19390	15252.061861302262	0.851054907497
0	19400	15255.423130130908	2.248724941656
0	19420	15260.782256282621	3.396885836863
0	19425	15264.93649644443	1.091345004458
0	19430	15273.917332378864	1.083942306042
0	19440	15296.582780040804	0.896139917802
0	19465	15305.174805945878	4.357255865025
0	19470	15309.415705470739	0.862670026161
0	19477	15319.029878335693	1.182228242513
0	19500	15327.475929230928	1.112147601694
0	19510	15330.77598692351	0.992330196686
0	19515	15338.785309904384	0.876734809391
0	19522	15347.638607157096	0.820046474878
0	19537	15351.220373660902	1.564731858422
0	19540	15352.104427399783	4.747279074375
0	19545	15357.185982800949	0.92380220592
0	19559	15365.755358510305	2.014048206145
0	19562	15366.814970896606	2.970141506544
0	19570	15368.83255795125	5.178253320727
0	19575	15371.116385846933	1.158952950872
0	19580	15375.092112385793	1.009148120321
0	19590	15390.83638585223	1.051682122797
0	19595	15402.521078336882	1.151048908755
0	19604	15405.712377504355	1.193522720598
0	19607	15406.592411104685	1.250927038662
0	19610	15407.50265613869	2.08132106664
0	19620	15412.007940123661	0.874150743801
0	19630	15424.512058540837	1.059533433802
0	19669	15449.997708201791	0.867814393062
0	19672	15450.933841453596	1.640880114573
0	19677	15451.779636739763	1.974886804427
0	19680	15452.925607777676	1.486508074484
0	19685	15455.699305306674	0.873543909192
0	19707	15462.854352686497	6.033537703569
0	19712	15464.027415671049	2.034366263733
0	19717	15464.866874649691	0.939537895986
0	19725	15473.568046184957	0.832895301189
0	19730	15504.080271778201	1.07438155897
0	19735	15506.756322019342	1.165528555214
0	19757	15519.467124802788	1.309386902811
0	19765	15526.483451913239	1.013455202244
0	19770	15528.317725139852	0.951189142745
0	19780	15544.684328937751	1.086039817426
0	19785	15549.730818837639	0.86998895267
0	19805	15568.468178966945	2.920353478672
0	19820	15578.197457443287	1.168710650597
0	19830	15582.618389437453	0.892526041158
0	19852	15605.742876528541	1.010447395779
0	19855	15606.833487804572	1.374725745039
0	19870	15620.882391667871	3.827686709967
0	19905	15671.668717161187	1.158701543417
0	19910	15673.054654246088	1.026909930725
0	19915	15675.555266794225	1.079058557376
0	19925	15687.343467247301	3.910867203994
0	19935	15691.937091731024	0.917024701647
0	19940	15694.609231933196	0.803166709933
0	19945	15702.640665656505	1.109698870871
0	19959	15705.50183701953	1.588945172716
0	19964	15706.600481590816	3.283511752636
0	19967	15707.679338103906	1.778034924281
0	19977	15716.27792055752	1.190837617032
0	19985	15719.667947831384	0.946964533255
0	19990	15721.982318833767	0.863469503447
0	20000	15727.601324773794	4.204503228124
0	20012	15732.867614928133	1.194463254791
0	20015	15733.794502419572	3.371946033461
0	20045	15758.761200682272	1.091191944946
0	20092	15778.499945170439	6.478376752297
0	20127	15801.796382539719	0.891916261427
0	20135	15804.140211887294	2.533722524245
0	20140	15805.800572817548	1.064644633699
0	20152	15816.067726751165	1.583605486465
0	20170	15829.628631415074	0.978629813623
0	20182	15833.038698092555	2.534508218877
0	20190	15836.498406651233	1.016263003647
0	20205	15844.264574016055	0.940542019438
0	20212	15847.180726991735	0.96533216089
0	20220	15852.894360819875	6.284248750087
0	20227	15859.425294003019	1.148381233122
0	20235	15870.014580371743	0.899903715216
0	20240	15872.326994604765	1.110946839768
0	20254	15875.422887718133	2.241602710529
0	20259	15876.461316537033	1.106335969171
0	20290	15889.419450235088	5.161047616385
0	20295	15897.485133091161	0.984480231069
0	20300	15909.803602733627	0.817471461277
0	20309	15911.070217958691	0.96432048101
0	20312	15911.995470174628	1.483060784091
0	20322	15915.913554190908	1.138919529878
0	20334	15918.000556922954	1.806940964158
0	20337	15918.833526862011	2.581250691872
0	20360	15928.079830793228	12.206705250409
0	20365	15929.558332767945	1.150425147545
0	20370	15934.401795031628	0.918519297335
0	20380	15948.674685408137	1.921953673607
0	20399	15959.408159904156	1.109452131949
0	20415	15965.073168134457	1.180298387911
0	20425	15971.413358889994	1.199798818585
0	20430	15977.594654551754	1.152073189616
0	20435	15996.684336010311	0.879357530735
0	20440	15998.254920919407	1.168225234002
0	20445	16000.050151802409	1.185243203025
0	20450	16004.782859017121	0.892754804809
0	20455	16020.987044958369	0.80208224114
0	20505	16033.913412181518	4.176765466647
0	20515	16041.66993054571	0.917614402901
0	20520	16055.774694933893	0.817525134329
0	20530	16065.421926606396	1.053497561719
0	20535	16071.21598270197	0.900041963253
0	20540	16076.02772231567	1.098162461817
0	20570	16086.146899592623	3.524939103934
0	20580	16096.452747318862	0.899991555139
0	20585	16098.328183535877	0.93548565954
0	20590	16103.052911911427	0.832380505092
0	20600	16112.660103859201	4.442158059396
0	20615	16118.698080979461	1.735484517325
0	20627	16122.599989937654	0.903189188987
0	20630	16123.798591774738	1.235020754149
0	20635	16140.195429492307	1.097651767358
0	20647	16154.940565928401	2.704484772424
0	20665	16170.323023865718	3.408734725882
0	20680	16190.412802630598	1.687475799145
0	20690	16195.454783135876	7.125544252628
0	20702	16203.690217370251	1.064225942921
0	20712	16207.141923420263	0.931082238629
0	20730	16211.85809260244	4.226467695453
0	20735	16217.266207468056	0.92022535
0	20745	16221.873947282383	2.599885425956
0	20755	16227.490245462969	2.771687748202
0	20770	16233.169762502993	3.2700728245
0	20775	16237.151460840061	1.161357516982
0	20790	16243.433089072055	1.340969624375
0	20795	16249.495738102981	1.112122602016
0	20815	16256.746108547288	4.837816311669
0	20820	16264.135433337007	0.844589334633
0	20830	16273.681436933215	1.892250476122
0	20837	16275.746271816832	1.167401676532
0	20842	16276.571908310433	0.971650226614
0	20847	16277.618124263366	1.755370245993
0	20850	16278.716536771511	2.05102752271
0	20855	16282.468251592565	1.033382890373
0	20860	16286.938577790754	1.035257807374
0	20875	16296.286689875456	2.464460312655
0	20890	16300.284951819066	2.152340477165
0	20897	16303.572830898747	1.074991342425
0	20900	16304.573453000527	1.761471091659
0	20905	16307.715292656744	0.854895420559
0	20915	16321.829497052469	1.16032958813
0	20925	16329.465390760426	3.117462478871
0	20935	16337.774828252155	1.070998792164
0	20940	16344.093457832638	1.120713537931
0	20952	16347.39748971426	1.830372288732
0	20955	16348.361741947206	3.118227111082
0	20960	16354.520498792375	0.868342156615
0	20975	16363.660108837857	2.968131120235
0	20980	16375.227224122363	0.81834587073
0	20990	16379.467686454569	1.072198646609
0	21005	16390.55324117281	1.17982062269
0	21015	16396.419229258932	1.093379245978
0	21020	16399.677102145534	0.976290743332
0	21025	16410.602955098704	1.038541676942
0	21035	16420.143844898207	1.197191235796
0	21040	16431.215314398356	0.959432460647
0	21060	16443.431498148847	0.803707927838
0	21065	16444.558741852567	1.028509124648
0	21075	16455.260542422641	1.98885440718
0	21080	16462.436794338717	0.88785343729
0	21085	16480.159421337801	0.966236319952
0	21095	16487.553015437553	1.011202372797
0	21110	16506.571551877023	0.918412842043
0	21120	16517.681526044359	1.547902878163
0	21127	16522.492363489839	1.09273926476
0	21134	16523.584302113346	1.269839485135
0	21150	16527.36776220709	1.368753891506
0	21155	16531.080085140218	0.821286236215
0	21160	16536.072582477543	0.81702089794
0	21165	16543.466331777891	0.995737731829
0	21175	16550.330838453915	1.100220189709
0	21200	16559.766893181915	0.917402439658
0	21215	16582.952507479617	1.012006122805
0	21225	16585.854393245233	1.395588323357
0	21230	16591.187268595508	0.994006041251
0	21235	16596.971887486136	1.094451074023
0	21250	16611.209996621024	1.14435388213
0	21255	16616.13280253604	1.062527820747
0	21260	16623.556849640188	1.126210367493
0	21275	16635.840440640561	1.012256359309
0	21280	16645.699857653829	1.011619208101
0	21285	16650.508929352478	0.810525382403
0	21305	16684.753355973478	0.939240103588
0	21310	16687.468500235159	1.144779306371
0	21327	16692.689552164335	4.264590400541
0	21335	16696.173123129886	0.994123072922
0	21345	16707.804126863753	0.998164960835
0	21375	16732.09893399111	0.991948075779
0	21380	16739.854713938922	1.165662562847
0	21387	16746.78750868466	1.098703102302
0	21395	16749.503905384774	2.78028689701
0	21400	16753.903948444029	1.14104036754
0	21410	16756.273984305997	2.353808336844
0	21422	16777.91468191016	0.886879238579
0	21425	16779.040262203473	1.345265177866
0	21437	16788.53820951894	1.164983068407
0	21450	16791.610541975334	1.744971638503
0	21455	16794.278906373405	5.742403549821
0	21475	16821.411495838275	0.853824026976
0	21507	16848.730387796286	1.100795830134
0	21510	16849.918717064253	1.316113175591
0	21527	16856.730566324072	2.94195547672
0	21530	16857.565486902708	1.838589776104
0	21535	16866.77704172045	0.858560142945
0	21540	16868.019195306639	1.099775653984
0	21545	16873.80632531736	1.088036335446
0	21552	16876.659794684402	0.967993338499
0	21555	16877.767051637448	1.684815197392
0	21580	16889.848698110501	1.086136011593
0	21590	16897.529749542571	1.831774522285
0	21595	16911.761713951733	0.896641188022
0	21600	16918.395865698059	1.04295649929
0	21605	16920.888721276454	1.021229008306
0	21620	16936.691259052923	0.808375486545
0	21635	16950.953810644658	0.929803975113
0	21652	16958.243811244745	1.970232105725
0	21657	16959.083108481806	4.013049947377
0	21670	16961.934130966275	1.550240828217
0	21687	16978.023277788468	2.097933156623
0	21690	16978.900033908848	3.101775452495
0	21705	17012.917442051438	1.04899341492
0	21710	17018.719116024801	1.108832979482
0	21715	17025.254878646578	0.936616320629
0	21720	17029.290719761752	0.955909676291
0	21732	17033.738894305806	1.764110638471
0	21735	17034.835314571913	1.216789006927
0	21745	17059.87696137639	1.038498940691
0	21757	17068.567108301855	3.391852193909
0	21762	17069.75754663445	1.730381579641
0	21770	17071.973037015809	2.902412700158
0	21782	17082.498711663388	4.698768173336
0	21785	17083.611342894376	1.184253766753
0	21795	17092.184803550131	1.166827503871
0	21800	17093.682803878366	0.935238261893
0	21815	17104.650340570973	2.479589670869
0	21835	17116.690229163225	1.569056102995
0	21840	17124.624833646614	0.906153874751
0	21860	17134.689222964065	1.095027702115
0	21870	17143.335013640155	1.143782368489
0	21887	17150.758616132499	1.394924758871
0	21897	17152.869415082061	1.80401666993
0	21927	17161.459997274148	0.853474334907
0	21935	17164.75693368829	3.362661090817
0	21940	17173.711376616992	1.059028064739
0	21955	17206.083185851664	0.846923038922
0	21960	17207.78097691597	0.960696189106
0	21965	17215.496407774802	1.103712639958
0	21972	17220.361594040155	1.086790765915
0	21975	17221.551701112952	1.849108337646
0	22020	17258.838313711096	0.955031466484
0	22025	17264.223988501778	1.143550019991
0	22030	17268.711803422328	0.874648655672
0	22035	17287.257743448477	1.005405891128
0	22050	17292.582429122854	3.295442756638
0	22055	17300.155289078983	1.025909064431
0	22077	17329.094638193178	4.744233734138
0	22080	17330.011319153442	1.636852816638
0	22117	17351.465171753275	0.861591685843
0	22120	17352.457577964044	1.27967179425
0	22134	17374.059161783782	1.289030276477
0	22137	17375.04939606537	3.227901987079
0	22140	17376.074043937147	2.711551054126
0	22150	17389.991764984715	2.131462423604
0	22155	17398.660639018935	1.04017788237
0	22160	17412.941411420245	0.844435885735
0	22181	17428.788536335438	1.65807950641
0	22184	17429.80313740196	1.393329685209
0	22192	17431.784723575882	1.341483620026
0	22200	17434.767305081842	0.956442632619
0	22205	17440.063112211996	0.828696755692
0	22220	17448.054121827139	1.057391734235
0	22230	17459.655676523803	2.991195544383
0	22235	17464.45330638013	1.159540091641
0	22260	17486.325659049162	2.219427836738
0	22272	17500.833241521254	1.132236809842
0	22317	17533.118651966288	1.944097190458
0	22335	17539.967014953156	0.860947583709
0	22344	17541.241548950669	1.10750234127
0	22372	17560.502524500275	1.048439874686
0	22387	17564.572332997693	0.974417684834
0	22390	17565.51573116768	0.965911791779
0	22415	17575.328286286998	0.811729583889
0	22425	17580.838815770415	1.015918298066
0	22435	17583.014882290798	1.225915220926
0	22455	17596.515575659495	0.930690723006
0	22472	17611.02024376536	1.470842953919
0	22477	17611.997496491151	3.424866085625
0	22482	17612.912396223696	1.791305145157
0	22487	17613.946263917761	1.611572643891
0	22495	17619.866593729663	0.906920531299
0	22515	17631.183107061574	0.938201520685
0	22522	17634.935610905506	1.152427322417
0	22525	17635.80084209976	1.128677788026
0	22530	17641.171046033695	1.135843101051
0	22540	17646.177254787345	0.868635198567
0	22545	17652.473022288524	0.996164350118
0	22552	17662.039745010828	1.10985994665
0	22577	17668.294542592537	7.152917137734
0	22592	17678.668785295385	0.819994418696
0	22595	17679.47737582422	1.522427870294
0	22615	17709.463336270751	0.888081480376
0	22620	17710.790862548393	1.009908070229
0	22627	17721.899408499437	0.906836065371
0	22635	17731.576548336365	1.082469318621
0	22645	17738.055568281626	1.131350421533
0	22670	17768.369617038947	1.11301964419
0	22687	17771.808806526428	0.924409926962
0	22692	17772.62490155925	3.587082547139
0	22697	17773.457099777506	1.084714988781
0	22700	17774.259403851022	1.507870128778
0	22720	17798.083832354553	0.898304236215
0	22747	17807.476318315947	0.8424101796
0	22752	17808.575629582507	1.293031387169
0	22760	17812.683683653897	4.454996908933
0	22765	17817.560341544215	0.99709817376
0	22770	17820.568442737005	1.149279447366
0	22775	17828.829747278482	0.960713695921
0	22780	17831.295093103377	0.870130787417
0	22794	17836.61887324604	1.246416454311
0	22797	17837.572089635979	1.475427395175
0	22807	17839.329678475138	0.871053560302
0	22840	17873.454050726607	2.462725460244
0	22845	17875.664248323845	1.11806368446
0	22850	17880.504005440489	0.958208994754
0	22855	17883.426477054975	0.874503807351
0	22862	17888.479771790573	0.810845342837
0	22867	17889.619480455679	1.434699320302
0	22872	17890.617421464075	2.112487883347
0	22875	17891.555665712443	1.114686971333
0	22880	17892.454063644456	0.88106818283
0	22885	17895.833639489723	0.838242055569
0	22892	17901.196084853695	0.874813649617
0	22895	17902.210418652711	1.235637199162
0	22907	17913.350150356104	2.154657366126
0	22925	17928.56062033373	2.101052092723
0	22932	17931.45520575332	0.86701180106
0	22937	17932.493700538916	6.883944464712
0	22940	17933.588674063762	7.914088439406
0	22945	17935.59113618229	0.873078716826
0	22960	17950.943423779125	1.120491391979
0	22979	17961.050447384092	1.304315918599
0	22984	17961.946440914097	1.755694701953
0	22987	17962.907455418828	1.086032668081
0	23022	17984.922092676618	4.299565033074
0	23030	17987.647771903011	5.073944926562
0	23040	17993.368673955782	2.172313171902
0	23045	18001.539600602593	1.155250884127
0	23052	18008.488287176792	1.040250268858
0	23055	18009.605340532907	1.701562549291
0	23070	18019.855297995129	0.900216627307
0	23075	18035.856727987765	0.882403089013
0	23095	18062.128899679986	0.880028826278
0	23120	18080.586523041023	0.843591883499
0	23125	18083.239787454079	1.084391880315
0	23170	18111.80026189569	0.971737995371
0	23175	18120.868672849179	1.033944989834
0	23180	18129.550767785683	0.92381848013
0	23185	18131.803938045514	1.019700623117
0	23190	18133.255694337775	0.986293704994
0	23195	18136.20911712842	0.983094139118
0	23200	18150.341479771906	1.155174197722
0	23220	18168.774853502981	0.910799757205
0	23232	18178.980001689082	2.183509064233
0	23235	18179.897119600566	1.663575181941
0	23242	18184.939182601325	0.823568454664
0	23250	18188.363895854593	0.86342620505
0	23272	18204.770059518957	5.148170703016
0	23275	18205.766336106298	1.31185762275
0	23280	18213.227264042571	1.089141170308
0	23290	18222.667554106122	0.916416424885
0	23300	18231.299208814057	1.836960931274
0	23320	18241.166748683829	1.029272962082
0	23355	18297.886579922055	1.006972176116
0	23375	18313.344952902264	0.88400845509
0	23390	18320.931344455312	3.811533521206
0	23397	18323.655365155695	0.893374248967
0	23405	18337.204401752941	1.043471653573
0	23415	18340.603623114547	0.882131990138
0	23420	18345.150477492931	0.977177528571
0	23430	18353.023721019623	1.024272434693
0	23455	18376.790063998561	2.165000565911
0	23460	18380.899605154181	0.952658171952
0	23465	18385.1047104423	0.975550860632
0	23470	18394.700219713384	1.159006758407
0	23475	18396.426549434483	1.175214275625
0	23480	18402.698308037521	0.929193957802
0	23485	18407.85057150398	1.178689006995
0	23490	18413.475213252099	1.149870418943
0	23495	18415.261940469647	0.831945130508
0	23500	18417.858331615159	1.052608918957
0	23505	18419.870410418265	1.142500471417
0	23515	18428.604774044428	0.894221419375
0	23525	18437.557462954263	0.948368782457
0	23530	18447.396011378033	0.834916262142
0	23540	18458.707095980868	0.921485787164
0	23550	18478.386611834748	1.106702652667
0	23577	18512.461485922161	1.280792085211
0	23585	18514.459662366576	1.364081093896
0	23605	18546.022841548377	3.786710371604
0	23610	18555.996925124859	0.881535180379
0	23620	18572.257229032745	2.460514591968
0	23625	18580.984371138339	0.815146691818
0	23635	18587.122319274824	2.717520013919
0	23640	18590.279902744765	0.961218947265
0	23650	18617.814810445669	2.359361266548
0	23665	18637.921080753843	0.877148359921
0	23670	18651.938586520184	1.108978387527
0	23682	18672.395349823215	1.149062071182
0	23685	18673.51740737166	2.09603227089
0	23690	18676.847810814703	0.847124038078
0	23695	18683.923799764238	1.17061495902
0	23705	18701.870464503471	0.849655092787
0	23710	18708.358605466655	1.109466987476
0	23715	18715.715077025976	0.860161986668
0	23720	18718.929044205826	1.181677145232
0	23730	18722.679389524088	3.585472129201
0	23735	18741.024302435427	0.91348450454
0	23742	18744.634387637064	1.108385776635
0	23754	18746.585109024908	1.140677771513
0	23757	18747.773415159661	2.00061938872
0	23770	18768.047072210458	1.12642990537
0	23780	18781.066834817946	2.278592958313
0	23785	18788.044522006739	1.033083509095
0	23810	18817.177356196974	2.419817969803
0	23820	18825.928433641133	1.177188839763
0	23827	18841.198378793199	1.147276740149
0	23835	18854.440046807854	0.98347266214
0	23842	18859.411500340756	1.149188736361
0	23850	18861.733193115183	1.134499639738
0	23860	18867.96338127199	0.903536585812
0	23870	18873.544044214513	1.161422147658
0	23897	18880.563811253683	5.875758034542
0	23910	18891.59723360108	1.004894443136
0	23927	18922.109957866788	1.237963604572
0	23932	18923.265959865086	2.197555836619
0	23940	18926.374600538794	6.162237247124
0	23945	18930.17924004445	0.845868764818
0	23950	18931.85293994108	1.060949388519
0	23955	18933.161832687883	1.144558678847
0	23970	18938.360542825945	1.601587852096
0	23980	18943.581126790767	1.092805712391
0	23990	18948.582712439339	0.931829292891
0	23997	18950.508268832492	1.13582479991
0	24005	18964.750814214241	0.980650659744
0	24030	18983.992490774124	1.102798981313
0	24042	18988.485558275981	1.058143146968
0	24049	18989.497077193307	1.555062087766
0	24052	18990.388794992035	1.855034970044
0	24055	18991.451557348678	4.77704698816
0	24067	18997.128896425132	2.129230298353
0	24070	18997.977794385635	2.174398275685
0	24075	18999.381075433535	1.074416982476
0	24085	19001.296030027806	1.119224529421
0	24090	19003.335119664339	3.764379220112
0	24095	19011.398465902272	1.13084352538
0	24100	19012.968820082114	1.004527578037
0	24105	19014.80247875612	1.029772880673
0	24114	19019.383418462036	0.958187498059
0	24125	19023.674564018615	0.809956547059
0	24162	19051.443176489998	0.991788186505
0	24165	19052.573457243689	1.209582888474
0	24177	19058.964192883395	1.726826356316
0	24180	19059.857981464643	1.173660131827
0	24190	19064.92072417894	0.953094689641
0	24197	19066.552943199463	5.602984106493
0	24205	19068.597904159836	1.654464542352
0	24210	19072.735524904011	1.040273256693
0	24217	19085.688412367599	1.160353724193
0	24222	19086.512092647655	0.955729745099
0	24225	19087.656549298996	1.700007316404
0	24230	19094.299419025948	1.144354983512
0	24235	19101.687319922817	1.099378502555
0	24240	19108.080657106144	1.106375359185
0	24250	19120.154575943347	1.183413066249
0	24260	19147.253383044031	0.8568857993
0	24272	19155.750766743187	0.811862093583
0	24275	19156.807112595745	1.458703753305
0	24282	19157.79942293156	0.901996941678
0	24290	19160.040249036484	2.626635144761
0	24295	19182.781420637359	1.171300381143
0	24302	19188.608948810024	0.999899782427
0	24325	19209.73866660416	0.831647967454
0	24330	19213.309643597447	0.974527829327
0	24335	19219.649515037969	0.937441697065
0	24345	19224.911924374432	0.988902613148
0	24355	19234.643450966197	1.074093202781
0	24362	19241.573699082915	0.965908205789
0	24365	19242.411127921768	1.650225392418
0	24370	19258.087139495705	1.107659713179
0	24375	19262.062886370778	0.820960222185
0	24382	19264.324468243426	0.919947455917
0	24397	19282.910555833698	1.003407809045
0	24405	19297.481332999085	1.082716277987
0	24426	19318.955024577674	0.941767551939
0	24436	19320.706609808278	4.515589260315
0	24439	19321.65959046492	3.270710530615
0	24442	19322.569955943801	2.306399742493
0	24455	19330.830905914865	0.83225292284
0	24460	19334.179031937033	0.895126905944
0	24465	19339.029319145915	0.982935274672
0	24470	19341.456987947976	1.090319196787
0	24477	19343.677762659195	1.128799375053
0	24497	19348.603186067981	5.098332749082
0	24500	19349.419161728905	4.184263956174
0	24549	19393.270134845281	1.518777891818
0	24552	19394.359188638719	3.183630442619
0	24575	19402.299691687068	2.143779601145
0	24590	19408.982019088357	2.852927100751
0	24602	19429.751793816723	0.978220197279
0	24615	19432.637808798891	1.128219069579
0	24622	19438.944149721329	1.062934006937
0	24634	19440.941469945301	1.878263940271
0	24637	19441.766886455946	1.546066396171
0	24645	19447.417893524811	0.819648336247
0	24650	19449.375624424148	1.014512525033
0	24680	19493.67388056178	1.111725571752
0	24685	19497.003236347683	0.822899413295
0	24690	19507.766379088925	1.128114164621
0	24705	19514.134405426304	0.964315334509
0	24710	19516.234373246065	4.684511951302
0	24717	19522.526555018875	1.012441931944
0	24725	19531.476191818329	0.927958354726
0	24737	19546.365209056485	1.136573093664
0	24740	19547.340048892285	2.040451527807
0	24762	19554.629291881429	1.183644027729
0	24774	19556.62835439266	1.219674990559
0	24779	19557.718751304031	1.275916312872
0	24782	19558.737973921087	1.403500648563
0	24790	19561.736107911811	1.098128719069
0	24802	19567.69348042492	0.900671321619
0	24805	19568.560470302461	1.667523396067
0	24820	19601.073266058946	1.163256330881
0	24832	19608.426597921071	0.929273243807
0	24835	19609.275751007987	1.611896767179
0	24840	19612.776384590149	1.033700792771
0	24855	19615.940384820954	2.702913417072
0	24880	19630.177822816032	2.675272389323
0	24895	19643.544858982369	0.929605100211
0	24930	19674.125160190672	0.862646005955
0	24935	19675.764013352504	1.043317915965
0	24942	19679.367562385509	1.050892711058
0	24960	19688.641641944034	1.15316270683
0	25009	19730.341271873035	1.011315061152
0	25012	19731.183465973318	1.656984780158
0	25025	19735.969455529559	0.888962359633
0	25030	19738.107647611884	1.124391750246
0	25040	19768.066426359515	0.822824631445
0	25047	19770.464909966908	1.073724480905
0	25060	19774.344072279913	1.923431415854
0	25065	19781.52295465096	1.027963435743
0	25080	19802.223383881203	1.065010361653
0	25085	19804.188838628239	1.138380870689
0	25105	19813.739825526916	0.843104157131
0	25115	19821.306595336172	2.360374614117
0	25120	19824.520714879614	0.812312339246
0	25130	19828.979192081964	2.193370781965
0	25135	19830.447033040926	1.029145540111
0	25145	19843.14155138922	0.949091834202
0	25157	19855.911699897335	1.178242420033
0	25169	19857.865811802451	1.419024848698
0	25190	19867.73848221881	1.092942093499
0	25200	19870.812499864501	0.924080295861
0	25212	19877.287910091942	0.835134683829
0	25215	19878.362232314022	3.693025735621
0	25222	19882.4642421021	0.880166981369
0	25225	19883.657371004099	1.258703529852
0	25239	19886.224926618663	1.071693385486
0	25242	19887.120865234443	1.650474970111
0	25252	19889.362718760957	2.152352366474
0	25255	19890.197891697557	1.167600477204
0	25260	19891.733369167357	0.911857775412
0	25270	19904.699683356027	0.995549276192
0	25275	19911.298968126096	1.173703062534
0	25290	19954.603367400475	0.903487889841
0	25295	19962.821426616405	0.933835922554
0	25300	19968.785580050082	1.092116662953
0	25305	19971.401983799607	0.816139571369
0	25315	19974.879974734162	2.24122994408
0	25325	20001.190771634679	0.837811692152
0	25330	20019.635656011625	0.879130563606
0	25335	20030.547612496486	1.007150416356
0	25350	20036.061018168467	1.134959359933
0	25360	20046.437150241197	1.158694286111
0	25375	20071.314128320149	0.956930982508
0	25390	20075.742110572353	1.663103092772
0	25402	20085.256731815831	0.870794978738
0	25415	20089.545791666363	1.105865376412
0	25425	20093.268000287916	1.491003312687
0	25430	20094.450957799776	3.339141851755
0	25435	20095.703683494042	1.155031330138
0	25460	20123.762554554408	1.116683126613
0	25480	20136.661026377468	3.014460401399
0	25490	20159.072675907643	1.084420015942
0	25527	20190.900699579339	1.631872391862
0	25545	20197.496383190443	11.216086384993
0	25552	20209.516538257198	1.190564609878
0	25557	20210.503693666169	1.301655270512
0	25565	20214.876813416226	5.167662196925
0	25590	20229.689207485267	0.949203741178
0	25607	20245.38137095058	1.632412021825
0	25627	20249.544118932166	6.291927585379
0	25630	20250.411683765703	4.673089025138
0	25642	20254.446332576109	1.652287106024
0	25650	20257.064720735152	0.935750895087
0	25685	20274.979317269302	0.849893277418
0	25707	20293.056633471056	1.501635483012
0	25710	20293.999761519591	2.933537895045
0	25715	20301.910376558552	1.022419196181
0	25730	20314.675213514008	1.015459468774
0	25737	20321.630196020171	1.142970750388
0	25740	20322.536181387097	1.458476402538
0	25745	20324.244812501143	1.089350639377
0	25750	20336.777567861238	0.909291946143
0	25755	20343.999472203392	0.862826970033
0	25769	20346.955309155529	1.416374853788
0	25772	20347.903425190357	1.097251542033
0	25775	20349.0049105341	3.951153841148
0	25780	20350.457744216733	1.199686153233
0	25800	20370.410755336708	0.808496965095
0	25805	20374.68685093334	1.037069123052
0	25825	20386.56411407318	0.834044202603
0	25830	20387.495318359666	0.813307411876
0	25840	20408.457759555571	0.821949535422
0	25850	20419.495364554997	1.041373583209
0	25870	20435.736193354614	1.045676593296
0	25880	20454.097279090224	0.953687566984
0	25887	20463.292057941509	1.080427262094
0	25895	20467.19729115922	4.889738973698
0	25914	20476.16671020706	1.154236424539
0	25922	20477.896943887331	7.41409603335
0	25925	20478.712576980804	3.45424630123
0	25930	20481.675687107022	1.146958030295
0	25935	20484.823590852706	0.975701375119
0	25945	20497.804339075435	0.944332345296
0	25955	20503.48224504213	3.948983741433
0	25975	20526.302453085149	1.19248292204
0	25980	20530.312185150781	0.972086857166
0	26014	20567.056542236378	1.726797780342
0	26017	20568.243078376093	4.417900240049
0	26035	20577.481898229721	0.803688113112
0	26040	20591.211586830665	0.921056488156
0	26045	20597.283444283523	0.936770348158
0	26057	20603.211017976043	0.858184810076
0	26072	20610.593098551025	1.142789631104
0	26075	20611.549226515544	1.723509896197
0	26085	20624.33376292246	0.996362649463
0	26109	20634.414140244555	0.953128906433
0	26114	20635.512339403276	1.867500856705
0	26120	20637.506936107279	2.43557053146
0	26132	20645.793094037515	1.125077379402
0	26140	20648.68065397859	1.069287445862
0	26145	20650.236747040344	16.298020289345
0	26165	20664.989238336194	2.879986020881
0	26170	20666.28242756523	0.893968549836
0	26175	20674.531958146888	1.087723811902
0	26180	20692.982435707624	1.055497239064
0	26185	20702.292142008039	0.974028611649
0	26205	20722.438565927947	5.608827369388
0	26225	20735.754837136977	1.040392762236
0	26240	20744.076985724037	0.87351526618
0	26250	20750.486939839045	2.040796243085
0	26257	20752.13686344521	0.942487413809
0	26265	20757.130896152134	1.145147019718
0	26272	20759.875397707331	0.906224801298
0	26275	20760.946797879129	1.500916542919
0	26290	20773.866079598634	1.170140441125
0	26300	20782.755459312054	3.745803211629
0	26315	20799.821456265778	4.06146294767
0	26325	20805.825125934337	1.163473067712
0	26330	20807.073359707852	4.543345631602
0	26335	20817.11060485006	0.991641916614
0	26345	20819.247011997697	1.103348090779
0	26362	20844.9064210829	1.400022671119
0	26375	20849.432748318953	1.808131414665
0	26401	20866.088548614107	3.256237027199
0	26406	20867.258427596766	3.30049238401
0	26420	20871.608054837606	4.975232377624
0	26425	20875.632736074909	1.070535760187
0	26430	20886.392036764433	1.130032379739
0	26447	20920.805230688927	1.864745528991
0	26450	20921.612660195743	3.060796978884
0	26462	20927.787926092161	0.984014804196
0	26467	20928.810062713897	1.228761812574
0	26480	20932.456439927387	0.919373566844
0	26512	20944.179657287833	7.23290016593
0	26515	20945.217748366792	1.405816677848
0	26530	20974.903455584457	3.050101605158
0	26537	20988.401602354396	1.026588907465
0	26570	21016.412537113818	1.49740289511
0	26580	21025.714797975471	0.882062605862
0	26590	21034.700100978339	2.780799192281
0	26622	21052.092347074602	3.669574339103
0	26637	21054.703976302803	1.221062260295
0	26640	21055.8849699585	1.912139075248
0	26647	21057.219548495384	5.046929395432
0	26650	21058.168316516271	1.61486428571
0	26655	21063.623176692817	0.842077079602
0	26662	21068.33913830438	1.013479763083
0	26665	21069.430677257695	1.2042864057
0	26670	21072.140984098102	0.825408000499
0	26680	21076.198730766582	3.527795621279
0	26695	21079.399371535054	3.024900956918
0	26717	21087.563457725228	0.987820014916
0	26737	21103.067664030234	0.967373544816
0	26745	21105.170792052299	2.114574023325
0	26752	21119.410478284862	0.94338759277
0	26765	21129.066501775666	1.098615879472
0	26770	21131.666452826779	1.047586026695
0	26780	21148.053495938133	1.157286569662
0	26794	21161.143057524313	0.880601100717
0	26805	21163.901052694295	3.412776161856
0	26810	21164.748177218099	0.842943323776
0	26815	21174.733219333651	0.896936883684
0	26847	21200.053986068087	0.934776626062
0	26877	21217.742840613205	3.644141830228
0	26885	21220.497633555478	1.044945622887
0	26890	21227.34858839372	0.820503246319
0	26910	21244.837057109775	1.47031786758
0	26915	21246.555994754695	3.506947559676
0	26947	21296.189862146246	1.095939307753
0	26950	21297.116860756761	1.840856438836
0	26960	21306.477445503313	1.141263794247
0	26965	21314.42820526691	1.184233409632
0	26982	21325.377641745598	0.833058703505
0	26985	21326.576712816057	1.282317937401
0	26990	21329.321336359364	1.106298657693
0	26995	21330.700588536678	1.115585518628
0	27000	21332.606413135945	1.159939092025
0	27005	21337.666777241523	0.988010664564
0	27015	21346.898692230142	2.505352353532
0	27020	21348.721521955343	0.832312571537
0	27037	21363.684832416395	1.067570066452
0	27045	21365.915407817919	0.916130232438
0	27075	21393.290543057224	0.903437612392
0	27090	21404.334936188745	0.931336943898
0	27095	21411.906354924687	0.920446751546
0	27100	21424.338805065309	0.85477592526
0	27112	21441.39502066274	1.516827058884
0	27155	21470.138485253398	2.333463001645
0	27160	21472.303721855161	0.903146039415
0	27175	21480.484052685523	0.992969601043
0	27180	21481.938482126689	0.84602865437
0	27195	21491.211120244729	6.262579548923
0	27202	21494.715456361357	0.911259233672
0	27210	21500.762615057596	0.845007227641
0	27222	21503.136062285826	2.032843607822
0	27244	21507.28449776856	4.746731031214
0	27247	21508.101993171533	4.265363546753
0	27250	21508.968051413575	2.742975448111
0	27265	21513.504425671064	3.906473764202
0	27270	21521.562816180599	0.997839552443
0	27275	21524.336644820635	1.09755391581
0	27297	21532.511502050331	1.067264226265
0	27302	21533.42224387387	1.166348602171
0	27307	21534.511589306595	1.850166004839
0	27320	21548.793549506186	3.179096367183
0	27325	21552.173739275496	0.957304636855
0	27330	21559.92259382261	1.147095283959
0	27340	21573.310981031965	1.191525521533
0	27345	21574.696026505544	1.086852771975
0	27350	21602.065650432742	1.015225413349
0	27370	21628.776869938192	2.611654238602
0	27380	21637.168079820512	3.271566019058
0	27385	21658.191034333934	1.056627635937
0	27390	21661.315830996893	0.86698602112
0	27397	21663.55905737923	1.160738811642
0	27405	21676.168385072678	0.871970180236
0	27425	21696.506885187167	0.942472722661
0	27430	21697.801761631954	0.939145605452
0	27435	21712.654018363163	1.108724556956
0	27450	21738.504442987611	1.148027889617
0	27475	21769.048081821053	0.80173097197
0	27495	21786.499908342307	1.000007413435
0	27505	21791.879744560002	4.640959894986
0	27510	21794.39516812155	1.004156946205
0	27520	21809.848857366278	3.885197537427
0	27525	21810.981755221376	0.909535983298
0	27530	21820.209218807222	1.198796023149
0	27535	21829.722717399664	1.191341033485
0	27550	21836.392945350686	1.00251964787
0	27560	21839.788122361233	9.604242383258
0	27572	21844.682390020118	3.739927408854
0	27575	21845.700540852436	1.824405105454
0	27590	21863.000153242098	1.020222260989
0	27605	21887.984972324863	1.052634429745
0	27617	21891.202241326499	1.298301202295
0	27627	21894.261593566817	1.015925378166
0	27630	21895.384937513229	1.429152014531
0	27635	21899.356318562437	1.081990383379
0	27650	21918.990059767019	0.878335280344
0	27660	21924.066056933723	0.852368584275
0	27665	21928.499336162392	1.171876339521
0	27674	21936.204798539485	1.067529013939
0	27720	21949.416614144326	2.808128050807
0	27739	21956.284127519318	1.320664040787
0	27742	21957.20927328555	4.341355686494
0	27757	21960.897583029103	1.877305241924
0	27775	21967.172671989607	4.214399986406
0	27785	21980.122592977145	1.197383542918
0	27792	21981.411416841147	1.075612309482
0	27795	21982.533874482696	1.70996724128
0	27820	22002.102266094704	2.165779434661
0	27825	22006.090127290135	1.045718847122
0	27832	22007.815213188258	0.978510274645
0	27865	22051.247106614784	0.902901864983
0	27892	22067.798886090617	1.124786244147
0	27895	22068.785645852058	1.21700376763
0	27900	22071.93580660916	1.085124677047
0	27905	22075.11327537771	1.138774304744
0	27925	22082.730304576363	1.220639191919
0	27932	22087.676369772242	0.878653977998
0	27935	22088.656889109822	1.235155283222
0	27940	22089.881533244728	0.85902972417
0	27950	22093.152208094773	1.261392652468
0	27960	22106.515241173702	1.676227338108
0	27980	22123.034908843092	4.961767661395
0	28007	22155.608852684505	4.672760287108
0	28024	22162.084461934885	1.042019781657
0	28027	22163.053378154078	1.134233943232
0	28037	22173.71098800015	0.887723687664
0	28052	22181.325159528696	3.697191686783
0	28072	22185.212253177011	1.083550404509
0	28095	22195.189060581523	1.098809432145
0	28100	22208.142260980591	1.173067470547
0	28105	22210.600292230297	1.022876864113
0	28115	22238.685840721677	0.943283237051
0	28120	22241.0682191362	0.915562694706
0	28129	22242.450198607833	1.166247712076
0	28140	22246.829231439345	4.569165838643
0	28145	22250.148415365222	1.151065436192
0	28150	22255.711503445189	1.014499914367
0	28155	22259.432440543857	0.869794592913
0	28165	22267.207010343445	0.887477376126
0	28170	22268.842156384881	0.815907697659
0	28200	22285.750256475465	2.780286087245
0	28215	22298.691924337314	1.144119753037
0	28222	22302.067616343538	0.878113269527
0	28237	22311.351802775817	0.947342942096
0	28240	22312.398227308499	1.124664695558
0	28245	22315.523737789023	0.902682567947
0	28250	22327.248863003227	0.965006416012
0	28255	22332.74889961141	0.883883755282
0	28260	22352.149778377387	1.008092857338
0	28270	22364.692036545445	3.041981683918
0	28275	22371.698543823156	1.082479777653
0	28287	22384.13698434967	2.134753710763
0	28290	22385.308910460932	1.343024026255
0	28307	22399.633342657449	3.768659588854
0	28322	22404.391442851609	5.575022875777
0	28325	22405.480634631848	2.275937209319
0	28340	22430.621107696484	2.794604596118
0	28360	22466.220246311983	1.02642833367
0	28379	22478.844334816412	2.606148678346
0	28382	22479.826611921695	3.867973268871
0	28385	22480.790860491657	4.615129251128
0	28390	22483.139904227226	0.992000601906
0	28395	22501.808495600926	1.189858847484
0	28412	22508.93653214165	2.088541503437
0	28425	22513.045639079939	6.484940932483
0	28435	22518.69219011686	2.608447397819
0	28440	22523.193696748407	0.992461130209
0	28445	22532.146912803669	1.122018731292
0	28450	22550.098987750266	0.841813080106
0	28455	22557.769595194333	0.887050322257
0	28467	22561.512637523551	1.590472442629
0	28475	22563.875310003764	0.954835843947
0	28482	22566.883556572709	0.865931635164
0	28492	22569.557569787681	3.502829858505
0	28500	22579.701627493959	1.026853347849
0	28510	22587.046337511188	0.837168582529
0	28515	22603.948121117371	1.186906380765
0	28585	22652.136293058125	1.077826964855
0	28590	22660.609846468443	0.948734193575
0	28600	22676.31074473288	2.933350536694
0	28632	22715.476412840992	3.879518925055
0	28635	22716.54198419588	1.339878378318
0	28647	22720.468604722988	1.216810194686
0	28657	22723.5660236423	5.160050049251
0	28682	22759.60648599011	1.990012640117
0	28692	22762.25036635352	3.802552148349
0	28695	22763.385223252882	2.010029783142
0	28715	22769.308669934297	3.682436311206
0	28725	22776.517239507019	1.195864809211
0	28730	22796.29182585318	1.197784860246
0	28735	22812.436579087685	0.890315507073
0	28760	22829.177281141755	1.089276589826
0	28765	22830.407000453826	1.162149518542
0	28785	22841.335475020457	0.800747666042
0	28797	22844.385771769239	2.1015447026
0	28800	22845.449568802538	2.257959360488
0	28805	22854.021056836754	0.811849035416
0	28815	22872.944399990309	1.301190370158
0	28820	22875.609928225848	1.015590090305
0	28837	22883.330451037818	0.988288807217
0	28840	22884.184072176916	1.224693119548
0	28865	22905.995199705063	2.890226517145
0	28882	22914.932149830507	1.040289634373
0	28915	22940.704091196147	1.089572216291
0	28920	22942.216472708257	0.865028681047
0	28930	22948.358500098664	3.106718625525
0	28945	22960.270518966626	1.155950461328
0	28950	22973.573329104355	0.901956409123
0	28955	22977.603506135873	1.033702688385
0	28965	22993.765357086467	1.087105853856
0	28970	23007.189776109334	1.087277682126
0	28975	23008.615363791061	0.83815738149
0	28987	23012.115447407692	1.380867696818
0	29000	23020.577288668221	0.906570496969
0	29015	23057.649217499059	1.573201786876
0	29030	23061.869076270022	1.1851955764
0	29035	23067.946593856243	1.029115728661
0	29045	23071.596234871776	1.032431291832
0	29050	23084.153056161448	0.867858163267
0	29075	23090.545761569182	1.189423715416
0	29080	23098.751327433961	0.905385460053
0	29085	23123.302681387761	0.994059145637
0	29097	23127.513587396081	0.95160823992
0	29102	23128.332585305396	1.178466887518
0	29110	23136.152349101614	0.848856417369
0	29115	23142.954318558403	1.020989877544
0	29135	23155.084681758637	3.362626348678
0	29155	23183.341753111436	0.976893941313
0	29180	23201.121902874178	1.198510643747
0	29185	23207.05710717254	0.998178408016
0	29204	23212.876505470247	3.070476239175
0	29214	23215.081422151689	1.907057852733
0	29225	23218.543281404276	5.135203040372
0	29230	23220.366142714766	0.959025121201
0	29235	23222.576428889305	1.092759315763
0	29240	23224.904379255734	0.980395940784
0	29260	23270.612576876253	0.87251220094
0	29265	23272.162453524427	1.007123669703
0	29270	23273.921979434693	0.936699241307
0	29280	23292.880147139355	0.942506499868
0	29300	23310.781706869961	4.493826498494
0	29305	23313.771352967448	0.950806614198
0	29325	23320.234140882186	2.722346366814
0	29330	23324.643164980858	0.852018954512
0	29335	23325.864501787635	1.016213136539
0	29350	23348.71298850379	1.106629528478
0	29355	23353.159802963643	1.134780259896
0	29360	23358.359210910661	0.961308217887
0	29365	23359.621245450258	1.08833664041
0	29387	23384.017770405491	1.020052275652
0	29400	23398.390643031477	1.127387116011
0	29405	23405.387300962224	0.86716159666
0	29415	23428.129898477059	2.673545244954
0	29420	23432.651974449784	1.18564814236
0	29446	23440.192937561636	2.014054136791
0	29449	23441.0887586758	1.128674416461
0	29465	23445.959909254327	0.944510630891
0	29470	23454.457381747449	0.997503445204
0	29495	23493.969657356637	1.096906109899
0	29505	23501.777735370733	1.09866671795
0	29520	23508.774441997178	23.523595468613
0	29530	23514.782364077875	5.6101815709
0	29535	23522.80526317172	0.928200029209
0	29542	23531.589449545706	0.922698542755
0	29547	23532.42785578795	0.980833332434
0	29580	23559.970572891583	3.342008851906
0	29594	23562.443046953019	1.43098027925
0	29599	23563.367955281075	2.674652266596
0	29602	23564.316155625649	2.562359737527
0	29636	23579.532996403914	1.742702601311
0	29641	23580.419887489941	0.942221648865
0	29646	23581.405060826637	1.240725795868
0	29657	23584.513858377676	3.11094236875
0	29667	23590.472773974674	1.134688722715
0	29690	23617.858175054474	1.164355713222
0	29700	23621.761258708977	0.862360862084
0	29715	23645.243887373107	1.1711376247
0	29739	23652.979104771467	4.802970219885
0	29742	23653.78014303744	1.734647430551
0	29745	23654.702038047464	1.908218302767
0	29750	23663.846112233273	0.871706509404
0	29760	23667.395861273141	2.709517803953
0	29772	23674.498957952072	4.130025089055
0	29775	23675.41876461148	1.901330896905
0	29780	23685.842761459459	0.985088005383
0	29785	23693.066014781286	1.10617666319
0	29794	23700.141890492452	0.875988905318
0	29797	23701.115359895931	1.592316259823
0	29800	23702.102492948038	2.517458809688
0	29807	23706.457427327795	0.809587649908
0	29815	23714.616004584285	0.848679291923
0	29822	23717.095318626347	1.059022695664
0	29830	23720.136425440347	0.82002444528
0	29835	23724.945001799612	0.905531141907
0	29852	23728.968017408023	4.021379146811
0	29860	23734.428094118647	1.153245004173
0	29867	23749.469507694829	0.891039688699
0	29872	23750.418081172861	1.839166074654
0	29880	23762.647755237812	1.006009703688
0	29890	23767.190413027836	3.476252660591
0	29907	23776.81544758173	3.515909629158
0	29912	23777.93643525055	1.358745681034
0	29927	23786.808494349447	2.123053836931
0	29935	23789.779269206975	0.880679275841
0	29950	23803.035595530816	1.006388152298
0	29960	23810.744964217487	0.953894859739
0	29972	23830.358978271089	1.17408790933
0	29985	23837.975343432596	2.470868433826
0	29995	23843.076464550091	2.393303457081
0	30005	23856.294392841464	0.994123162795
0	30029	23863.816748083655	4.030070310062
0	30040	23876.938691843136	0.989903232269
0	30055	23881.703591257136	2.615382191471
0	30065	23886.962805372395	1.108540593274
0	30085	23894.632769007673	1.035802546968
0	30095	23906.840215888952	1.087891022395
0	30100	23911.139398914855	1.097122333478
0	30110	23918.620632876338	1.073614510894
0	30127	23936.399940943902	1.485221583027
0	30142	23944.94149568506	1.014392123092
0	30155	23948.509077675992	0.93576695649
0	30165	23953.592524729375	3.079423415127
0	30170	23956.974450988454	1.081939024478
0	30180	23961.71243837155	1.146142578125
0	30185	23969.496349527981	1.147579204571
0	30190	23970.515021874191	0.86448896816
0	30202	23980.358989813824	1.188537581358
0	30210	23984.929958246644	1.172550857626
0	30222	23988.721877006639	1.594227567774
0	30225	23989.763944016222	1.488311368146
0	30242	24004.68205007603	0.970448558405
0	30252	24011.416751590578	1.164152474236
0	30260	24015.543936871781	0.890547891427
0	30265	24017.81102366216	0.888027727604
0	30270	24022.404008068656	1.176905743219
0	30292	24037.472570743374	1.002144211658
0	30302	24041.486714803663	1.092858696356
0	30307	24042.303576122553	1.815733387444
0	30315	24044.185411448547	1.173861584648
0	30325	24050.138321425567	1.13001794396
0	30330	24061.138197165901	1.039735541493
0	30335	24070.480110264501	0.960259317048
0	30340	24074.472134019315	1.12480620956
0	30345	24078.499244526956	1.052505816333
0	30365	24109.095062812382	0.856113546528
0	30370	24111.701166678645	1.173268744536
0	30375	24118.276336740948	1.079014676157
0	30390	24135.143710615963	1.196500576381
0	30402	24138.388750294005	0.969767766725
0	30422	24142.959748144966	2.171252738623
0	30432	24145.516508774732	5.555891745009
0	30451	24148.64564816858	15.781211758391
0	30454	24149.522470435121	3.660658549181
0	30475	24177.560530565222	1.890280296887
0	30490	24192.41512942733	2.814367740772
0	30505	24198.570367255315	1.187742039748
0	30512	24206.418610971108	0.973242390063
0	30515	24207.513745755855	1.169822704845
0	30520	24210.335482347149	1.010083784256
0	30540	24224.284654598891	2.882741303785
0	30550	24237.381296193315	4.114391652846
0	30560	24239.381657660456	1.912292909504
0	30565	24245.137707752752	1.113543976843
0	30572	24247.438231519168	1.019458013214
0	30577	24248.568186672894	1.427305197821
0	30580	24249.510006882647	1.427247229322
0	30605	24322.130588188129	1.58991574466
0	30612	24323.470302064695	4.415865924354
0	30615	24324.481963207458	1.89937357032
0	30625	24328.055728315102	0.955647857715
0	30637	24336.596881977482	10.659950423994
0	30640	24337.559508126335	1.749329306016
0	30650	24352.109941629614	1.165088464972
0	30655	24364.171469321587	1.12264409475
0	30670	24368.784030247356	0.999134143442
0	30680	24384.035344138243	0.977783698589
0	30687	24385.45794181923	0.946496516559
0	30690	24386.257978125257	0.840599994231
0	30695	24388.980333937016	1.103107205965
0	30707	24416.735722353914	1.07245893972
0	30742	24430.373025004107	1.303801654337
0	30745	24431.308669557988	1.675985185535
0	30752	24434.886724397699	0.82468161555
0	30755	24435.860155087682	0.979413111922
0	30770	24456.675848588051	1.293877539193
0	30777	24461.051954170969	0.937925686128
0	30780	24462.052747633402	1.936574918165
0	30785	24468.281965752396	1.060941785574
0	30807	24485.261826707421	4.050479983675
0	30817	24487.321441540031	0.809915993921
0	30825	24492.719539140263	0.937321028113
0	30850	24510.089290918921	4.462379349351
0	30855	24517.716466428589	0.822627868224
0	30862	24520.93558524473	0.874169783201
0	30865	24521.920471970256	1.528227229921
0	30875	24532.871155943771	0.952130353171
0	30892	24545.971619576752	0.848637041915
0	30895	24546.976914181445	1.427188837999
0	30900	24550.071652890528	1.155559971929
0	30905	24561.448316851073	1.110942059755
0	30910	24562.590791444568	0.914517810196
0	30917	24565.387249014419	1.192928516772
0	30920	24566.315308315199	1.808243006678
0	30925	24574.020488478917	1.031531418022
0	30930	24579.4218236563	0.93908727318
0	30940	24586.256110427042	2.663573423434
0	30947	24601.073287996904	1.018463475164
0	30964	24604.228004803948	3.698448659855
0	30967	24605.312829457477	1.857176135017
0	30975	24608.431883432031	4.389519618376
0	30980	24611.932918550714	0.939398422278
0	30997	24618.928005522393	1.000325120334
0	31007	24620.697317417521	1.312457430996
0	31015	24624.264701852543	8.295966258687
0	31020	24627.224675712639	1.103789230902
0	31027	24632.724600508574	1.036597386748
0	31030	24633.675361969459	1.573145389654
0	31052	24639.087434607002	4.298729049372
0	31060	24644.171838732136	1.16217414327
0	31070	24647.624636037373	3.030611674442
0	31085	24668.968527077219	1.5980596283
0	31105	24683.956586227582	0.83977976134
0	31110	24697.553925584612	1.152735484391
0	31135	24726.005377389746	2.126046818969
0	31147	24735.093495337762	1.113881477155
0	31155	24739.295422178126	0.841914299503
0	31160	24744.397758573731	1.075399020407
0	31214	24769.762941836324	1.54988141417
0	31217	24770.578111445103	1.817029054344
0	31232	24775.512921586531	7.429277811991
0	31235	24776.661703117835	1.489885935609
0	31240	24780.032569092131	1.095412950311
0	31255	24792.42518495939	1.066574936733
0	31292	24818.718181189766	1.109371408913
0	31310	24855.815796878149	1.12140397355
0	31315	24859.407503883943	1.094061255455
0	31320	24876.737795024	1.102152214013
0	31335	24885.410908415706	0.943623108696
0	31367	24898.018205921596	0.855091693997
0	31395	24904.754008227048	2.200509826724
0	31400	24905.908775597497	1.002368040103
0	31405	24908.693200580168	0.890758634172
0	31410	24915.818694166068	0.962605067901
0	31422	24922.372640121145	0.925933846645
0	31425	24923.546546347136	2.067585411834
0	31432	24932.590743002592	1.191023283824
0	31435	24933.699532582349	1.621631601246
0	31450	24939.673499887244	1.71166078344
0	31457	24947.078141106065	1.05085736867
0	31497	24999.400590231639	0.901835954469
0	31500	25000.286137559355	1.194194313177
0	31510	25003.118727323745	0.812788543385
0	31527	25025.793115020089	1.178798291553
0	31530	25026.797690938704	5.883442868616
0	31535	25028.302769887727	1.19872520538
0	31540	25039.936116443516	0.936935705412
0	31547	25041.658479488778	0.863133511413
0	31550	25042.777489404983	1.23093692219
0	31555	25046.428154404922	1.147154381778
0	31565	25049.397415180565	1.942124175182
0	31580	25065.105005168375	0.826209356915
0	31585	25070.923623533839	1.178049583454
0	31590	25074.610501409378	0.846902432013
0	31595	25080.078224756993	0.839285764005
0	31600	25083.41356314026	1.143183523323
0	31610	25092.175875385046	0.969052402023
0	31617	25095.391694697893	0.957961647958
0	31630	25101.312654330707	2.182581341991
0	31635	25103.220079699788	1.093212967925
0	31657	25120.837698430981	1.118582472578
0	31660	25121.839305624406	1.99265220188
0	31675	25125.991639355822	1.104366261216
0	31690	25129.441061327084	3.309814138559
0	31695	25135.371031972895	1.171590729337
0	31700	25136.473648365811	0.989875766262
0	31737	25147.415787087892	1.186163987062
0	31740	25148.556956428987	5.015182230427
0	31750	25163.431371022349	0.863144913316
0	31755	25177.611417927027	1.172974971123
0	31767	25186.557944771527	3.49674025461
0	31770	25187.635187409977	1.701197357529
0	31777	25195.760251195064	1.010417166632
0	31785	25198.144291018303	2.704825172382
0	31795	25204.11867229578	2.090376678385
0	31805	25206.444690347044	0.894965832122
0	31822	25216.77251489434	0.989879858959
0	31835	25222.439462156258	0.922489244118
0	31840	25225.681387232248	1.04911256386
0	31845	25235.952590481832	0.819470974058
0	31850	25237.871489835219	0.846827271767
0	31860	25241.88261950294	0.901670049317
0	31865	25246.171256433298	1.03425745666
0	31890	25259.075963075775	0.808902673516
0	31897	25260.310468297791	1.062623941712
0	31900	25261.221488963221	1.299799421851
0	31905	25264.407945546508	1.008451340348
0	31910	25268.289307002386	1.036525139771
0	31915	25282.673359067009	1.18559303768
0	31922	25285.542838592122	1.129580095224
[...]
7	22650	17760.716702588057	1
7	22651	17760.874083855121	0
7	22735	17804.240306851394	1
7	22736	17804.261953741827	0
7	22792	17836.25953417883	1
7	22796	17837.572089635979	0
7	22805	17838.642601729631	1
7	22806	17839.329678475138	0
7	22905	17913.013207676639	1
7	22906	17913.350150356104	0
7	22970	17959.348997052244	1
7	22986	17962.907455418828	0
7	22990	17963.727504078039	1
7	22991	17963.816931723814	0
7	23085	18047.937516070212	1
7	23086	18048.591118045302	0
7	23135	18091.277295606771	1
7	23136	18091.535928050294	0
7	23140	18091.713773820006	1
7	23141	18092.486436904553	0
7	23145	18092.708222791292	1
7	23146	18093.494801649131	0
7	23205	18158.419411855542	1
7	23206	18159.515832906883	0
7	23210	18159.987290241245	1
7	23211	18160.365030395441	0
7	23240	18184.126033946384	1
7	23241	18184.939182601325	0
7	23305	18233.826529419753	1
7	23306	18234.615934795511	0
7	23395	18323.390060116675	1
7	23396	18323.655365155695	0
7	23570	18511.166932245757	1
7	23576	18512.461485922161	0
7	23740	18743.824208653853	1
7	23741	18744.634387637064	0
7	23745	18744.942547422524	1
7	23756	18747.773415159661	0
7	23825	18840.244761649333	1
7	23826	18841.198378793199	0
7	23840	18858.807311041595	1
7	23841	18859.411500340756	0
7	23885	18877.296443932168	1
7	23886	18878.09714194752	0
7	23895	18879.93902965744	1
7	23896	18880.563811253683	0
7	23995	18950.48464155364	1
7	23996	18950.508268832492	0
7	24110	19018.744650976222	1
7	24112	19019.043063264132	2
7	24113	19019.383418462036	1
7	24116	19020.203776627296	0
7	24135	19034.374594817341	1
7	24136	19034.753905637615	0
7	24195	19066.08649314914	1
7	24196	19066.552943199463	0
7	24300	19188.1644743999	1
7	24301	19188.608948810024	0
7	24305	19189.26316234126	1
7	24306	19189.636562057862	0
7	24380	19263.932310060235	1
7	24381	19264.324468243426	0
7	24395	19282.66334867519	1
7	24396	19282.910555833698	0
7	24417	19318.044620472761	1
7	24441	19322.569955943801	0
7	24485	19345.259626910452	1
7	24486	19346.337743533911	0
7	24520	19382.358066319089	1
7	24521	19382.432396353973	0
7	24525	19382.769825273991	1
7	24526	19383.554719160782	0
7	24542	19392.114995301617	1
7	24551	19394.359188638719	0
7	24555	19394.605885333272	1
7	24556	19395.322435097488	0
7	24580	19406.762510242626	1
7	24581	19407.158053909648	0
7	24600	19429.142271801505	1
7	24601	19429.751793816723	0
7	24620	19438.550227115731	1
7	24621	19438.944149721329	0
7	24630	19440.211405655014	1
7	24636	19441.766886455946	0
7	24715	19521.990196885356	1
7	24716	19522.526555018875	0
7	24750	19551.17016806416	1
7	24751	19551.581788097609	0
7	24760	19554.113025209673	1
7	24761	19554.629291881429	0
7	24770	19556.033879759954	1
7	24781	19558.737973921087	0
7	24920	19665.348570978018	1
7	24921	19665.596747123199	0
7	24940	19678.368548412055	1
7	24941	19679.367562385509	0
7	24990	19725.553283148779	1
7	24991	19726.278734041136	0
7	25007	19729.607707462674	1
7	25011	19731.183465973318	0
7	25045	19770.367250405789	1
7	25046	19770.464909966908	0
7	25090	19805.917382114809	1
7	25092	19806.519517507995	2
7	25093	19806.806003190843	1
7	25096	19807.779830321563	0
7	25155	19855.845369461848	1
7	25156	19855.911699897335	0
7	25160	19856.111416761678	1
7	25164	19856.588648296803	2
7	25168	19857.865811802451	1
7	25171	19858.679837971278	0
7	25237	19885.668088575522	1
7	25241	19887.120865234443	0
7	25340	20031.92492411968	1
7	25341	20032.267970824785	0
7	25400	20084.440909909215	1
7	25401	20085.256731815831	0
7	25520	20189.078196296166	1
7	25526	20190.900699579339	0
7	25575	20224.484153845724	1
7	25576	20225.330732326296	0
7	25580	20225.820688577285	1
7	25581	20226.322317376819	0
7	25615	20246.399271286739	1
7	25616	20247.46759396847	0
7	25640	20253.567997619187	1
7	25641	20254.446332576109	0
7	25655	20258.170408011283	1
7	25656	20258.376348776488	0
7	25690	20282.775672581771	1
7	25691	20283.245323044267	0
7	26000	20564.893271877213	1
7	26001	20564.967404116803	0
7	26012	20566.243438081045	1
7	26016	20568.243078376093	0
7	26055	20602.499404961184	1
7	26056	20603.211017976043	0
7	26255	20752.09497433386	1
7	26256	20752.13686344521	0
7	26360	20844.694203762973	1
7	26361	20844.9064210829	0
7	26392	20865.000154481827	1
7	26397	20865.626387229581	2
7	26408	20868.316669613052	1
7	26411	20869.398091572452	0
7	26465	20927.81984232854	1
7	26466	20928.810062713897	0
7	26535	20987.590145707509	1
7	26536	20988.401602354396	0
7	26550	20999.160820980222	1
7	26551	21000.104074455595	0
7	26600	21047.015501516258	1
7	26601	21048.098248872184	0
7	26610	21049.223265661898	1
7	26611	21050.141041832533	0
7	26615	21050.624700519439	1
7	26621	21052.092347074602	0
7	26685	21076.940387737198	1
7	26686	21077.484974430969	0
7	26715	21087.380837047615	1
7	26716	21087.563457725228	0
7	26750	21119.219703028805	1
7	26751	21119.410478284862	0
7	26792	21160.94635865162	1
7	26796	21162.051364160509	0
7	26845	21199.244452311745	1
7	26846	21200.053986068087	0
7	26855	21212.602266588586	1
7	26856	21213.478884257809	0
7	26865	21215.176591668481	1
7	26866	21215.708591065988	0
7	26875	21217.105993811157	1
7	26876	21217.742840613205	0
7	26930	21271.263317572131	1
7	26931	21272.164599145634	0
7	26970	21320.442821621446	1
7	26971	21320.663005335718	0
7	27035	21363.257444052003	1
7	27036	21363.684832416395	0
7	27055	21384.818499801983	1
7	27056	21385.255824872893	0
7	27065	21387.404138763489	1
7	27066	21387.674853614567	0
7	27110	21440.31054048844	1
7	27111	21441.39502066274	0
7	27115	21442.411271402731	1
7	27116	21442.480578818385	0
7	27200	21494.149656574434	1
7	27201	21494.715456361357	0
7	27285	21527.302427666983	1
7	27286	21527.493536845042	0
7	27305	21534.221405179055	1
7	27306	21534.511589306595	0
7	27395	21662.483588494351	1
7	27396	21663.55905737923	0
7	27465	21762.081154158199	1
7	27466	21762.303843956728	0
7	27615	21890.178630735538	1
7	27616	21891.202241326499	0
7	27670	21935.294422697279	1
7	27672	21935.679743916239	2
7	27673	21936.204798539485	1
7	27677	21936.502358524058	2
7	27678	21937.127847049608	1
7	27681	21938.007961786668	0
7	27710	21947.38885172291	1
7	27711	21947.711682550268	0
7	27735	21955.561134706079	1
7	27741	21957.20927328555	0
7	27755	21959.898672848657	1
7	27756	21960.897583029103	0
7	27830	22007.077899426026	1
7	27831	22007.815213188258	0
7	27875	22063.440574611188	1
7	27876	22063.681215862681	0
7	27915	22080.943725816682	1
7	27916	22080.96121337451	0
7	28005	22154.893031233781	1
7	28006	22155.608852684505	0
7	28022	22162.02541201553	1
7	28026	22163.053378154078	0
7	28035	22173.235469996045	1
7	28036	22173.71098800015	0
7	28050	22180.707325027935	1
7	28051	22181.325159528696	0
7	28055	22181.520300704416	1
7	28057	22181.737176186784	2
7	28058	22182.16366824278	1
7	28061	22183.215686372792	0
7	28070	22184.810578082301	1
7	28071	22185.212253177011	0
7	28075	22185.966370240521	1
7	28076	22186.038689146036	0
7	28125	22241.37457072443	1
7	28131	22243.607696814683	0
7	28185	22279.836111024587	1
7	28186	22279.940284637022	0
7	28220	22301.513392653185	1
7	28221	22302.067616343538	0
7	28415	22509.438709294256	1
7	28416	22510.027203495251	0
7	28465	22560.689645461479	1
7	28466	22561.512637523551	0
7	28490	22569.129232346808	1
7	28491	22569.557569787681	0
7	28550	22639.745563154439	1
7	28551	22640.31417594721	0
7	28555	22640.924861084174	1
7	28556	22641.158519566352	0
7	28560	22641.164383585937	1
7	28561	22642.30574807852	0
7	28570	22644.60185850445	1
7	28571	22644.675870643936	0
7	28575	22645.166990409228	1
7	28576	22645.638990232449	0
7	28655	22723.489801101857	1
7	28656	22723.5660236423	0
7	28705	22766.49442419808	1
7	28706	22767.390045900704	0
7	28770	22837.017626900251	1
7	28771	22837.019980831673	0
7	28880	22914.48508625808	1
7	28881	22914.932149830507	0
7	28980	23010.596205161732	1
7	28986	23012.115447407692	0
7	29055	23084.948282894855	1
7	29056	23085.155254590089	0
7	29060	23086.201366047494	1
7	29061	23086.224241896296	0
7	29065	23086.75329314794	1
7	29066	23087.330357943239	0
7	29100	23127.779724136157	1
7	29101	23128.332585305396	0
7	29170	23196.747009321849	1
7	29171	23197.09110961346	0
7	29190	23210.153787371109	1
7	29191	23210.675913160731	0
7	29197	23211.201566612389	1
7	29202	23212.859907570812	2
7	29203	23212.876505470247	1
7	29216	23216.043498135515	0
7	29310	23315.680200766379	1
7	29311	23315.962436940401	0
7	29385	23383.695401166111	1
7	29386	23384.017770405491	0
7	29390	23384.170568661111	1
7	29391	23384.88244258231	0
7	29437	23438.244799256323	1
7	29444	23440.016423605438	2
7	29448	23441.0887586758	1
7	29452	23441.436494513765	2
7	29453	23441.928391405427	1
7	29456	23443.061951141478	0
7	29545	23531.746720229893	1
7	29546	23532.42785578795	0
7	29560	23543.756011601332	1
7	29561	23544.509406871824	0
7	29597	23562.611144183353	1
7	29601	23564.316155625649	0
7	29627	23578.259179951676	1
7	29632	23579.169876776362	2
7	29648	23582.570707260281	1
7	29656	23584.513858377676	0
7	29665	23589.973840163839	1
7	29666	23590.472773974674	0
7	29720	23646.86060650364	1
7	29721	23647.402314197982	0
7	29805	23706.435555166666	1
7	29806	23706.457427327795	0
7	29820	23716.220812861669	1
7	29821	23717.095318626347	0
7	29850	23728.683234598896	1
7	29851	23728.968017408023	0
7	29870	23749.957654491173	1
7	29871	23750.418081172861	0
7	29910	23777.244880650913	1
7	29911	23777.93643525055	0
7	29925	23786.451037931746	1
7	29926	23786.808494349447	0
7	29970	23829.718909191214	1
7	29971	23830.358978271089	0
7	30015	23861.147832657212	1
7	30017	23861.880019609958	2
7	30018	23861.997832502325	1
7	30027	23863.11740468451	2
7	30028	23863.816748083655	1
7	30031	23864.877353547134	0
7	30075	23892.894050985629	1
7	30076	23892.90198845637	0
7	30125	23935.422398082804	1
7	30126	23936.399940943902	0
7	30140	23943.950583521826	1
7	30141	23944.94149568506	0
7	30145	23945.517807180229	1
7	30146	23946.099334925753	0
7	30200	23980.112108964625	1
7	30201	23980.358989813824	0
7	30240	24003.885398961873	1
7	30241	24004.68205007603	0
7	30250	24011.134366448281	1
7	30251	24011.416751590578	0
7	30287	24036.521822606998	1
7	30291	24037.472570743374	0
7	30305	24041.524445892949	1
7	30306	24042.303576122553	0
7	30430	24144.928474456365	1
7	30431	24145.516508774732	0
7	30437	24146.145707163358	1
7	30444	24146.953314285535	2
7	30453	24149.522470435121	1
7	30456	24150.336692169675	0
7	30495	24193.044050491926	1
7	30496	24193.813780636837	0
7	30705	24416.684200182968	1
7	30706	24416.735722353914	0
7	30730	24428.21560716616	1
7	30731	24428.437804337039	0
7	30805	24484.467028670091	1
7	30806	24485.261826707421	0
7	30815	24486.549279818515	1
7	30816	24487.321441540031	0
7	30950	24601.119209672673	1
7	30951	24602.055722915635	0
7	31040	24636.74377575162	1
7	31041	24637.006375340096	0
7	31050	24637.969654569579	1
7	31051	24639.087434607002	0
7	31095	24677.319537643509	1
7	31096	24677.960686305917	0
7	31120	24709.609230257269	1
7	31121	24710.553110475781	0
7	31145	24734.933874579999	1
7	31146	24735.093495337762	0
7	31170	24757.845950414584	1
7	31171	24758.608566638417	0
7	31190	24763.969514038763	1
7	31191	24764.247054140973	0
7	31220	24771.080192571251	1
7	31221	24771.647954254728	0
7	31280	24813.358603350779	1
7	31281	24814.0627985449	0
7	31290	24818.111380756486	1
7	31291	24818.718181189766	0
7	31295	24818.813214437591	1
7	31296	24819.702890017779	0
7	31300	24819.883575699382	1
7	31301	24820.718523854261	0
7	31340	24890.674666810906	1
7	31342	24890.944607392314	2
7	31343	24891.084223460932	1
7	31346	24891.915415633251	0
7	31355	24893.696969565008	1
7	31356	24894.321378282392	0
7	31365	24897.833932119498	1
7	31366	24898.018205921596	0
7	31375	24900.012149711541	1
7	31376	24900.390286424769	0
7	31380	24900.96434772649	1
7	31381	24901.246603206931	0
7	31440	24936.646724245703	1
7	31441	24937.530046485637	0
7	31455	24946.722124762664	1
7	31456	24947.078141106065	0
7	31480	24985.278413601628	1
7	31481	24986.051056107778	0
7	31615	25094.55055002363	1
7	31616	25095.391694697893	0
7	31665	25123.535892661308	1
7	31666	25123.850050231321	0
7	31680	25127.131369787236	1
7	31681	25127.238082291653	0
7	31715	25142.601205682143	1
7	31716	25143.379133377071	0
7	31820	25215.889743735303	1
7	31821	25216.77251489434	0
7	31880	25254.13017740081	1
7	31881	25254.808721887322	0
7	31920	25284.732468936776	1
7	31921	25285.542838592122	0
7	31945	25301.124236754783	1
7	31946	25301.843973954211	0
7	31970	25320.708804777647	1
7	31971	25321.662306586105	0
7	32012	25347.078788111071	1
7	32016	25348.469146835421	0
7	32262	25536.807763574158	1
7	32281	25541.514379510515	0
7	32315	25572.498083214624	1
7	32316	25573.01656167588	0
7	32332	25577.160674244385	1
7	32336	25579.13042772746	0
7	32440	25659.157704585871	1
7	32441	25659.785026695588	0
7	32450	25662.668782629828	1
7	32451	25662.84481170512	0
7	32480	25691.456095341693	1
7	32481	25691.822169439788	0
7	32615	25815.889898702475	1
7	32616	25815.998551203182	0
7	32670	25849.442295349344	1
7	32671	25849.634095130479	0
7	32720	25905.904328518597	1
7	32721	25906.098615553539	0
7	32730	25908.855043878828	1
7	32731	25909.656198672898	0
7	32745	25912.909352048621	1
7	32746	25913.47614734286	0
7	32765	25919.206274961295	1
7	32786	25924.14133711898	0
7	32920	26056.606786013627	1
7	32921	26056.979168645718	0
7	32930	26068.734264632641	1
7	32942	26070.821094866802	2
7	32943	26071.556403784601	1
7	32946	26072.69401150286	0
7	32950	26073.026767419127	1
7	32951	26073.798638791272	0
7	32960	26075.161318163194	1
7	32961	26076.07587170541	0
7	33000	26107.675081151773	1
7	33006	26109.345104369697	0
7	33075	26173.769779077066	1
7	33076	26174.368105895738	0
7	33140	26213.76949914393	1
7	33141	26214.426491271628	0
7	33145	26215.445390529402	1
7	33146	26215.59741930926	0
7	33210	26259.834594406043	1
7	33211	26260.616107949848	0
7	33265	26301.263871564956	1
7	33266	26302.310206280022	0
7	33305	26327.5882832984	1
7	33306	26327.872283017536	0
7	33330	26336.709819656442	1
7	33341	26338.864454719202	0
7	33410	26421.362357989412	1
7	33411	26421.712575873823	0
7	33545	26536.63276564599	1
7	33546	26537.414307594712	0
7	33580	26577.135576319955	1
7	33581	26577.945094895368	0
7	33630	26629.793775348652	1
7	33631	26630.379941906938	0
7	33695	26693.026454134238	1
7	33696	26693.189085949381	0
7	33735	26745.313111375717	1
7	33736	26745.731574916066	0
7	33960	26930.48132148158	1
7	33961	26931.215816012587	0
7	33965	26931.622780024183	1
7	33966	26932.376973208416	0
7	33995	26946.02680232074	1
7	33996	26946.132967169142	0
7	34005	26947.516665259834	1
7	34006	26948.241789896615	0
7	34010	26948.298338234067	1
7	34012	26949.127019135863	2
7	34013	26949.141987254765	1
7	34016	26950.082816205654	0
7	34040	26972.166170426396	1
7	34041	26972.707969669376	0
7	34145	27031.96160773273	1
7	34146	27032.275547796487	0
7	34350	27245.865937331047	1
7	34351	27246.500909377618	0
7	34370	27261.429364542044	1
7	34371	27262.116151098537	0
7	34415	27280.600310638841	1
7	34421	27282.324386514828	0
7	34435	27289.437391975912	1
7	34436	27290.046069715594	0
7	34492	27314.308976838854	1
7	34506	27317.6081414059	0
7	34570	27372.466277864576	1
7	34571	27373.036436159502	0
7	34647	27437.290103083061	1
7	34651	27438.422506954482	0
7	34860	27576.919358558029	1
7	34861	27577.421523427961	0
7	34960	27659.468400205284	1
7	34961	27660.287709048614	0
7	34970	27663.224924137365	1
7	34971	27664.319376573139	0
7	35015	27692.842712914102	1
7	35016	27693.768537802126	0
7	35045	27713.40364493386	1
7	35046	27713.920419575331	0
7	35050	27713.999151431167	1
7	35051	27714.742016552259	0
7	35120	27776.198215485779	1
7	35121	27776.843360701892	0
7	35130	27779.51131748904	1
7	35131	27780.037232421299	0
7	35190	27852.030215715273	1
7	35191	27852.619918301911	0
7	35255	27947.567021031079	1
7	35261	27948.867411305499	0
7	35355	28026.219608291729	1
7	35356	28026.405600451592	0
7	35390	28053.589541164373	1
7	35392	28053.628830577709	2
7	35393	28054.366777145703	1
7	35396	28055.463856984515	0
7	35405	28057.175946745945	1
7	35406	28057.798424257733	0
7	35425	28075.642986736429	1
7	35426	28075.82307452009	0
7	35495	28152.784010481839	1
7	35496	28153.316396007421	0
7	35672	28286.779349644734	1
7	35676	28288.047330583785	0
7	35725	28375.448479817074	1
7	35726	28375.811560194876	0
7	35735	28377.110437885298	1
7	35736	28377.876289595973	0
7	35740	28377.906888726866	1
7	35741	28379.044670141518	0
7	35875	28486.254637903159	1
7	35876	28486.552734688227	0
7	35890	28513.521095432611	1
7	35891	28513.628799601139	0
7	36085	28704.634683451722	1
7	36086	28705.074072404986	0
7	36090	28705.194312339332	1
7	36091	28706.04962390702	0
7	36095	28706.239381611523	1
7	36096	28707.205960083695	0
7	36135	28720.398981528636	1
7	36136	28720.613280434919	0
7	36185	28765.124279479216	1
7	36186	28765.540228384882	0
7	36195	28766.558898916534	1
7	36197	28767.325363254996	2
7	36198	28767.464481206014	1
7	36202	28767.866193355983	2
7	36203	28768.317246438618	1
7	36206	28769.241216637342	0
7	36225	28774.692181134998	1
7	36227	28774.855951666841	2
7	36228	28775.628079070642	1
7	36236	28777.471574836808	0
7	36285	28811.706847068167	1
7	36286	28811.870554117678	0
7	36290	28812.53537479241	1
7	36291	28812.877874511393	0
7	36337	28854.925566590245	1
7	36342	28855.416345028437	2
7	36343	28856.10231559333	1
7	36346	28857.119687139435	0
7	36397	28898.783059649203	1
7	36416	28902.56013936533	0
7	36600	29041.997292284029	1
7	36601	29042.035555905134	0
7	36680	29094.414510707544	1
7	36681	29094.482289639537	0
7	36870	29285.283658622286	1
7	36871	29285.763045776821	0
7	36930	29322.885260233237	1
7	36931	29323.094950020278	0
7	37060	29391.978697384754	1
7	37061	29392.031531669624	0
7	37105	29412.530312994072	1
7	37107	29412.989573370612	2
7	37108	29413.032855660826	1
7	37111	29413.885144870155	0
7	37135	29439.206045128669	1
7	37136	29439.262191266858	0
7	37150	29446.486958385025	1
7	37161	29449.474703551983	0
7	37205	29497.471636664073	1
7	37206	29497.639500351041	0
7	37272	29538.228168003619	1
7	37276	29539.283803612435	0
7	37345	29609.265605065929	1
7	37346	29609.840674212148	0
7	37365	29615.792108343646	1
7	37366	29616.108635150598	0
7	37395	29636.711531819432	1
7	37396	29636.975801496902	0
7	37475	29675.234958026888	1
7	37476	29675.755644309649	0
7	37480	29675.971907951098	1
7	37481	29676.660639869271	0
7	37500	29684.001800009467	1
7	37501	29684.680037262116	0
7	37515	29694.740174336009	1
7	37516	29695.190202857119	0
7	37570	29718.853845526165	1
7	37571	29719.596170424521	0
7	37645	29777.304786111946	1
7	37646	29777.81016167153	0
7	37650	29778.381847577474	1
7	37656	29780.153821361553	0
7	37680	29794.967568794636	1
7	37681	29794.983398127815	0
7	37727	29826.909467642268	1
7	37731	29828.559631537112	0
7	37740	29834.707324443484	1
7	37741	29834.956239344729	0
7	37890	29935.946094210467	1
7	37891	29936.15887554602	0
8	15820	12552.081484474146	1
8	15821	12552.791612190992	0
8	17502	13853.938442795715	1
8	17504	13854.050454037396	0
8	18490	14601.447343355194	1
8	18491	14601.931090163328	0
8	18765	14831.156697350402	1
8	18766	14831.610323889844	0
8	18770	14832.669343079544	1
8	18771	14833.861492227495	0
8	18775	14834.759204701532	1
8	18776	14836.370908162279	0
8	19332	15194.724629493686	1
8	19336	15195.295724504491	0
8	22922	17927.663866971816	1
8	22929	17930.6683749598	0
8	23015	17983.548123006067	1
8	23016	17983.850235946559	0
8	24487	19346.337743533911	1
8	24489	19346.585100121616	0
8	25617	20247.46759396847	1
8	25619	20248.261257404554	0
8	27230	21505.165015040022	1
8	27234	21505.452426502977	0
8	28372	22477.882480118648	1
8	28374	22478.136226812637	0
8	30425	24144.040800443624	1
8	30426	24144.35714664887	0
8	32410	25644.674004514743	1
8	32411	25645.015683809867	0
8	34855	27575.201840118936	1
8	34856	27576.322229038549	0
9	22655	17761.705124776835	1
9	22656	17764.082869580818	0
9	28080	22186.882459613898	1
9	28081	22187.618936237001	0
9	28565	22643.13992295192	1
9	28566	22643.650659996651	0
9	29620	23577.481940048566	1
9	29621	23577.533891521509	0
9	31185	24761.909525654065	1
9	31186	24763.31238889094	0
9	31350	24892.756282817633	1
9	31354	24893.696969565008	0
9	31357	24894.321378282392	1
9	31364	24897.833932119498	0
9	35385	28050.840492172591	1
9	35386	28053.291996369538	0
9	36192	28766.396363475136	1
9	36196	28767.325363254996	0

