version 2
run Second_exit_8-19-20191023-00:20:12-5242
attr configname Second_exit_8
attr datetime 20191023-00:20:12
attr experiment Second_exit_8
attr inifile omnetpp.ini
attr iterationvars ""
attr iterationvarsf ""
attr measurement ""
attr network ResponseTimeNetwork
attr processid 5242
attr repetition 19
attr replication #19
attr resultdir results
attr runnumber 19
attr seedset 19
param **.Source.interArrivalTime exponential(5s)
param **.jobPriority bernoulli(0.6)
param **.PS.serviceTimeU1 "uniform(0.8s, 1.2s)"
param **.PS.serviceTimeU2 "uniform(1.8s, 2.2s)"
param **.SS1.serviceTime exponential(1s)
param **.SS2.serviceTime exponential(1.2s)
param **.PS.exitProbability bernoulli(0.8)

vector 0 ResponseTimeNetwork.SS1 queueLength:vector ETV
attr interpolationmode sample-hold
attr title "queue length, vector"
vector 1 ResponseTimeNetwork.SS2 queueLength:vector ETV
attr interpolationmode sample-hold
attr title "queue length, vector"
vector 2 ResponseTimeNetwork.QueueU1 queueLength:vector ETV
attr interpolationmode sample-hold
attr title "queue length, vector"
vector 3 ResponseTimeNetwork.QueueU2 queueLength:vector ETV
attr interpolationmode sample-hold
attr title "queue length, vector"
vector 4 ResponseTimeNetwork.sink lifeTimeU1:vector ETV
attr interpolationmode none
attr title "lifetime of arrived jobs U1, vector"
attr unit s
vector 5 ResponseTimeNetwork.sink lifeTime:vector ETV
attr interpolationmode none
attr title "lifetime of arrived jobs, vector"
attr unit s
vector 6 ResponseTimeNetwork.sink lifeTimeU2:vector ETV
attr interpolationmode none
attr title "lifetime of arrived jobs U2, vector"
attr unit s
2	0	0	0
2	10	3.327822661473	1
2	11	3.841091680127	0
2	20	4.782213856875	1
2	25	5.779814587786	0
2	34	7.704740712771	1
2	35	7.937644496626	0
2	44	9.329993041237	1
2	45	10.024289150416	0
2	54	11.805300570046	1
2	55	12.125938518784	0
2	64	14.164179663304	1
2	65	14.313645647532	0
2	77	16.574725886617	1
2	78	17.593990779828	0
2	129	27.112117188604	1
2	130	27.300313796079	0
2	185	41.273334864496	1
2	186	42.258090776184	0
2	210	46.944601349149	1
2	213	47.814209906406	0
2	222	48.920307985439	1
2	224	49.414895199668	2
2	227	49.770493871088	1
2	231	50.009492585272	2
2	232	50.804002417086	1
2	237	51.715415636285	0
2	246	53.221189071562	1
2	247	53.897140522509	0
2	256	55.026106190846	1
2	259	55.938420121393	0
2	266	57.181666131014	1
2	267	57.898984523697	0
2	280	59.391920238601	1
2	281	59.875370619746	0
2	294	62.691051278561	1
2	297	63.50442770377	0
2	307	64.153397726046	1
2	308	64.674297563752	0
2	326	69.414686707461	1
2	328	69.841719326677	2
2	329	70.15772547044	1
2	338	71.210391689857	0
2	342	71.638538946792	1
2	343	72.220878545215	0
2	347	72.635388061359	1
2	348	73.094813545255	0
2	355	74.648230724876	1
2	356	74.825099526738	0
2	374	79.599591656934	1
2	375	80.076686989349	0
2	387	82.027216125815	1
2	388	82.744012790565	0
2	402	84.882610929299	1
2	405	85.434470611736	0
2	412	86.381041060582	1
2	413	87.444348352141	0
2	422	88.47277704363	1
2	423	89.436860892567	0
2	455	103.28544862991	1
2	456	103.902767853788	0
2	460	104.025406076317	1
2	461	104.944982510037	0
2	465	105.023341031733	1
2	467	105.119714861701	2
2	468	105.92072757294	1
2	472	106.018036315898	2
2	473	106.803678943008	1
2	477	107.281539272082	2
2	478	107.742430578802	1
2	481	108.736975536287	0
2	485	109.221413711786	1
2	486	109.56118616385	0
2	495	111.465132427814	1
2	500	112.264984670082	0
2	504	112.365832651013	1
2	506	112.969954034728	2
2	508	113.075352346256	3
2	509	113.269826141639	2
2	517	114.154998524139	3
2	518	114.178924425958	2
2	521	115.082778335536	1
2	524	116.231329208693	0
2	531	117.180642550507	1
2	532	118.162067636742	0
2	551	121.438783079099	1
2	554	121.865203744627	0
2	561	122.852554253199	1
2	564	123.584223131079	0
2	573	124.746029354257	1
2	574	125.398266300734	0
2	581	126.341187066317	1
2	582	127.148537851952	0
2	595	128.731697853225	1
2	597	128.942808466358	2
2	598	129.304671495024	1
2	603	130.153922841966	0
2	607	131.00068568543	1
2	610	131.087289667863	0
2	616	131.342434475816	1
2	617	132.017541373789	0
2	621	132.993453086814	1
2	623	133.054808350666	2
2	624	133.074229129765	1
2	628	133.288180478562	2
2	629	133.930504429981	1
2	632	134.939584678307	0
2	636	135.082489221426	1
2	637	136.080682510871	0
2	644	137.171579691618	1
2	646	137.690221079273	2
2	647	138.00320337665	1
2	651	138.543183525436	2
2	654	139.004274956963	1
2	658	139.347046458989	2
2	659	140.04244100711	1
2	663	140.13942616589	2
2	664	141.026926925766	1
2	667	142.142237521323	0
2	674	144.060277318157	1
2	675	144.322861444937	0
2	691	146.954232902005	1
2	692	147.571993192365	0
2	696	148.52770551574	1
2	697	148.654259538916	0
2	701	148.905971867073	1
2	702	149.626176037346	0
2	706	149.73482334089	1
2	707	150.732904614867	0
2	719	153.630248891953	1
2	720	153.878209683658	0
2	729	154.990090398708	1
2	731	155.498091683324	2
2	732	155.99000379209	1
2	737	157.074052917851	0
2	741	157.139620374533	1
2	743	157.724397319406	2
2	744	158.250361258803	1
2	747	159.290862305729	0
2	751	159.882725440408	1
2	753	160.220343533471	2
2	754	160.367734034347	1
2	757	161.408437669265	0
2	764	162.226232921621	1
2	765	163.071685598126	0
2	769	163.220560055663	1
2	772	164.255568789492	0
2	779	165.52773330636	1
2	782	166.191386516846	0
2	789	167.206864950904	1
2	792	168.149985900509	0
2	796	168.450336242955	1
2	797	169.239699273079	0
2	801	169.502922997183	1
2	802	170.369036660332	0
2	806	170.604448732039	1
2	807	171.511369231891	0
2	814	172.827174984781	1
2	816	173.053626260834	2
2	817	173.270244845644	1
2	822	174.405016225752	0
2	826	174.526076824984	1
2	828	174.998880599107	2
2	829	175.53413529097	1
2	832	176.642951574725	0
2	836	176.829933565828	1
2	838	176.836033315908	2
2	839	177.534127491795	1
2	843	178.034651861239	2
2	844	178.429360419129	1
2	847	179.244833611687	0
2	851	179.825521646169	1
2	852	180.387980091469	0
2	856	180.767588760532	1
2	857	181.323218241324	0
2	861	181.3340801919	1
2	864	182.308890704987	0
2	873	184.055384891565	1
2	874	184.701613445943	0
2	878	184.982551952901	1
2	881	185.844379160637	0
2	885	186.258936262905	1
2	886	186.790819773907	0
2	908	190.807673576667	1
2	909	191.310825768942	0
2	913	191.527398936079	1
2	916	192.384418222299	0
2	920	193.108913158329	1
2	922	193.132439378511	2
2	923	193.261267873822	1
2	927	193.367939434001	2
2	928	194.321244808091	1
2	933	195.309085795926	0
2	942	196.505045491141	1
2	943	197.272069567805	0
2	950	198.583336186305	1
2	953	199.397978124851	0
2	965	201.720203324359	1
2	968	202.162297523198	0
2	984	204.304506821267	1
2	985	204.801735902754	0
2	998	208.886658788796	1
2	1000	209.03799157536	2
2	1001	209.142706178677	1
2	1006	210.329937156559	0
2	1010	210.474219401101	1
2	1011	211.162589212031	0
2	1068	222.145584811429	1
2	1069	222.834612103541	0
2	1201	251.062547432894	1
2	1202	251.691057896231	0
2	1212	253.808042057651	1
2	1216	254.481816214924	2
2	1217	254.711130595941	1
2	1224	255.877747246705	0
2	1231	256.963920328559	1
2	1233	257.464989491129	2
2	1234	257.767185794178	1
2	1239	258.654088956758	0
2	1243	259.73780880853	1
2	1245	259.785343378939	2
2	1246	259.849502548564	1
2	1249	260.905152259849	0
2	1253	261.483113094567	1
2	1255	261.595998303624	2
2	1256	262.058527751628	1
2	1260	262.221734918105	2
2	1263	263.185057649191	1
2	1267	263.930161931715	2
2	1268	264.216723147954	1
2	1272	264.324075383958	2
2	1273	265.080624617345	1
2	1277	265.690176780619	2
2	1278	266.208035284176	1
2	1282	266.820792730267	2
2	1283	267.110492299485	1
2	1286	267.912374069157	0
2	1300	270.404717416916	1
2	1302	270.799983141918	2
2	1303	270.990258891776	1
2	1307	271.356003711337	2
2	1310	271.953958875395	1
2	1315	272.978372893471	0
2	1319	273.338709228576	1
2	1320	274.155597191199	0
2	1324	274.731192524952	1
2	1325	275.054910561151	0
2	1332	276.94422300293	1
2	1333	277.142784669145	0
2	1340	278.425874077434	1
2	1343	278.856563198647	0
2	1350	280.347704306481	1
2	1351	280.886888779874	0
2	1360	282.270143606187	1
2	1361	282.837592275056	0
2	1384	288.421282926109	1
2	1385	288.578672580501	0
2	1396	290.118430180429	1
2	1400	290.652807353044	2
2	1402	290.727927399307	3
2	1403	290.77050840546	2
2	1406	291.710998296631	1
2	1411	292.897352363528	0
2	1415	293.576390238749	1
2	1416	293.882389899888	0
2	1420	294.607815929229	1
2	1422	294.798523748911	2
2	1423	294.831514489823	1
2	1427	295.301344218132	2
2	1428	295.744405402229	1
2	1432	296.31307124764	2
2	1433	296.607171315593	1
2	1436	297.545037435913	0
2	1440	298.103326067086	1
2	1441	298.591463275706	0
2	1445	298.93129102561	1
2	1447	299.714083412456	2
2	1448	299.719029095942	1
2	1452	300.660096449081	2
2	1453	300.825937599024	1
2	1457	300.894346121097	2
2	1458	301.701959859194	1
2	1462	302.198086283801	2
2	1463	302.517589700302	1
2	1466	303.59200906091	0
2	1470	303.712812114	1
2	1472	304.120457313947	2
2	1473	304.571199461898	1
2	1477	305.023500658485	2
2	1478	305.491053752961	1
2	1481	306.325803435395	0
2	1485	306.890967685884	1
2	1486	307.199794971465	0
2	1493	308.528673426008	1
2	1495	308.751586258818	2
2	1497	308.77621509149	3
2	1498	309.129001720703	2
2	1503	310.076509398396	1
2	1507	310.29694152034	2
2	1509	311.050051450323	3
2	1510	311.24390874122	2
2	1514	311.982212728763	3
2	1515	312.265350671659	2
2	1519	312.539930566166	3
2	1520	313.45173364029	2
2	1523	314.493956514622	1
2	1527	314.92970683112	2
2	1528	315.594462497334	1
2	1532	315.657895318602	2
2	1533	316.635933648597	1
2	1537	317.283046051636	2
2	1539	317.621203839086	3
2	1540	317.650540236745	2
2	1543	318.513925444603	1
2	1546	319.565726985026	0
2	1553	321.039786130042	1
2	1554	321.540422257397	0
2	1558	321.549473787367	1
2	1560	322.316710208353	2
2	1561	322.345212799392	1
2	1564	323.403159984562	0
2	1568	323.740956594142	1
2	1569	324.57742538423	0
2	1573	325.614370852141	1
2	1574	325.695742158952	0
2	1578	326.008420126556	1
2	1580	326.335717200114	2
2	1582	326.36333307037	3
2	1583	326.613376915815	2
2	1587	326.6661111476	3
2	1588	327.540082780166	2
2	1592	327.636302180805	3
2	1593	328.610616501315	2
2	1597	329.378956618086	3
2	1598	329.578130477095	2
2	1602	330.322415126272	3
2	1603	330.384440694643	2
2	1607	330.758411471376	3
2	1608	331.286419333691	2
2	1611	332.164138210273	1
2	1614	333.06223323642	0
2	1623	334.096896285093	1
2	1625	334.388477419549	2
2	1628	334.832002452283	1
2	1633	335.764645987457	0
2	1637	335.950962618295	1
2	1638	336.667223273019	0
2	1648	339.224524612533	1
2	1649	339.292279081779	0
2	1653	339.865571948885	1
2	1654	340.465724318276	0
2	1658	340.472425092713	1
2	1662	341.006696793793	2
2	1663	341.360819467704	1
2	1668	342.232313127152	0
2	1677	343.610783380482	1
2	1679	343.763691926145	2
2	1681	343.974785544038	3
2	1682	344.220649223111	2
2	1687	345.334685411292	1
2	1691	346.450237761903	2
2	1692	346.468632817442	1
2	1695	347.431929418711	0
2	1699	347.985330264445	1
2	1700	348.511116916021	0
2	1713	351.860408387222	1
2	1717	352.202975758464	2
2	1718	352.407888403429	1
2	1721	353.348482787969	0
2	1725	353.489292166208	1
2	1726	354.340703551272	0
2	1745	357.964961604863	1
2	1746	358.496368935505	0
2	1750	358.605946401019	1
2	1751	359.613336841004	0
2	1763	361.590010939662	1
2	1764	362.402559654029	0
2	1768	363.10874118252	1
2	1769	363.227936070492	0
2	1773	363.63444076348	1
2	1774	364.154992677072	0
2	1783	365.554113388754	1
2	1786	365.951258023443	0
2	1793	367.055572641419	1
2	1797	367.461086118003	2
2	1798	367.918215171607	1
2	1803	368.895015145918	0
2	1807	369.132872602552	1
2	1810	369.838595449725	0
2	1814	369.874119635305	1
2	1816	370.293156205325	2
2	1817	370.828414031757	1
2	1821	371.615944439679	2
2	1822	371.760333645238	1
2	1826	372.242664562376	2
2	1827	372.635141182771	1
2	1831	373.288097080948	2
2	1832	373.746894164464	1
2	1837	374.825416947144	0
2	1841	374.946853243746	1
2	1843	375.227656188051	2
2	1844	375.806061918742	1
2	1848	376.20447943765	2
2	1849	376.885073652199	1
2	1853	376.919413778138	2
2	1854	378.008732900104	1
2	1858	378.185568891232	2
2	1860	378.405528044328	3
2	1861	378.95707505372	2
2	1865	379.121228163066	3
2	1866	380.155912331479	2
2	1869	381.080934767692	1
2	1873	381.752608284427	2
2	1874	382.131091848376	1
2	1877	383.173273026931	0
2	1881	383.867581978613	1
2	1882	384.266037351067	0
2	1886	384.703099490219	1
2	1888	384.895819705734	2
2	1890	384.925701967917	3
2	1891	385.247507938172	2
2	1895	385.938100845218	3
2	1896	386.167652176495	2
2	1900	386.327519285737	3
2	1902	386.983717745913	4
2	1903	387.105064978718	3
2	1906	388.23546250778	2
2	1910	388.27653714604	3
2	1911	389.04152503655	2
2	1915	389.127747647251	3
2	1917	389.357828879982	4
2	1918	389.867122666712	3
2	1922	390.143636916116	4
2	1923	391.006840769562	3
2	1926	391.887575664266	2
2	1929	392.856607525318	1
2	1933	393.633101430896	2
2	1934	394.035813494946	1
2	1938	394.285241247	2
2	1939	395.073254524904	1
2	1943	396.192113189919	2
2	1944	396.230403072375	1
2	1948	396.290592734775	2
2	1950	396.730398580228	3
2	1951	397.191286329168	2
2	1955	397.934778380222	3
2	1956	398.10914513272	2
2	1959	399.282898286346	1
2	1962	400.156404559116	0
2	1966	400.550193129975	1
2	1967	401.329309990618	0
2	1987	405.771849587317	1
2	1990	406.41234246575	0
2	2007	410.534177986117	1
2	2008	410.590650570661	0
2	2021	411.913608814368	1
2	2022	412.620106648084	0
2	2036	415.005040760972	1
2	2038	415.322995218685	2
2	2039	415.612833561364	1
2	2042	416.513664007641	0
2	2046	417.671066863364	1
2	2047	417.695589617908	0
2	2070	423.377051087435	1
2	2071	423.83528543961	0
2	2092	427.297218950508	1
2	2093	427.719600779085	0
2	2100	428.973539616063	1
2	2103	429.716980249887	0
2	2112	431.068214231411	1
2	2113	431.722534542611	0
2	2154	441.66216690815	1
2	2157	442.226816184154	0
2	2161	442.228507006163	1
2	2164	443.053642543951	0
2	2168	443.463865823547	1
2	2171	444.001492577499	0
2	2175	444.739976534432	1
2	2176	444.936733452404	0
2	2188	446.956398916268	1
2	2192	447.415720527308	2
2	2193	447.850335793836	1
2	2197	448.97481739776	2
2	2198	449.022919842681	1
2	2202	449.034410602953	2
2	2203	450.192189339256	1
2	2206	451.010010629414	0
2	2210	451.487973417873	1
2	2211	452.066698865487	0
2	2215	452.668950348762	1
2	2216	453.237503170862	0
2	2220	453.593151755361	1
2	2221	454.321686832595	0
2	2234	458.206013247383	1
2	2235	458.560332325089	0
2	2241	458.841236002829	1
2	2242	459.692849692318	0
2	2249	461.013328216603	1
2	2252	461.764931737248	0
2	2256	462.223537372742	1
2	2258	462.551075339911	2
2	2259	462.706108412787	1
2	2263	463.490641664172	2
2	2264	463.774973882816	1
2	2268	463.806981805973	2
2	2270	464.218609315684	3
2	2271	464.81903800274	2
2	2275	465.787894468185	3
2	2276	465.877197266451	2
2	2281	466.882671173836	1
2	2284	467.99112793504	0
2	2288	468.034027814785	1
2	2290	468.09576458025	2
2	2291	469.059992825321	1
2	2295	469.103102850454	2
2	2298	469.957521802827	1
2	2301	470.802369856823	0
2	2308	472.175998586053	1
2	2310	472.833883585159	2
2	2311	472.971204440657	1
2	2314	473.895578413352	0
2	2318	474.021422886497	1
2	2321	474.761222868774	0
2	2325	475.107265783463	1
2	2327	475.319016223846	2
2	2328	475.626099380653	1
2	2331	476.519569371909	0
2	2335	477.029275294445	1
2	2337	477.408942129547	2
2	2338	477.615323584236	1
2	2342	477.762882771699	2
2	2343	478.789162820939	1
2	2349	478.859209822797	2
2	2350	479.915526391368	1
2	2353	481.068143137347	0
2	2357	481.251581541493	1
2	2359	481.631906919494	2
2	2360	482.065697330039	1
2	2364	482.587563048127	2
2	2366	482.942793773224	3
2	2367	483.263231797319	2
2	2370	484.19399231755	1
2	2374	484.229436509617	2
2	2375	485.381627515692	1
2	2378	486.360622243572	0
2	2382	486.587392576029	1
2	2383	487.455315093312	0
2	2387	488.154779293945	1
2	2388	488.573785386689	0
2	2392	489.094810156083	1
2	2393	489.606748115912	0
2	2397	490.038459449284	1
2	2398	490.790993840143	0
2	2402	491.498610135887	1
2	2403	491.944616166957	0
2	2407	492.876041665728	1
2	2408	493.013281721983	0
2	2412	494.068975489346	1
2	2413	494.13185196732	0
2	2417	494.439675166883	1
2	2420	495.306920636155	0
2	2424	495.732646652639	1
2	2425	496.405616260402	0
2	2432	497.385742755111	1
2	2433	498.165640435729	0
2	2457	504.097377108527	1
2	2458	504.600612561673	0
2	2470	506.617334267269	1
2	2471	507.586792925176	0
2	2482	508.579423227262	1
2	2487	509.657743400697	0
2	2494	511.128999340688	1
2	2497	511.823596061383	0
2	2506	512.679750091672	1
2	2507	513.568607766078	0
2	2516	515.237733785415	1
2	2519	515.71194016206	0
2	2529	517.70993154273	1
2	2530	518.476744770156	0
2	2534	518.634245190702	1
2	2535	519.376420637769	0
2	2548	520.780096530534	1
2	2549	521.227404408985	0
2	2558	522.902318220923	1
2	2559	523.037121009164	0
2	2571	525.194784031208	1
2	2575	525.360101918457	2
2	2577	525.595846265111	3
2	2578	526.051467940108	2
2	2581	527.116146716372	1
2	2586	528.001256409091	0
2	2590	528.222105696297	1
2	2591	528.834770535667	0
2	2600	530.018304204627	1
2	2602	530.054304200262	2
2	2604	530.278266771723	3
2	2605	530.708889628936	2
2	2608	531.526805791714	1
2	2614	532.128122700969	2
2	2615	532.488574976836	1
2	2619	532.679645796487	2
2	2620	533.302073044878	1
2	2623	534.125329865505	0
2	2630	535.717965850027	1
2	2631	535.989074996383	0
2	2643	538.373467640759	1
2	2644	539.196544510582	0
2	2653	540.83896924579	1
2	2655	540.889303099623	2
2	2656	541.276714587109	1
2	2660	541.666246922404	2
2	2661	542.230432643173	1
2	2666	543.180486889081	0
2	2676	545.948889893381	1
2	2677	545.950089760673	0
2	2683	546.277197723276	1
2	2685	546.385322080253	2
2	2686	546.95624920939	1
2	2690	547.139935597167	2
2	2693	548.021733273556	1
2	2697	548.547339103888	2
2	2698	548.822384443497	1
2	2701	549.811605183305	0
2	2708	552.037882174881	1
2	2709	552.055930901216	0
2	2716	553.263660752146	1
2	2720	553.82305138793	2
2	2721	553.902841437133	1
2	2725	553.942794665677	2
2	2728	555.097035229662	1
2	2733	556.263964682342	0
2	2740	558.056661219717	1
2	2742	558.13881281186	2
2	2743	558.182171413945	1
2	2748	559.146672517797	0
2	2752	559.310397397019	1
2	2754	559.62821085608	2
2	2755	560.190186917959	1
2	2759	560.510282006021	2
2	2760	561.285760109397	1
2	2764	561.407603624867	2
2	2765	562.396185944407	1
2	2768	563.497692769292	0
2	2780	565.924964907775	1
2	2781	566.485968955504	0
2	2790	567.548384952053	1
2	2791	568.405005586045	0
2	2800	569.865687315411	1
2	2803	570.644411210334	0
2	2820	573.922661918645	1
2	2821	574.509836425437	0
2	2859	580.531776001631	1
2	2862	581.109079557647	0
2	2869	582.519756573141	1
2	2870	583.189141681594	0
2	2881	584.465736688383	1
2	2882	585.391416677357	0
2	2888	585.906161104565	1
2	2889	586.501520535992	0
2	2896	587.621980232742	1
2	2897	588.440827668076	0
2	2945	598.389066537486	1
2	2950	599.265814632354	0
2	2964	601.772530846886	1
2	2967	602.042109569152	0
2	2977	604.257364368173	1
2	2978	604.798038233154	0
2	2985	606.852040132003	1
2	2986	606.95326378214	0
2	2999	608.434210533517	1
2	3002	609.215620669618	0
2	3011	610.344253638279	1
2	3013	611.339343119656	2
2	3014	611.44114339276	1
2	3019	612.366675744101	0
2	3026	613.739619353537	1
2	3028	614.338223572265	2
2	3029	614.61772980959	1
2	3032	615.545815375623	0
2	3042	617.269331726142	1
2	3047	618.249270647753	0
2	3056	619.420947612566	1
2	3057	620.448971508618	0
2	3125	634.993962496759	1
2	3126	635.205133341243	0
2	3130	635.486572397475	1
2	3133	636.039014945914	0
2	3139	636.99262969356	1
2	3140	637.163779289545	0
2	3144	637.31242391942	1
2	3145	638.151584347328	0
2	3149	638.677862507374	1
2	3150	639.194823214123	0
2	3162	641.13240940871	1
2	3167	641.937643286204	0
2	3174	643.141908360022	1
2	3175	644.108642544216	0
2	3239	657.681163170057	1
2	3240	658.638597304739	0
2	3244	658.713872072159	1
2	3245	659.71323900371	0
2	3249	660.215362921436	1
2	3250	660.533682920031	0
2	3265	665.765330845654	1
2	3266	666.304937232744	0
2	3290	669.984454254632	1
2	3292	670.179847476675	2
2	3295	670.877780358859	1
2	3298	671.856599585333	0
2	3305	672.970262218365	1
2	3308	673.696925089688	0
2	3312	673.921801000227	1
2	3317	674.504353764274	0
2	3321	674.85617125246	1
2	3322	675.317118029942	0
2	3326	675.4186097989	1
2	3328	675.573572391058	2
2	3329	676.290414653433	1
2	3335	676.849749461827	2
2	3336	677.392853606486	1
2	3340	677.45831001971	2
2	3343	678.559708559134	1
2	3347	678.962809272563	2
2	3348	679.596500346989	1
2	3352	679.788503029992	2
2	3355	680.734520737354	1
2	3359	680.992248791128	2
2	3360	681.739634175219	1
2	3363	682.653510759205	0
2	3370	683.900484222034	1
2	3372	684.376467108123	2
2	3373	684.553808894188	1
2	3376	685.653173705929	0
2	3380	686.268557459923	1
2	3381	686.494855757051	0
2	3385	686.958173825297	1
2	3386	687.566975733631	0
2	3390	688.219668658381	1
2	3392	688.221315952203	2
2	3395	688.657354112428	1
2	3399	688.91387231577	2
2	3400	689.603599156712	1
2	3404	690.580853225439	2
2	3405	690.689208545343	1
2	3411	691.377333791954	2
2	3412	691.611789771163	1
2	3415	692.674920087301	0
2	3422	694.122745359654	1
2	3423	694.442371266887	0
2	3427	694.686220413298	1
2	3430	695.435078700159	0
2	3452	700.373096926877	1
2	3453	700.464015246919	0
2	3459	701.156722307854	1
2	3460	701.547505868124	0
2	3466	702.561979814706	1
2	3467	702.590588037195	0
2	3471	703.188636156802	1
2	3472	703.6982751673	0
2	3476	703.738983433304	1
2	3478	704.016323767677	2
2	3479	704.634426198239	1
2	3483	705.381972998751	2
2	3484	705.832066333751	1
2	3488	705.858665136999	2
2	3490	706.078343732321	3
2	3492	706.633667080265	4
2	3493	706.973566707029	3
2	3498	707.774979426051	2
2	3502	707.870483770662	3
2	3503	708.905360204159	2
2	3507	709.778230899958	3
2	3508	710.066376190903	2
2	3511	710.913735302342	1
2	3515	710.935734099565	2
2	3517	711.52729916258	3
2	3518	711.829439897546	2
2	3521	712.884307847348	1
2	3525	713.166119450623	2
2	3528	714.029652848271	1
2	3532	714.548429106098	2
2	3533	715.184079280206	1
2	3536	716.161198160787	0
2	3540	716.534222889637	1
2	3541	717.254547022459	0
2	3545	717.521714219513	1
2	3546	718.100776098844	0
2	3556	720.664348544572	1
2	3557	721.236458431547	0
2	3561	721.343289859308	1
2	3564	722.112879402181	0
2	3568	722.235858905643	1
2	3569	722.933210929939	0
2	3573	723.774698152112	1
2	3574	724.031881156554	0
2	3578	724.215236739876	1
2	3579	724.835093298452	0
2	3583	725.525035705707	1
2	3584	725.738919678694	0
2	3594	727.747040481858	1
2	3595	728.465213352991	0
2	3599	728.731852554183	1
2	3600	729.524511444373	0
2	3604	729.838102416861	1
2	3607	730.407764933342	0
2	3611	730.851744997578	1
2	3612	731.22438749847	0
2	3616	731.644750688123	1
2	3617	732.180166754024	0
2	3621	732.698098511768	1
2	3622	733.148086348446	0
2	3626	733.41521055155	1
2	3629	734.292972682407	0
2	3641	736.969382566877	1
2	3642	737.414689917294	0
2	3648	738.004658335182	1
2	3649	738.240793455289	0
2	3653	739.162220564836	1
2	3654	739.240293889483	0
2	3658	739.861071638054	1
2	3660	739.926623406926	2
2	3661	740.37083018328	1
2	3665	740.555956661203	2
2	3666	741.199820942329	1
2	3669	742.054493232714	0
2	3681	744.593787346081	1
2	3682	745.006593821748	0
2	3691	746.318179831556	1
2	3693	746.533759382099	2
2	3694	747.316793937973	1
2	3700	748.160309675003	2
2	3701	748.160446185331	1
2	3705	748.174776882602	2
2	3706	749.212420497454	1
2	3710	749.454839487469	2
2	3712	749.605631515223	3
2	3713	750.314568819843	2
2	3716	751.167589204285	1
2	3720	752.107520497715	2
2	3721	752.319354588065	1
2	3725	752.958901918711	2
2	3726	753.131958826158	1
2	3730	753.624831243854	2
2	3733	754.201918516487	1
2	3737	754.272021502296	2
2	3738	755.011766375501	1
2	3742	755.831097070837	2
2	3744	756.12353359709	3
2	3745	756.175485227622	2
2	3749	756.915303435644	3
2	3750	757.335921862621	2
2	3754	757.946655098234	3
2	3755	758.521263816945	2
2	3758	759.545055063247	1
2	3762	760.231718271815	2
2	3763	760.471959844782	1
2	3769	761.354929962348	2
2	3770	761.467522354881	1
2	3774	762.228515893822	2
2	3775	762.408877655483	1
2	3778	763.506815923556	0
2	3785	765.177531071614	1
2	3786	765.735631082944	0
2	3790	766.147334381181	1
2	3791	766.593757838189	0
2	3808	769.659064006362	1
2	3810	769.744561141905	2
2	3811	770.763572074652	1
2	3814	771.633639767386	0
2	3828	774.057516171607	1
2	3829	774.790417410239	0
2	3833	774.846450408404	1
2	3838	775.65458017503	0
2	3848	778.609372114554	1
2	3852	778.696988394654	2
2	3853	779.029949111017	1
2	3856	780.153261061283	0
2	3863	781.124730864449	1
2	3864	782.043978861803	0
2	3871	783.738179822813	1
2	3872	784.000455265017	0
2	3876	784.094438562696	1
2	3879	785.102833500122	0
2	3883	785.268426940336	1
2	3884	785.929806416565	0
2	3891	787.172915827977	1
2	3892	788.045585425747	0
2	3901	788.927005509122	1
2	3902	789.918152998285	0
2	3906	790.113717573419	1
2	3907	790.829261902338	0
2	3911	791.03663132718	1
2	3912	792.001745252209	0
2	3921	793.635562681261	1
2	3922	793.799537177561	0
2	3926	794.033582534633	1
2	3927	794.776476919083	0
2	3941	797.16124939799	1
2	3943	797.164579507859	2
2	3945	797.652862088076	3
2	3946	797.762927317889	2
2	3949	798.909519625352	1
2	3955	799.59164027004	2
2	3956	799.81167475813	1
2	3960	799.929322602187	2
2	3961	800.897199088325	1
2	3964	801.79978829584	0
2	3968	802.334362751388	1
2	3969	802.753337493529	0
2	3982	805.812975280222	1
2	3989	806.865348218278	0
2	3996	807.835210547141	1
2	3997	808.631134660718	0
2	4004	809.847532636029	1
2	4009	810.785836049159	0
2	4208	851.816009568625	1
2	4209	852.307509387928	0
2	4216	853.297116656417	1
2	4217	854.110584311551	0
2	4224	855.42502827298	1
2	4225	856.209672022789	0
2	4238	857.355853850643	1
2	4239	857.908662517547	0
2	4248	859.576067393122	1
2	4249	859.845588725239	0
2	4261	862.528115053985	1
2	4262	862.703615569596	0
2	4276	865.686967057308	1
2	4277	865.875004156392	0
2	4290	867.69420327293	1
2	4291	868.203025045331	0
2	4298	869.849593819591	1
2	4300	869.902612723218	2
2	4301	870.101424414564	1
2	4306	871.257988874141	0
2	4310	871.502517355984	1
2	4312	871.809493013727	2
2	4315	872.107399232585	1
2	4318	872.9647015348	0
2	4330	875.426191701242	1
2	4332	875.57828630223	2
2	4333	876.053170630421	1
2	4336	877.226320541083	0
2	4340	878.320316396339	1
2	4341	878.420826882581	0
2	4345	878.90152235968	1
2	4346	879.560658083102	0
2	4350	879.788326136509	1
2	4352	879.876852066235	2
2	4353	880.668356428566	1
2	4356	881.510462564594	0
2	4362	882.432501633015	1
2	4363	882.544642730421	0
2	4367	882.988579928238	1
2	4368	883.587596594999	0
2	4375	885.057118309589	1
2	4376	885.520528025544	0
2	4380	886.323583947399	1
2	4381	886.527423813185	0
2	4385	886.689245653926	1
2	4389	887.528533734132	2
2	4390	887.626285023792	1
2	4394	887.881027349356	2
2	4395	888.661141011203	1
2	4399	888.748504718446	2
2	4400	889.590904276902	1
2	4403	890.428837625301	0
2	4410	891.824234181421	1
2	4411	892.191767760358	0
2	4417	892.877692337277	1
2	4418	893.057310584924	0
2	4422	893.519241025584	1
2	4423	894.093871779452	0
2	4427	894.167740066443	1
2	4429	894.502469479091	2
2	4430	895.250536531201	1
2	4434	896.101242528652	2
2	4435	896.404295792794	1
2	4439	897.178282223299	2
2	4440	897.599822429558	1
2	4444	897.939311424715	2
2	4445	898.526274083638	1
2	4451	898.921362666933	2
2	4452	899.48935738149	1
2	4456	900.292617413876	2
2	4457	900.642456455053	1
2	4461	900.94628257833	2
2	4462	901.513907397156	1
2	4465	902.325160741237	0
2	4469	902.954467624562	1
2	4470	903.30110113359	0
2	4477	904.987670823151	1
2	4479	905.332575743153	2
2	4480	905.389472866328	1
2	4486	906.156400323056	2
2	4487	906.462706904383	1
2	4491	907.264801504365	2
2	4492	907.311811378309	1
2	4495	908.499909520326	0
2	4505	910.887729715654	1
2	4506	911.684224633024	0
2	4515	913.538981093146	1
2	4516	913.840864746821	0
2	4520	914.518526502578	1
2	4521	914.845649396618	0
2	4525	915.60049914893	1
2	4526	915.815222076223	0
2	4533	916.989892120265	1
2	4534	917.820070100193	0
2	4546	920.68815212397	1
2	4547	920.775142648527	0
2	4551	921.255620093639	1
2	4553	921.342917374948	2
2	4554	921.922758993776	1
2	4558	922.034736370308	2
2	4560	922.764037822897	3
2	4561	922.963264521853	2
2	4567	923.629820005828	3
2	4568	923.970001916484	2
2	4572	924.603285101749	3
2	4573	925.09485264196	2
2	4577	925.286412853824	3
2	4579	925.914366040576	4
2	4580	926.091219594785	3
2	4583	927.182779007115	2
2	4587	927.627028104913	3
2	4589	927.953614322223	4
2	4590	928.035014268186	3
2	4594	928.076761331067	4
2	4595	928.949684620172	3
2	4598	929.985708132189	2
2	4602	930.971695865378	3
2	4603	931.001733502455	2
2	4607	931.518999289536	3
2	4609	931.702820821394	4
2	4611	931.780561210484	5
2	4612	931.990893876541	4
2	4616	933.043302577785	5
2	4617	933.118152694206	4
2	4621	933.481753032641	5
2	4622	933.929496496625	4
2	4626	934.289717798641	5
2	4627	935.030136717472	4
2	4631	935.516073971754	5
2	4632	936.052883726533	4
2	4635	937.079288865149	3
2	4639	937.62069312586	4
2	4640	938.017086299684	3
2	4644	938.108923547755	4
2	4645	938.985295645882	3
2	4648	940.18167498893	2
2	4652	940.747752332127	3
2	4653	941.046472996556	2
2	4656	942.082616436471	1
2	4659	942.915396543768	0
2	4663	942.927723656995	1
2	4664	943.981714324084	0
2	4671	945.343959551182	1
2	4673	945.551899590939	2
2	4674	945.796225465917	1
2	4678	946.391149171372	2
2	4679	946.91657995385	1
2	4683	947.084133993061	2
2	4684	947.932212004241	1
2	4690	948.786424836977	2
2	4692	948.865024448125	3
2	4693	948.873621882115	2
2	4697	949.29790068572	3
2	4698	949.809399722692	2
2	4702	950.362294003065	3
2	4704	950.769971052863	4
2	4705	950.853149063874	3
2	4708	951.876379687794	2
2	4712	951.924720812465	3
2	4713	952.795344526776	2
2	4717	953.494923666535	3
2	4719	953.533707937044	4
2	4720	953.839277518251	3
2	4723	954.788830040571	2
2	4726	955.800627155871	1
2	4730	956.659179734467	2
2	4731	956.928450797581	1
2	4737	957.05478984812	2
2	4738	958.080786128611	1
2	4742	958.551681226282	2
2	4743	959.109822943982	1
2	4747	959.896768754249	2
2	4748	960.275698674832	1
2	4751	961.231069402386	0
2	4761	963.359785111018	1
2	4763	963.872361580134	2
2	4767	963.989207769023	3
2	4768	964.061438743666	2
2	4772	964.821052923432	3
2	4773	965.024094840408	2
2	4778	965.967065026135	1
2	4782	966.662984385714	2
2	4783	966.874638366782	1
2	4787	967.139993586335	2
2	4788	968.062257860032	1
2	4791	968.913896640287	0
2	4795	969.25119221716	1
2	4796	969.79801711644	0
2	4800	970.378398501263	1
2	4802	970.50462972208	2
2	4804	970.758764371702	3
2	4805	970.908072477662	2
2	4809	971.818254503752	3
2	4810	971.962462406036	2
2	4814	972.592275952949	3
2	4815	972.859452870943	2
2	4819	972.996389904858	3
2	4820	973.812399424974	2
2	4823	974.733981365699	1
2	4826	975.563472469046	0
2	4830	975.787644938941	1
2	4831	976.647729969106	0
2	4838	978.40721159439	1
2	4839	978.554180965095	0
2	4843	978.584886831191	1
2	4844	979.599061445042	0
2	4848	979.604381299492	1
2	4852	980.372048467584	2
2	4853	980.582921816769	1
2	4856	981.662201335083	0
2	4860	981.727282688677	1
2	4861	982.826979869127	0
2	4865	983.316065217941	1
2	4867	983.411487949569	2
2	4869	983.60737576336	3
2	4870	983.989212984673	2
2	4873	984.946274961892	1
2	4877	985.585811297809	2
2	4878	985.99714873255	1
2	4881	986.922398808866	0
2	4885	987.058548553646	1
2	4888	988.054900924291	0
2	4892	988.471500634938	1
2	4894	989.056137506403	2
2	4895	989.180751720525	1
2	4899	989.645934727391	2
2	4903	990.246816263244	3
2	4904	990.300353960123	2
2	4909	991.356798267726	1
2	4913	991.685487652641	2
2	4915	991.7816380761	3
2	4917	992.021965879114	4
2	4918	992.442431670603	3
2	4921	993.459319752258	2
2	4925	993.9943419942	3
2	4927	994.161268904629	4
2	4928	994.510118967377	3
2	4931	995.434061377205	2
2	4934	996.56573152215	1
2	4938	997.161192746042	2
2	4940	997.494463907836	3
2	4941	997.597941758379	2
2	4945	997.633975598812	3
2	4947	997.97207341559	4
2	4949	998.389566532278	5
2	4950	998.723038686614	4
2	4954	999.705807837718	5
2	4955	999.908213008184	4
2	4958	1000.973417224258	3
2	4962	1001.031643994462	4
2	4963	1002.125561001513	3
2	4967	1002.482006479663	4
2	4968	1003.016429887142	3
2	4971	1003.93092539924	2
2	4974	1004.771955790546	1
2	4977	1005.57820608205	0
2	4981	1006.243106759731	1
2	4982	1006.648761719361	0
2	4991	1007.91889884339	1
2	4993	1008.163747146155	2
2	4994	1008.867229203403	1
2	4998	1008.979373722148	2
2	5000	1009.985229718969	3
2	5001	1010.045397670928	2
2	5005	1010.115007052994	3
2	5006	1010.867604728683	2
2	5010	1011.406097322921	3
2	5011	1012.032978036243	2
2	5015	1012.692150057685	3
2	5016	1012.973373706348	2
2	5019	1013.845728853985	1
2	5022	1014.973453346535	0
2	5026	1015.572271437548	1
2	5027	1015.819736265938	0
2	5034	1017.250563608532	1
2	5036	1017.592424872784	2
2	5037	1018.077734033472	1
2	5044	1019.208763713378	0
2	5048	1019.237364440192	1
2	5050	1019.293575696088	2
2	5051	1020.188386327203	1
2	5055	1020.690908634072	2
2	5056	1021.167457461066	1
2	5060	1021.610729944138	2
2	5062	1022.110809265963	3
2	5063	1022.193926915515	2
2	5066	1023.116651527107	1
2	5069	1023.928417215485	0
2	5073	1024.802501538147	1
2	5074	1024.983240931563	0
2	5078	1025.199667589028	1
2	5079	1026.091768814519	0
2	5083	1026.11129740743	1
2	5084	1026.955655553926	0
2	5088	1027.051370420618	1
2	5089	1028.062260130968	0
2	5096	1029.205714963707	1
2	5098	1030.038736189309	2
2	5099	1030.05334769123	1
2	5104	1030.871077730961	0
2	5108	1031.162238301223	1
2	5109	1031.990960160445	0
2	5115	1032.302688465376	1
2	5116	1032.998307146586	0
2	5123	1034.559122324255	1
2	5125	1034.685788554848	2
2	5126	1034.808964775678	1
2	5131	1035.653313916352	0
2	5138	1036.590239751938	1
2	5140	1036.598038490821	2
2	5141	1037.402000999254	1
2	5144	1038.600492631634	0
2	5153	1040.169043183755	1
2	5154	1040.714962007095	0
2	5164	1043.033745449788	1
2	5167	1044.094800088451	0
2	5174	1044.986219944143	1
2	5177	1045.830501734082	0
2	5186	1047.145348170719	1
2	5187	1047.968296193693	0
2	5191	1048.391468426476	1
2	5192	1048.933982988808	0
2	5203	1049.985498555455	1
2	5204	1050.896115143772	0
2	5213	1052.608123776829	1
2	5214	1052.965999618906	0
2	5223	1054.743734033857	1
2	5224	1055.138947544422	0
2	5249	1060.580666447372	1
2	5251	1060.995776120749	2
2	5252	1061.344712852396	1
2	5258	1062.112617122715	2
2	5259	1062.489004737873	1
2	5263	1062.881085755222	2
2	5265	1063.318197942136	3
2	5268	1063.674383745704	2
2	5274	1064.564897155238	3
2	5275	1064.760404833302	2
2	5278	1065.922997616965	1
2	5281	1066.980145385198	0
2	5288	1068.498680183736	1
2	5290	1068.569460736187	2
2	5291	1069.021091616422	1
2	5296	1069.909192307003	0
2	5300	1070.809516828491	1
2	5301	1070.980641179148	0
2	5308	1072.590886458222	1
2	5309	1072.99238709769	0
2	5321	1075.286491485954	1
2	5323	1075.568655264782	2
2	5324	1075.829170059029	1
2	5330	1076.327687251468	2
2	5331	1076.727588156227	1
2	5335	1077.131453529027	2
2	5336	1077.87326656346	1
2	5341	1078.972246169194	0
2	5345	1079.483373840237	1
2	5346	1079.955640077114	0
2	5356	1082.581278340744	1
2	5357	1082.614305360045	0
2	5368	1083.882452753117	1
2	5370	1084.103495225782	2
2	5371	1084.457479795337	1
2	5376	1085.511338423461	0
2	5385	1087.03343003528	1
2	5387	1087.21203703331	2
2	5388	1087.606225627184	1
2	5392	1088.009434569552	2
2	5395	1088.799677861285	1
2	5398	1089.757178840031	0
2	5402	1090.088585861086	1
2	5403	1090.767873469544	0
2	5407	1091.46770287217	1
2	5408	1091.821868890141	0
2	5418	1094.319344531777	1
2	5422	1094.825372690046	2
2	5423	1095.20801872582	1
2	5428	1096.243296183542	0
2	5432	1096.458470370015	1
2	5435	1097.187405548141	0
2	5439	1098.145894023953	1
2	5440	1098.35115348081	0
2	5545	1123.479908475021	1
2	5546	1124.259123619486	0
2	5580	1134.249103901621	1
2	5581	1135.406333271325	0
2	5585	1135.536604087506	1
2	5588	1136.363886777316	0
2	5597	1138.040560316619	1
2	5598	1138.105034287092	0
2	5606	1138.905335706289	1
2	5607	1139.02631323338	0
2	5620	1140.096713290596	1
2	5625	1141.133977485173	0
2	5632	1142.568430215554	1
2	5634	1142.930543313249	2
2	5637	1143.273386876941	1
2	5642	1144.47297289465	0
2	5651	1145.75669744757	1
2	5653	1146.054834343484	2
2	5656	1146.593656002269	1
2	5659	1147.586569049773	0
2	5671	1149.89408899441	1
2	5674	1150.514849975338	0
2	5678	1151.5509364874	1
2	5679	1151.640493659401	0
2	5683	1151.716399070168	1
2	5684	1152.510311317729	0
2	5688	1153.308160881843	1
2	5689	1153.414225528116	0
2	5696	1155.166771536911	1
2	5697	1155.590153034037	0
2	5751	1167.992271639216	1
2	5752	1168.185616828227	0
2	5763	1170.025611610903	1
2	5764	1170.113640904618	0
2	5771	1171.184516726214	1
2	5774	1171.980240880517	0
2	5781	1173.511429035315	1
2	5782	1173.897872832796	0
2	5791	1175.04995640324	1
2	5794	1175.870485474734	0
2	5801	1176.786868608693	1
2	5803	1176.854152355919	2
2	5804	1177.828338875069	1
2	5809	1178.628801956686	0
2	5816	1179.545831861603	1
2	5818	1180.433151971727	2
2	5819	1180.62000116036	1
2	5824	1181.529680015153	0
2	5828	1182.275847139586	1
2	5829	1182.338123839169	0
2	5833	1182.825065188278	1
2	5834	1183.171425153136	0
2	5841	1184.734656536816	1
2	5842	1184.945162137791	0
2	5854	1188.207076612032	1
2	5855	1188.281059961307	0
2	5862	1189.692427469424	1
2	5863	1190.529949292174	0
2	5877	1192.493894605633	1
2	5878	1193.220898543583	0
2	5895	1196.812187849576	1
2	5896	1197.886353391032	0
2	5907	1199.543892584055	1
2	5908	1199.715906660161	0
2	5942	1206.405593215999	1
2	5943	1206.714153694344	0
2	5952	1208.046913646483	1
2	5953	1208.496788573155	0
2	5960	1209.608500557297	1
2	5962	1210.404127679495	2
2	5963	1210.407210393699	1
2	5966	1211.486963778811	0
2	5975	1212.55421184873	1
2	5978	1213.541561252608	0
2	5992	1215.993956965572	1
2	5994	1216.353696355961	2
2	5995	1216.705656189363	1
2	5999	1216.915506143229	2
2	6000	1217.809220405373	1
2	6005	1218.986654270425	0
2	6009	1219.364807446983	1
2	6010	1219.924539660368	0
2	6014	1220.793551546748	1
2	6015	1220.881296682063	0
2	6037	1225.68383033603	1
2	6038	1225.79263665479	0
2	6042	1226.415223741516	1
2	6043	1226.929606784027	0
2	6047	1227.276722716839	1
2	6050	1227.736983013883	0
2	6056	1228.641663106218	1
2	6057	1228.837955915633	0
2	6061	1229.053889315305	1
2	6062	1229.6613861651	0
2	6066	1230.377935746014	1
2	6067	1230.766007814168	0
2	6071	1231.538814124317	1
2	6072	1231.567544040347	0
2	6076	1232.146971791387	1
2	6078	1232.429867418158	2
2	6079	1232.457366108971	1
2	6085	1233.080992070578	2
2	6086	1233.341443337111	1
2	6090	1233.439256116247	2
2	6091	1234.401663309785	1
2	6094	1235.382424214	0
2	6103	1236.502809396103	1
2	6104	1237.100423875061	0
2	6110	1237.574770850301	1
2	6111	1238.295992575848	0
2	6115	1238.469922243804	1
2	6116	1239.195074711723	0
2	6120	1239.505848717924	1
2	6121	1240.292202707736	0
2	6131	1242.27809003792	1
2	6135	1242.287748103345	2
2	6136	1242.902451481374	1
2	6139	1243.761118405854	0
2	6143	1244.433778897014	1
2	6144	1244.602438631264	0
2	6150	1245.422085366434	1
2	6151	1245.708588917629	0
2	6158	1246.829576852087	1
2	6159	1247.861583728512	0
2	6182	1253.521084391789	1
2	6187	1254.144672616461	0
2	6196	1255.337493324947	1
2	6197	1256.247050366999	0
2	6210	1257.923496681324	1
2	6211	1258.39784591485	0
2	6314	1280.032537846518	1
2	6315	1280.222233853294	0
2	6324	1281.368321123729	1
2	6325	1281.995318088951	0
2	6344	1285.25255378639	1
2	6347	1286.365462822365	0
2	6353	1287.167675687718	1
2	6354	1287.350639043181	0
2	6358	1287.548666151506	1
2	6360	1287.984091882689	2
2	6361	1288.316326454459	1
2	6365	1288.340281570928	2
2	6366	1289.462503563045	1
2	6370	1289.535762721243	2
2	6371	1290.66011118711	1
2	6374	1291.738672777722	0
2	6378	1292.019846652852	1
2	6379	1292.76541032902	0
2	6383	1293.065757929952	1
2	6385	1293.648051967412	2
2	6386	1293.921849809112	1
2	6390	1293.963003717739	2
2	6391	1295.005341859618	1
2	6394	1295.898453393383	0
2	6398	1296.361014245955	1
2	6399	1296.885318458537	0
2	6403	1297.115982363771	1
2	6404	1297.896055857363	0
2	6411	1299.525869325545	1
2	6412	1300.107188084061	0
2	6436	1304.73464573959	1
2	6437	1304.817041548613	0
2	6449	1307.127854495227	1
2	6450	1307.75071423947	0
2	6465	1311.58116790501	1
2	6466	1311.699538259665	0
2	6477	1313.654610391295	1
2	6478	1313.71247879657	0
2	6487	1315.745530313784	1
2	6488	1315.784031410041	0
2	6499	1317.02496318946	1
2	6500	1317.67086430424	0
2	6507	1318.881771115856	1
2	6508	1319.478343348942	0
2	6520	1322.303599328068	1
2	6523	1322.494653672344	0
2	6530	1323.757163899789	1
2	6533	1324.176643597699	0
2	6600	1338.748003624228	1
2	6601	1338.853869675465	0
2	6608	1340.386845999013	1
2	6611	1340.697727251232	0
2	6615	1341.376618249275	1
2	6616	1341.67263472182	0
2	6620	1342.202127011283	1
2	6623	1342.7819777104	0
2	6627	1343.140955645403	1
2	6628	1343.925289520707	0
2	6632	1343.959171473485	1
2	6635	1345.033719051063	0
2	6639	1345.193497262137	1
2	6640	1345.94539913376	0
2	6647	1346.998309998163	1
2	6649	1347.263295780121	2
2	6650	1347.847631227497	1
2	6656	1348.046455779896	2
2	6659	1348.806552625347	1
2	6665	1349.871795716822	2
2	6666	1349.89430037643	1
2	6670	1350.007071614458	2
2	6671	1350.899216278635	1
2	6675	1351.330967643455	2
2	6676	1351.953515838172	1
2	6679	1353.01734073627	0
2	6683	1353.120900955794	1
2	6686	1354.187910523817	0
2	6690	1354.471843238363	1
2	6691	1355.141634875342	0
2	6706	1358.233134407521	1
2	6707	1358.672472398999	0
2	6721	1361.009101943781	1
2	6724	1361.604623659691	0
2	6735	1363.110327322982	1
2	6736	1363.620791136464	0
2	6743	1365.451388002442	1
2	6744	1365.480600756397	0
2	6748	1366.25892971827	1
2	6749	1366.362644738787	0
2	6756	1368.517979774909	1
2	6757	1368.596418805131	0
2	6764	1370.000772628964	1
2	6765	1370.639964951658	0
2	6772	1371.984112415226	1
2	6773	1372.589619514429	0
2	6777	1372.84033088098	1
2	6780	1373.403359526851	0
2	6784	1373.412324673319	1
2	6787	1374.55294746355	0
2	6800	1378.380454577593	1
2	6801	1378.521080097452	0
2	6828	1383.998097702561	1
2	6830	1384.219306930695	2
2	6831	1384.690937301317	1
2	6837	1385.277186181603	2
2	6838	1385.585620111586	1
2	6842	1385.792567102974	2
2	6844	1385.806528840178	3
2	6845	1386.495914427364	2
2	6849	1387.115963564605	3
2	6850	1387.480089374898	2
2	6853	1388.525347447662	1
2	6858	1389.638202796864	0
2	6862	1389.84747949207	1
2	6863	1390.713656200177	0
2	6867	1391.508906137712	1
2	6868	1391.797784122906	0
2	6872	1391.894801622611	1
2	6873	1392.767487201269	0
2	6877	1393.325293044068	1
2	6878	1393.808863630227	0
2	6882	1393.901331306666	1
2	6884	1394.74543928084	2
2	6885	1394.965451665956	1
2	6888	1395.810503393679	0
2	6892	1396.219544243124	1
2	6893	1396.82422194787	0
2	6897	1396.867155450338	1
2	6898	1397.676194904732	0
2	6902	1398.487050592774	1
2	6903	1398.556663074611	0
2	6907	1398.999918946575	1
2	6908	1399.379354662249	0
2	6912	1400.08135643668	1
2	6913	1400.293266161798	0
2	6917	1400.765978166344	1
2	6918	1401.396939848165	0
2	6922	1401.607820262589	1
2	6924	1402.102219904164	2
2	6925	1402.271593463129	1
2	6929	1402.719436432789	2
2	6930	1403.225059642165	1
2	6933	1404.217979833658	0
2	6937	1404.325113214176	1
2	6939	1405.027858267824	2
2	6940	1405.242272892676	1
2	6944	1405.939915069734	2
2	6945	1406.300330432679	1
2	6948	1407.489568046189	0
2	6955	1409.144077474809	1
2	6956	1409.350909050822	0
2	6965	1410.642131097838	1
2	6966	1411.266613802488	0
2	6977	1413.192443906586	1
2	6978	1413.295363098743	0
2	7001	1418.906000206762	1
2	7004	1419.32230699741	0
2	7013	1420.662040436538	1
2	7014	1421.532482672657	0
2	7023	1422.660673917371	1
2	7024	1423.526048622454	0
2	7033	1425.21135507205	1
2	7034	1425.298246071288	0
2	7038	1425.923350148069	1
2	7041	1426.35734645248	0
2	7051	1428.21565365688	1
2	7052	1429.304504152933	0
2	7059	1430.585552960196	1
2	7060	1431.080637006356	0
2	7071	1432.423335224512	1
2	7072	1433.200506313226	0
2	7084	1435.676754408678	1
2	7085	1436.159828035615	0
2	7092	1437.411016663442	1
2	7093	1437.932489874854	0
2	7104	1439.234774788408	1
2	7106	1439.869637569364	2
2	7107	1440.033748913637	1
2	7110	1440.948614086012	0
2	7114	1441.118110369243	1
2	7117	1441.973993909067	0
2	7121	1442.511873467611	1
2	7122	1442.842100665147	0
2	7126	1443.542763652489	1
2	7127	1444.002593797805	0
2	7134	1445.511117787347	1
2	7135	1445.891785842446	0
2	7151	1448.782561476034	1
2	7152	1449.256217175988	0
2	7161	1450.339193198197	1
2	7162	1451.096441632962	0
2	7172	1453.409710546901	1
2	7173	1454.175437620735	0
2	7182	1455.960824937615	1
2	7183	1456.001706096238	0
2	7187	1456.480867678661	1
2	7190	1456.926811825565	0
2	7194	1457.223218427601	1
2	7196	1457.292753938445	2
2	7199	1458.125513873423	1
2	7204	1459.167203107836	0
2	7208	1459.696660078194	1
2	7209	1460.012349676887	0
2	7213	1460.413655259976	1
2	7214	1460.824583694047	0
2	7221	1462.095326269439	1
2	7224	1462.844801197095	0
2	7228	1463.164313432725	1
2	7231	1463.690786800893	0
2	7235	1464.520161264575	1
2	7236	1464.748664583718	0
2	7240	1464.748776115583	1
2	7241	1465.743080321686	0
2	7245	1466.47125609747	1
2	7246	1466.554257594222	0
2	7250	1467.474053982884	1
2	7252	1467.638360515936	2
2	7253	1467.672944518817	1
2	7257	1467.755142162138	2
2	7258	1468.486960253013	1
2	7262	1469.505602389391	2
2	7263	1469.681576412344	1
2	7267	1470.304512413952	2
2	7269	1470.323684311201	3
2	7270	1470.50648623983	2
2	7274	1471.24968756976	3
2	7275	1471.40607066088	2
2	7279	1472.033260251448	3
2	7280	1472.465990484679	2
2	7283	1473.325936321901	1
2	7287	1473.651601557157	2
2	7288	1474.38218535109	1
2	7292	1474.596963801368	2
2	7294	1475.313968293441	3
2	7295	1475.51354532166	2
2	7298	1476.537718984378	1
2	7302	1477.331477082271	2
2	7303	1477.496538181683	1
2	7307	1478.353759860748	2
2	7308	1478.5666113817	1
2	7312	1479.211724046621	2
2	7314	1479.508528374117	3
2	7315	1479.674618328722	2
2	7318	1480.56534933223	1
2	7321	1481.475375725223	0
2	7325	1481.703918870119	1
2	7327	1481.795018863862	2
2	7328	1482.602984351559	1
2	7332	1482.944319214849	2
2	7333	1483.757960586517	1
2	7336	1484.730241783976	0
2	7343	1486.95393184423	1
2	7344	1486.977182442684	0
2	7351	1488.008830462187	1
2	7353	1488.582108575693	2
2	7354	1488.867375413411	1
2	7358	1489.050872592013	2
2	7362	1489.760154472062	3
2	7363	1489.980863137253	2
2	7368	1491.112807194505	1
2	7372	1491.333002203115	2
2	7374	1491.675121705595	3
2	7375	1492.192253080931	2
2	7379	1492.447434331489	3
2	7380	1493.15086895068	2
2	7383	1494.049052932568	1
2	7387	1494.513889692371	2
2	7388	1495.243383191422	1
2	7391	1496.19148320983	0
2	7395	1496.450876424063	1
2	7397	1496.994281585703	2
2	7398	1497.389590274811	1
2	7401	1498.30584595966	0
2	7405	1498.396116059136	1
2	7406	1499.335809657153	0
2	7410	1499.343586448038	1
2	7411	1500.478063633096	0
2	7418	1501.758640899513	1
2	7420	1502.688187480614	2
2	7421	1502.701182820079	1
2	7426	1503.723426394434	0
2	7433	1504.917080153565	1
2	7434	1506.01904424251	0
2	7461	1511.440306979647	1
2	7464	1511.99206359935	0
2	7473	1513.809180478669	1
2	7474	1513.855183430193	0
2	7481	1515.831030806357	1
2	7482	1516.149886639593	0
2	7494	1518.142753718141	1
2	7497	1518.942987229293	0
2	7507	1519.91220882649	1
2	7508	1520.069526785509	0
2	7512	1520.161113894635	1
2	7513	1521.050579722588	0
2	7519	1521.230414356311	1
2	7520	1521.9345221226	0
2	7527	1523.203680684107	1
2	7528	1523.915471206129	0
2	7532	1524.07405063518	1
2	7535	1524.745706496004	0
2	7552	1527.639657707888	1
2	7553	1528.457851138421	0
2	7557	1528.861736281257	1
2	7559	1529.113929685361	2
2	7562	1529.433484320332	1
2	7567	1530.346156574403	0
2	7571	1531.178280979728	1
2	7573	1531.232665451099	2
2	7574	1531.302222285596	1
2	7578	1531.355372803795	2
2	7579	1532.315376213742	1
2	7582	1533.361032808562	0
2	7589	1534.505637002395	1
2	7591	1534.611368088603	2
2	7592	1535.256924038184	1
2	7597	1536.345515448124	0
2	7604	1537.666202307086	1
2	7605	1538.291599163962	0
2	7609	1538.302701997847	1
2	7611	1538.992450042961	2
2	7612	1539.094926163265	1
2	7615	1540.127406355449	0
2	7627	1542.703025384946	1
2	7628	1542.964080699896	0
2	7635	1544.316923303439	1
2	7636	1545.216716102128	0
2	7648	1547.366145593773	1
2	7651	1548.216058533815	0
2	7662	1549.981925816212	1
2	7663	1550.112028284734	0
2	7672	1551.570855963201	1
2	7675	1552.108474056134	0
2	7689	1554.360205572803	1
2	7690	1554.949399066894	0
2	7699	1556.359147942388	1
2	7700	1556.629570111624	0
2	7707	1557.806320450626	1
2	7710	1558.555792821376	0
2	7735	1564.368405736529	1
2	7736	1564.491772996159	0
2	7747	1566.31080288828	1
2	7748	1566.455322483452	0
2	7755	1567.504493864877	1
2	7760	1568.457822380578	0
2	7769	1570.222340071755	1
2	7771	1570.331456414296	2
2	7772	1570.51550376256	1
2	7777	1571.328520120299	0
2	7781	1571.986063354193	1
2	7782	1572.350844659834	0
2	7789	1574.1059916587	1
2	7790	1574.27983152791	0
2	7796	1574.665171906864	1
2	7798	1575.06635908829	2
2	7801	1575.31848713345	1
2	7804	1576.323691269747	0
2	7808	1577.075318991413	1
2	7809	1577.478209897588	0
2	7816	1579.38096988313	1
2	7817	1579.709338234729	0
2	7829	1581.552448184953	1
2	7830	1582.401472060095	0
2	7836	1582.806784002859	1
2	7837	1583.253062204636	0
2	7844	1584.650446309135	1
2	7845	1585.341425277565	0
2	7849	1586.031557951959	1
2	7852	1586.525210227158	0
2	7856	1587.490388450186	1
2	7857	1587.541862596471	0
2	7861	1587.662452472598	1
2	7862	1588.683896038953	0
2	7874	1590.791452605391	1
2	7877	1591.751011247367	0
2	7881	1592.695751694674	1
2	7882	1592.900399890069	0
2	7886	1593.433011873904	1
2	7887	1593.902378754124	0
2	7897	1596.647804625712	1
2	7898	1596.653202638488	0
2	7907	1598.18995534736	1
2	7908	1598.700334946524	0
2	7912	1598.860840905794	1
2	7913	1599.810107790671	0
2	7917	1599.948280168349	1
2	7920	1600.849842899285	0
2	7924	1600.990549536941	1
2	7925	1601.682713635538	0
2	7944	1605.521265225115	1
2	7945	1605.790900300902	0
2	7949	1606.651285443357	1
2	7950	1606.692547820129	0
2	7954	1606.701319499805	1
2	7955	1607.875114618887	0
2	7962	1608.933634835925	1
2	7964	1609.063668733445	2
2	7965	1609.678812269487	1
2	7969	1609.889976264183	2
2	7972	1610.804478631627	1
2	7975	1611.862771351069	0
2	7984	1613.438128470918	1
2	7986	1613.652971693552	2
2	7987	1613.7956613901	1
2	7992	1614.923773711074	0
2	8004	1617.05975560269	1
2	8005	1617.784082094759	0
2	8009	1617.790527262758	1
2	8011	1618.332170616357	2
2	8012	1618.863237475597	1
2	8016	1619.049419624957	2
2	8017	1619.76894019739	1
2	8023	1620.201887311171	2
2	8024	1620.694763062794	1
2	8027	1621.580093689814	0
2	8036	1623.173258673078	1
2	8037	1623.784949524786	0
2	8041	1624.514466735818	1
2	8042	1624.776367992993	0
2	8095	1635.612001319335	1
2	8098	1636.239211721619	0
2	8116	1639.174624565798	1
2	8117	1639.274162014568	0
2	8124	1640.896675496696	1
2	8125	1641.41331088263	0
2	8139	1643.905249423285	1
2	8140	1644.795021370979	0
2	8149	1645.863253062415	1
2	8154	1646.822815481288	0
2	8163	1648.341783125013	1
2	8164	1648.733624096674	0
2	8171	1650.516440646913	1
2	8174	1650.985574612295	0
2	8205	1659.064455296752	1
2	8206	1659.234190151091	0
2	8215	1660.627527253632	1
2	8216	1660.945975298058	0
2	8238	1665.460527698726	1
2	8239	1666.247415071908	0
2	8243	1667.179108752194	1
2	8244	1667.409680011026	0
2	8253	1668.557518515535	1
2	8254	1669.221918170523	0
2	8268	1671.855149051648	1
2	8269	1672.230076335181	0
2	8285	1675.157522958312	1
2	8286	1675.196460951676	0
2	8299	1676.964109501475	1
2	8300	1677.208176750967	0
2	8372	1692.088367251288	1
2	8373	1692.296591970603	0
2	8389	1695.111632523768	1
2	8390	1695.62621259624	0
2	8397	1696.903403839237	1
2	8398	1697.684454528241	0
2	8418	1701.770887050743	1
2	8419	1702.566146543806	0
2	8428	1704.444967493704	1
2	8429	1704.493332689533	0
2	8438	1705.862672328552	1
2	8439	1706.543888578562	0
2	8448	1707.640781709487	1
2	8451	1708.385128447225	0
2	8460	1709.248482121284	1
2	8462	1709.369506659741	2
2	8465	1710.327205467687	1
2	8470	1711.17559165647	0
2	8474	1711.25864906291	1
2	8476	1711.63087019147	2
2	8477	1712.366662684639	1
2	8480	1713.52482665423	0
2	8484	1714.372564600113	1
2	8486	1714.47388904592	2
2	8487	1714.658347838369	1
2	8490	1715.519116647352	0
2	8494	1715.972683380862	1
2	8496	1716.107807827135	2
2	8497	1716.463073027876	1
2	8501	1716.506585215504	2
2	8502	1717.365417991576	1
2	8506	1717.838937247458	2
2	8507	1718.508268130661	1
2	8511	1718.564551615021	2
2	8512	1719.340479478889	1
2	8516	1719.524388906882	2
2	8517	1720.538202854243	1
2	8523	1721.347941704774	2
2	8525	1721.366823623725	3
2	8526	1721.400479239595	2
2	8529	1722.431876227443	1
2	8533	1722.622306580555	2
2	8535	1722.780481752498	3
2	8538	1723.573329642505	2
2	8542	1723.773371203144	3
2	8543	1724.534030266382	2
2	8546	1725.363705310408	1
2	8550	1726.114786398909	2
2	8551	1726.327075016867	1
2	8555	1727.281950016808	2
2	8556	1727.421717402242	1
2	8560	1727.704587873925	2
2	8562	1728.204809423988	3
2	8563	1728.287935482427	2
2	8566	1729.285162986531	1
2	8569	1730.341962711322	0
2	8573	1731.292484550655	1
2	8574	1731.308851922857	0
2	8581	1733.086657160324	1
2	8582	1733.14709814032	0
2	8586	1733.800331774718	1
2	8588	1734.132285913756	2
2	8589	1734.216953540309	1
2	8592	1735.408868761169	0
2	8602	1737.8458929938	1
2	8603	1738.63191786352	0
2	8609	1739.104867552058	1
2	8613	1739.464531202376	2
2	8614	1739.719497184822	1
2	8618	1739.980475529764	2
2	8620	1740.305697549846	3
2	8622	1740.409799866124	4
2	8623	1740.565381336113	3
2	8627	1740.983478091298	4
2	8628	1741.490511812543	3
2	8631	1742.51863671224	2
2	8635	1743.468688332866	3
2	8636	1743.492690287152	2
2	8639	1744.376275262231	1
2	8643	1744.487425308403	2
2	8644	1745.440421066334	1
2	8648	1745.490369727564	2
2	8649	1746.405929903121	1
2	8653	1746.448266760227	2
2	8655	1746.836989890826	3
2	8657	1747.228309331192	4
2	8658	1747.529725140793	3
2	8662	1748.098987420892	4
2	8663	1748.374882583594	3
2	8666	1749.475585669646	2
2	8670	1749.72211714526	3
2	8672	1750.151134592801	4
2	8674	1750.369463711857	5
2	8675	1750.479069450678	4
2	8679	1750.676378764797	5
2	8681	1751.186480986874	6
2	8682	1751.499499761773	5
2	8686	1751.799962917516	6
2	8689	1752.383894148649	5
2	8692	1753.255807506566	4
2	8695	1754.275745886372	3
2	8699	1754.372825941234	4
2	8701	1755.12597123947	5
2	8702	1755.159484568325	4
2	8706	1755.525423375696	5
2	8707	1755.998304276069	4
2	8711	1756.144463191558	5
2	8713	1756.696016442094	6
2	8714	1756.945435689011	5
2	8718	1757.402545878302	6
2	8719	1758.100578254735	5
2	8723	1758.268875029596	6
2	8724	1759.146032228315	5
2	8728	1759.618657795035	6
2	8729	1760.310288544925	5
2	8733	1760.459829572427	6
2	8734	1761.375632803323	5
2	8738	1762.024812063241	6
2	8739	1762.510123800202	5
2	8743	1763.36224562803	6
2	8745	1763.371182873103	7
2	8746	1763.416138411029	6
2	8749	1764.329298374424	5
2	8752	1765.142593655916	4
2	8755	1766.054441180633	3
2	8759	1766.63856086392	4
2	8761	1767.118555931431	5
2	8764	1767.222046160692	4
2	8767	1768.100520948222	3
2	8770	1769.137879096618	2
2	8773	1770.011449637352	1
2	8776	1771.07715841941	0
2	8780	1771.33752703383	1
2	8782	1771.636708365833	2
2	8784	1771.802557879818	3
2	8785	1771.914320332179	2
2	8788	1772.749615801679	1
2	8791	1773.66212254967	0
2	8798	1774.70556186625	1
2	8800	1774.724754578141	2
2	8802	1774.727604821112	3
2	8804	1774.830973671141	4
2	8807	1775.656517385406	3
2	8811	1776.117000600181	4
2	8812	1776.529468362214	3
2	8817	1777.515130651364	2
2	8820	1778.444003806071	1
2	8824	1779.5299786079	2
2	8825	1779.576020596077	1
2	8829	1779.576039082556	2
2	8830	1780.458763770753	1
2	8833	1781.388908419659	0
2	8837	1781.458509877576	1
2	8839	1781.940832790497	2
2	8840	1782.41205223882	1
2	8843	1783.381474397419	0
2	8850	1784.910250417542	1
2	8851	1785.569359464379	0
2	8855	1786.425221932014	1
2	8856	1786.563623293856	0
2	8860	1786.811109113573	1
2	8862	1787.16861167451	2
2	8863	1787.4311076777	1
2	8868	1788.330913083157	0
2	8872	1788.431366849183	1
2	8873	1789.215450566629	0
2	8877	1790.029477919399	1
2	8878	1790.126953853382	0
2	8885	1791.221380876967	1
2	8886	1791.907271426352	0
2	8900	1794.129466008046	1
2	8901	1794.980263905687	0
2	8923	1799.72688408482	1
2	8924	1800.144837887206	0
2	8933	1801.477576784849	1
2	8934	1802.354240572539	0
2	8941	1803.500526182811	1
2	8942	1804.319867911928	0
2	8952	1806.866100235226	1
2	8955	1807.284687503514	0
2	8962	1808.2649278289	1
2	8967	1808.920831718382	0
2	8974	1810.074442321843	1
2	8975	1810.962506489915	0
2	8984	1812.922961674659	1
2	8985	1812.928342354384	0
2	9000	1815.979915653403	1
2	9001	1816.834181849745	0
2	9008	1817.986521136226	1
2	9011	1818.777591475093	0
2	9022	1820.693173582568	1
2	9023	1820.751583057822	0
2	9038	1824.042581607684	1
2	9040	1824.145092646439	2
2	9046	1824.77464264763	3
2	9047	1824.927128425142	2
2	9052	1826.111963747623	1
2	9058	1827.073259376523	2
2	9059	1827.155008106487	1
2	9063	1827.83731219779	2
2	9064	1828.349263534503	1
2	9067	1829.269495144667	0
2	9071	1830.103627387009	1
2	9072	1830.174531535892	0
2	9079	1831.819538505864	1
2	9080	1832.111824499158	0
2	9087	1833.199539435755	1
2	9089	1833.334516753677	2
2	9092	1833.890613086982	1
2	9096	1834.607796654603	2
2	9097	1835.015773120797	1
2	9102	1836.148969873222	0
2	9106	1836.21924276173	1
2	9107	1837.206138424384	0
2	9111	1837.576855444004	1
2	9112	1838.336035308144	0
2	9116	1838.766687278254	1
2	9117	1839.180921450346	0
2	9121	1839.368365481284	1
2	9122	1840.160058832723	0
2	9126	1840.330163260621	1
2	9127	1841.100353335771	0
2	9131	1841.857826043584	1
2	9132	1841.923841256737	0
2	9136	1842.677042880944	1
2	9137	1842.950544733643	0
2	9141	1842.995312903823	1
2	9142	1843.918325213152	0
2	9146	1844.146099878005	1
2	9147	1844.835077257077	0
2	9151	1845.428945019437	1
2	9153	1845.603598044259	2
2	9154	1845.95153278708	1
2	9157	1846.977849451355	0
2	9161	1847.017964124042	1
2	9164	1848.030796972844	0
2	9168	1848.38333211484	1
2	9169	1848.992837951607	0
2	9176	1850.142657467299	1
2	9178	1850.610227122183	2
2	9179	1850.668922021981	1
2	9182	1851.594558480192	0
2	9188	1852.104114808061	1
2	9189	1852.580871315204	0
2	9196	1853.857295009886	1
2	9198	1853.897593296666	2
2	9199	1854.578822092802	1
2	9204	1855.778488519226	0
2	9211	1857.113992417195	1
2	9212	1857.55967220403	0
2	9216	1857.934736606805	1
2	9217	1858.71507771108	0
2	9230	1860.519786115215	1
2	9231	1860.592251139131	0
2	9235	1861.16033538232	1
2	9236	1861.745971006897	0
2	9243	1863.144549545806	1
2	9244	1863.765160088238	0
2	9261	1868.003566224396	1
2	9262	1868.048527759497	0
2	9269	1869.44249119363	1
2	9272	1870.022160640263	0
2	9281	1871.500641605049	1
2	9282	1872.059872761272	0
2	9296	1874.771949271241	1
2	9297	1875.287484920674	0
2	9311	1878.209624161407	1
2	9312	1878.526202675045	0
2	9323	1880.421483466629	1
2	9324	1880.49724755976	0
2	9331	1882.405029651217	1
2	9332	1882.508731895309	0
2	9339	1883.637686524821	1
2	9340	1884.53040021313	0
2	9344	1885.038449435931	1
2	9345	1885.597332314119	0
2	9349	1886.03923507371	1
2	9352	1886.57114080004	0
2	9356	1887.411052224345	1
2	9358	1887.467136279011	2
2	9359	1887.591740228977	1
2	9363	1888.048072134316	2
2	9365	1888.080302035023	3
2	9366	1888.427257905338	2
2	9369	1889.416084244657	1
2	9372	1890.35842051338	0
2	9376	1891.220676596318	1
2	9377	1891.463774290584	0
2	9384	1892.655429312482	1
2	9385	1893.221451198213	0
2	9389	1893.622756130407	1
2	9391	1893.896543066888	2
2	9394	1894.362231942635	1
2	9398	1894.578063520699	2
2	9400	1895.133684263686	3
2	9401	1895.548094190374	2
2	9405	1896.327443849324	3
2	9406	1896.512174202871	2
2	9409	1897.365981731188	1
2	9413	1897.37639992988	2
2	9414	1898.210389659271	1
2	9417	1899.196798325047	0
2	9424	1900.333248759317	1
2	9425	1901.394344931278	0
2	9432	1903.032265168645	1
2	9433	1903.213916638303	0
2	9439	1903.844876305881	1
2	9440	1904.166282339762	0
2	9444	1904.70491330611	1
2	9447	1905.259117720551	0
2	9462	1909.189314058662	1
2	9465	1909.350864124573	0
2	9471	1909.980193248686	1
2	9472	1910.425090762782	0
2	9476	1911.071519953401	1
2	9477	1911.455162892393	0
2	9484	1913.008940682652	1
2	9486	1913.306568815321	2
2	9487	1913.626678343206	1
2	9493	1913.791085713918	2
2	9495	1914.271264373633	3
2	9496	1914.616254811823	2
2	9500	1915.683681124341	3
2	9501	1915.723042540248	2
2	9505	1916.431829535094	3
2	9506	1916.595148123051	2
2	9509	1917.481186769619	1
2	9512	1918.477698699008	0
2	9516	1919.138019260202	1
2	9517	1919.600387296728	0
2	9521	1919.701688195302	1
2	9523	1920.248680353936	2
2	9524	1920.651058611176	1
2	9528	1921.028526200759	2
2	9529	1921.480080007571	1
2	9533	1921.949565951801	2
2	9534	1922.465362943798	1
2	9538	1923.466099115656	2
2	9539	1923.616860294059	1
2	9542	1924.536100382913	0
2	9546	1924.79033120759	1
2	9548	1924.905472514584	2
2	9549	1925.343587255288	1
2	9552	1926.348266788475	0
2	9559	1927.493043732772	1
2	9560	1928.176739087231	0
2	9564	1928.892328265954	1
2	9566	1929.012142889703	2
2	9567	1929.157411731403	1
2	9572	1930.301086463682	0
2	9576	1931.140786864648	1
2	9577	1931.307822211455	0
2	9581	1931.599769155509	1
2	9582	1932.228646196607	0
2	9591	1933.311708165726	1
2	9592	1934.049041890442	0
2	9598	1934.782256785012	1
2	9599	1935.162293789159	0
2	9603	1935.833751763418	1
2	9604	1936.073976644404	0
2	9608	1936.211622720977	1
2	9610	1936.817591290046	2
2	9611	1936.925850076783	1
2	9615	1937.361040710297	2
2	9616	1937.996614659853	1
2	9620	1938.272564404326	2
2	9622	1939.1204009013	3
2	9624	1939.133871042596	4
2	9625	1939.156483817003	3
2	9628	1939.968949495903	2
2	9632	1940.174148637598	3
2	9634	1940.447953725071	4
2	9635	1941.089417100879	3
2	9638	1942.273728411733	2
2	9642	1942.3463130578	3
2	9643	1943.185580698023	2
2	9647	1943.356313846161	3
2	9648	1944.292904287665	2
2	9652	1944.63969677871	3
2	9653	1945.321217582277	2
2	9657	1945.851129292631	3
2	9658	1946.260259736977	2
2	9662	1946.395557094583	3
2	9663	1947.085581425759	2
2	9666	1948.036309779803	1
2	9672	1948.275752383606	2
2	9673	1948.885589731107	1
2	9677	1949.315680132029	2
2	9678	1949.735206528655	1
2	9682	1950.396954291287	2
2	9683	1950.914704441367	1
2	9686	1952.075209195813	0
2	9690	1952.104076553113	1
2	9691	1952.8990673989	0
2	9698	1954.383296646652	1
2	9699	1954.728168375319	0
2	9703	1955.173383303115	1
2	9705	1955.203918005683	2
2	9706	1955.665751077043	1
2	9709	1956.574276131665	0
2	9713	1956.606559723565	1
2	9715	1956.641390674885	2
2	9719	1957.706358708681	3
2	9720	1957.764396085305	2
2	9724	1958.543804103327	3
2	9725	1958.749633957533	2
2	9728	1959.694135909522	1
2	9732	1959.72979996765	2
2	9733	1960.694321972499	1
2	9737	1961.439804787337	2
2	9738	1961.60217018099	1
2	9741	1962.451088263462	0
2	9748	1963.834088129247	1
2	9749	1964.200683652791	0
2	9758	1965.268040117743	1
2	9760	1965.78086153325	2
2	9761	1966.210263822316	1
2	9764	1967.048683209992	0
2	9768	1967.127804324771	1
2	9769	1968.162348255045	0
2	9776	1968.969961489439	1
2	9777	1970.063152494649	0
2	9783	1970.199188538754	1
2	9784	1970.977714859689	0
2	9791	1972.222104985459	1
2	9792	1973.041977550456	0
2	9796	1973.133634528516	1
2	9800	1973.653071313755	2
2	9802	1973.868507107117	3
2	9805	1974.008777992701	2
2	9809	1974.302512908761	3
2	9810	1974.837571172038	2
2	9814	1975.48903469709	3
2	9815	1975.641853297496	2
2	9819	1976.27783046986	3
2	9820	1976.485643163411	2
2	9826	1977.467023920751	3
2	9827	1977.530696536409	2
2	9830	1978.619683338417	1
2	9834	1979.560039202977	2
2	9835	1979.575145728601	1
2	9839	1980.427276957013	2
2	9840	1980.499305774173	1
2	9844	1980.55369513005	2
2	9845	1981.518173374696	1
2	9849	1981.90398197735	2
2	9851	1982.395602114403	3
2	9852	1982.71814628364	2
2	9855	1983.847213189392	1
2	9858	1984.769486285834	0
2	9862	1985.771575209828	1
2	9863	1985.866162018473	0
2	9867	1985.996786485841	1
2	9868	1986.968743688981	0
2	9877	1988.317697810179	1
2	9879	1989.034243579508	2
2	9880	1989.052862160462	1
2	9888	1989.6682302542	2
2	9890	1989.679904243218	3
2	9891	1989.877742749821	2
2	9895	1990.816796693764	3
2	9896	1990.962138006273	2
2	9900	1991.556028978052	3
2	9901	1991.854854976568	2
2	9905	1992.402352562278	3
2	9906	1992.814473019629	2
2	9909	1993.791562803644	1
2	9913	1993.959367457182	2
2	9914	1994.843141056779	1
2	9918	1995.801074151124	2
2	9919	1995.894021987259	1
2	9923	1996.237453595639	2
2	9924	1996.954372266955	1
2	9927	1997.823020193163	0
2	9931	1998.74482256027	1
2	9933	1998.862041351979	2
2	9934	1998.888264019597	1
2	9937	1999.83690996151	0
2	9941	2000.616699468007	1
2	9944	2000.884645752418	0
2	9948	2001.558579929494	1
2	9949	2001.754789078324	0
2	9953	2001.834237209351	1
2	9954	2002.696564363404	0
2	9958	2002.839127612421	1
2	9959	2003.843605247601	0
2	9966	2005.444905036003	1
2	9968	2005.462077121794	2
2	9969	2005.667158162869	1
2	9976	2006.70761872809	0
2	9980	2006.81657912914	1
2	9982	2006.987134815604	2
2	9985	2007.692372877613	1
2	9989	2008.562126971703	2
2	9990	2008.719836954303	1
2	9994	2009.508555468891	2
2	9995	2009.882503109235	1
2	9999	2010.09244959716	2
2	10001	2010.963094756847	3
2	10002	2011.058136181157	2
2	10006	2011.165263760006	3
2	10008	2011.364598445946	4
2	10009	2011.863466591943	3
2	10012	2012.964705082957	2
2	10016	2013.026185587594	3
2	10017	2013.83727939054	2
2	10020	2014.747438664265	1
2	10023	2015.912142086118	0
2	10027	2016.607224931008	1
2	10028	2016.951196328174	0
2	10034	2017.439669725883	1
2	10035	2017.94948408864	0
2	10039	2018.897861867391	1
2	10040	2019.04212958803	0
2	10044	2019.430086312743	1
2	10045	2020.04370893193	0
2	10049	2020.615489620401	1
2	10050	2020.923155829399	0
2	10057	2022.122976740893	1
2	10058	2023.093176786503	0
2	10062	2023.615995625639	1
2	10063	2024.1890333238	0
2	10067	2024.282545783402	1
2	10069	2025.047232041727	2
2	10070	2025.067644449318	1
2	10075	2026.117895630928	0
2	10079	2026.398289451861	1
2	10080	2027.291621932941	0
2	10087	2029.216886207696	1
2	10088	2029.417339659477	0
2	10097	2030.586132102927	1
2	10098	2031.262603513985	0
2	10201	2051.814872973161	1
2	10202	2052.336176169286	0
2	10209	2054.006287381329	1
2	10210	2054.359683088115	0
2	10221	2056.209210037165	1
2	10222	2056.230882837804	0
2	10226	2056.388296533742	1
2	10229	2057.409418757347	0
2	10236	2058.656421259918	1
2	10238	2058.840198514602	2
2	10239	2059.711640017195	1
2	10244	2060.883545853006	0
2	10251	2062.26409747326	1
2	10252	2063.085528555228	0
2	10258	2063.782332651428	1
2	10259	2063.931279863971	0
2	10274	2066.670679916741	1
2	10276	2067.355346671706	2
2	10277	2067.822399376607	1
2	10282	2068.881528391498	0
2	10286	2068.965750800641	1
2	10287	2070.04465348124	0
2	10291	2070.519848429508	1
2	10292	2070.864371994319	0
2	10299	2071.771662260286	1
2	10301	2071.799058594016	2
2	10303	2071.826396613964	3
2	10304	2072.61124619543	2
2	10307	2073.413269669371	1
2	10312	2074.501799097931	0
2	10316	2074.912944203765	1
2	10319	2075.64869753187	0
2	10323	2076.206434464287	1
2	10324	2076.513310100412	0
2	10328	2076.560626702336	1
2	10330	2076.60148997765	2
2	10331	2077.476268909959	1
2	10334	2078.398229189863	0
2	10341	2080.000654926208	1
2	10342	2080.227009296411	0
2	10346	2080.765378389645	1
2	10347	2081.20805926462	0
2	10356	2082.132948707598	1
2	10359	2082.980774700263	0
2	10368	2083.987380826588	1
2	10369	2084.945399839239	0
2	10373	2084.989039318663	1
2	10374	2086.048473424086	0
2	10386	2088.282551879711	1
2	10387	2088.920321126184	0
2	10391	2089.17324656	1
2	10392	2089.753243659245	0
2	10396	2090.232076731501	1
2	10397	2090.67759174108	0
2	10404	2091.547403647993	1
2	10408	2092.018626835746	2
2	10409	2092.533003803897	1
2	10412	2093.623507486186	0
2	10416	2094.112419277168	1
2	10418	2094.39254811005	2
2	10419	2094.440694313492	1
2	10423	2095.095730313449	2
2	10424	2095.310845091935	1
2	10427	2096.177968352936	0
2	10431	2096.631276499739	1
2	10432	2097.103684336781	0
2	10436	2097.66422512224	1
2	10437	2098.152318462632	0
2	10447	2100.436652303394	1
2	10448	2101.283518386442	0
2	10457	2103.264376130927	1
2	10458	2103.526180140577	0
2	10470	2105.585489936773	1
2	10471	2106.639800668597	0
2	10478	2107.757995185453	1
2	10479	2108.503657540302	0
2	10541	2120.334893507743	1
2	10542	2121.381692165782	0
2	10559	2125.084567464633	1
2	10560	2125.358878788904	0
2	10569	2127.019213118289	1
2	10570	2127.483673277956	0
2	10574	2127.775394433965	1
2	10579	2128.454099410765	0
2	10585	2128.608002856411	1
2	10586	2129.377795610197	0
2	10590	2129.573858309195	1
2	10591	2130.245761880271	0
2	10595	2130.290591461225	1
2	10596	2131.308120499823	0
2	10600	2131.653389872354	1
2	10601	2132.218227786284	0
2	10608	2133.714533291022	1
2	10609	2133.992451319743	0
2	10616	2135.385297691309	1
2	10617	2135.830903575934	0
2	10626	2137.50996448924	1
2	10627	2137.681663515969	0
2	10638	2139.100291170312	1
2	10639	2139.320571811489	0
2	10648	2141.103445428905	1
2	10649	2141.298868360176	0
2	10653	2142.039118892868	1
2	10654	2142.110348488382	0
2	10658	2142.458329740604	1
2	10659	2143.140491505611	0
2	10668	2144.455092712983	1
2	10670	2144.464472486992	2
2	10671	2145.335824215963	1
2	10676	2146.442630803111	0
2	10683	2147.735043101693	1
2	10684	2148.592350201394	0
2	10693	2150.174808892738	1
2	10694	2150.368922667756	0
2	10712	2154.848626796691	1
2	10714	2155.029051489536	2
2	10715	2155.243857853107	1
2	10718	2156.361211069107	0
2	10730	2159.457587900914	1
2	10731	2159.522647384081	0
2	10737	2159.890658416963	1
2	10740	2160.649983105615	0
2	10744	2160.861681164948	1
2	10746	2161.140789700026	2
2	10747	2161.528340955071	1
2	10750	2162.517240575135	0
2	10754	2163.056561983297	1
2	10755	2163.507339910969	0
2	10759	2163.514622782502	1
2	10761	2164.214755326507	2
2	10762	2164.430891852259	1
2	10765	2165.449621075663	0
2	10779	2167.505667969222	1
2	10780	2168.066886203728	0
2	10787	2169.751070633635	1
2	10788	2170.200706338595	0
2	10844	2182.330028867783	1
2	10845	2183.048349982118	0
2	10860	2186.714358540086	1
2	10861	2187.32991200638	0
2	10867	2187.879694842237	1
2	10868	2188.28677173405	0
2	10880	2191.007084726321	1
2	10881	2192.096938308815	0
2	10897	2195.098430348135	1
2	10899	2195.181950225093	2
2	10900	2195.493675061243	1
2	10905	2196.646886777712	0
2	10920	2197.881087413931	1
2	10923	2198.68444327891	0
2	10930	2199.770323116657	1
2	10933	2200.455893752371	0
2	10942	2202.298543951947	1
2	10943	2202.578927081191	0
2	10999	2214.145319351899	1
2	11003	2214.809466867946	2
2	11004	2215.16457897203	1
2	11007	2216.052839136701	0
2	11011	2216.081120844348	1
2	11015	2216.714545318353	2
2	11016	2217.141187885143	1
2	11023	2218.234057390522	0
2	11027	2218.571088181095	1
2	11028	2219.403970680684	0
2	11035	2220.57203892178	1
2	11036	2221.156038074959	0
2	11040	2221.308673786679	1
2	11043	2222.180018496066	0
2	11050	2223.625159030799	1
2	11051	2224.086916362047	0
2	11057	2225.083303543163	1
2	11058	2225.22285977697	0
2	11062	2225.362851547909	1
2	11064	2225.55831391885	2
2	11065	2226.372361007724	1
2	11068	2227.188620356675	0
2	11072	2227.593938004335	1
2	11073	2228.141613418068	0
2	11077	2228.761684006925	1
2	11078	2229.262252541649	0
2	11088	2231.174058343854	1
2	11090	2232.081909786068	2
2	11093	2232.208064874	1
2	11096	2233.35803891478	0
2	11108	2235.70627944168	1
2	11111	2236.274630463234	0
2	11118	2237.210222783034	1
2	11119	2238.099663266185	0
2	11128	2239.664242837604	1
2	11129	2240.0700630299	0
2	11133	2240.779331534298	1
2	11134	2240.892895666249	0
2	11141	2242.59303516179	1
2	11143	2242.998065668153	2
2	11144	2243.136850726809	1
2	11148	2243.302087822409	2
2	11153	2244.031667987648	1
2	11156	2244.930022484175	0
2	11163	2246.120101526478	1
2	11164	2247.002477773297	0
2	11173	2249.036092133386	1
2	11174	2249.135966408085	0
2	11181	2250.73372426435	1
2	11183	2250.790409901854	2
2	11184	2251.330431842729	1
2	11188	2251.4791620117	2
2	11192	2252.355077117205	3
2	11193	2252.442837231345	2
2	11197	2252.703997060478	3
2	11198	2253.262098493445	2
2	11202	2253.292694815203	3
2	11203	2254.073721074051	2
2	11208	2255.198126375134	1
2	11212	2256.330489808845	2
2	11213	2256.349518855772	1
2	11216	2257.290916191897	0
2	11223	2258.212252850518	1
2	11224	2259.21029050948	0
2	11228	2259.23804793723	1
2	11230	2259.606108853504	2
2	11232	2259.978174555662	3
2	11233	2260.175557613111	2
2	11236	2261.013214306551	1
2	11240	2261.645009759859	2
2	11241	2262.018203990458	1
2	11245	2263.0236132676	2
2	11246	2263.039229582454	1
2	11250	2263.869740490601	2
2	11251	2264.005215297936	1
2	11255	2264.637630112115	2
2	11256	2264.818448915536	1
2	11259	2265.846985694504	0
2	11263	2266.267363542962	1
2	11265	2266.570621795378	2
2	11266	2266.739048522914	1
2	11269	2267.882093870284	0
2	11273	2268.131977682802	1
2	11274	2268.824590115359	0
2	11278	2268.871585001125	1
2	11280	2269.019539035124	2
2	11282	2269.695645827108	3
2	11283	2269.872623233234	2
2	11287	2270.550264880639	3
2	11289	2270.991227791649	4
2	11290	2271.011427127772	3
2	11296	2271.506985180722	4
2	11297	2271.9488331251	3
2	11301	2272.752190356385	4
2	11302	2273.035026237011	3
2	11306	2274.040406532232	4
2	11307	2274.181003639955	3
2	11310	2275.273104145672	2
2	11314	2275.426807274164	3
2	11315	2276.131219349537	2
2	11319	2276.24205541637	3
2	11321	2276.466464064694	4
2	11322	2277.025958865244	3
2	11325	2278.094548706818	2
2	11329	2278.363263611077	3
2	11330	2279.144769281815	2
2	11334	2279.341966500422	3
2	11335	2279.996082000355	2
2	11339	2280.109769829724	3
2	11340	2281.184005428864	2
2	11343	2282.350465395222	1
2	11347	2283.308997603285	2
2	11348	2283.494165519266	1
2	11351	2284.473300810079	0
2	11355	2284.623335067165	1
2	11357	2284.702215283535	2
2	11358	2285.430440635062	1
2	11362	2285.49146565221	2
2	11363	2286.279822537783	1
2	11367	2286.736089316993	2
2	11368	2287.345073083523	1
2	11373	2288.317410254772	0
2	11377	2289.12673215213	1
2	11378	2289.173143993798	0
2	11382	2289.386464597522	1
2	11383	2290.342260851818	0
2	11390	2291.517676681459	1
2	11391	2292.422843194394	0
2	11403	2294.705142158509	1
2	11406	2295.429149664486	0
2	11426	2299.531789936556	1
2	11429	2299.95156615797	0
2	11436	2301.292725509075	1
2	11437	2301.972026642613	0
2	11444	2302.998643950457	1
2	11446	2303.228911681661	2
2	11447	2303.823584954828	1
2	11454	2304.729982637815	0
2	11462	2305.386190900897	1
2	11463	2305.846249376532	0
2	11467	2306.25770103555	1
2	11468	2306.716493691985	0
2	11479	2308.413089104663	1
2	11480	2308.559409897883	0
2	11489	2310.138173976754	1
2	11490	2310.299945456923	0
2	11494	2310.506945536665	1
2	11495	2311.432499326688	0
2	11499	2311.500753755537	1
2	11500	2312.449266688355	0
2	11510	2314.685374962695	1
2	11511	2315.29534694703	0
2	11520	2316.685657983202	1
2	11521	2317.306722249106	0
2	11577	2330.467410872697	1
2	11578	2330.505616231001	0
2	11587	2332.025228127644	1
2	11588	2332.165627485997	0
2	11592	2332.833605836797	1
2	11593	2333.189350339229	0
2	11599	2333.903605914515	1
2	11602	2334.180210759136	0
2	11609	2336.064432220825	1
2	11610	2336.229764156714	0
2	11614	2336.954559952639	1
2	11615	2337.265261445772	0
2	11636	2340.907688768866	1
2	11638	2340.966450611404	2
2	11639	2341.195070576687	1
2	11642	2342.029801721797	0
2	11646	2342.156771502031	1
2	11647	2343.075885285177	0
2	11674	2348.486306422335	1
2	11675	2349.513043822181	0
2	11679	2350.013361351145	1
2	11680	2350.328531639111	0
2	11689	2352.255943376371	1
2	11690	2352.343780654688	0
2	11694	2352.369254656603	1
2	11697	2353.144609527775	0
2	11701	2353.14670656472	1
2	11704	2354.187735936531	0
2	11723	2357.499004385746	1
2	11724	2358.186024841406	0
2	11740	2360.901713027618	1
2	11741	2361.195650558379	0
2	11752	2362.304380364463	1
2	11755	2363.186251672842	0
2	11766	2364.552509139437	1
2	11769	2365.285341472942	0
2	11791	2369.907050899056	1
2	11792	2370.504557301309	0
2	11801	2371.517138880437	1
2	11803	2372.179386498334	2
2	11804	2372.207822117787	1
2	11807	2373.024644845557	0
2	11816	2374.156156119414	1
2	11818	2374.687874563015	2
2	11819	2374.901715789289	1
2	11824	2375.742078418304	0
2	11828	2375.864321978724	1
2	11832	2376.430191553061	2
2	11833	2376.771696492304	1
2	11837	2377.453763248459	2
2	11838	2377.792001062558	1
2	11842	2378.498274519533	2
2	11843	2378.92585633725	1
2	11847	2378.947742761715	2
2	11848	2379.937924370096	1
2	11852	2380.464955615574	2
2	11853	2380.830469264761	1
2	11856	2381.85663773438	0
2	11860	2381.93513072511	1
2	11861	2382.731257598214	0
2	11865	2383.294235289403	1
2	11866	2383.924919366297	0
2	11875	2385.770267643279	1
2	11876	2385.895228396375	0
2	11885	2387.803030011985	1
2	11886	2387.949109847583	0
2	11895	2388.95174067208	1
2	11896	2389.821970127821	0
2	11905	2390.916411279284	1
2	11906	2391.902425378766	0
2	11963	2404.5844945666	1
2	11966	2405.53074697444	0
2	11973	2406.767443289329	1
2	11975	2407.05759021563	2
2	11977	2407.072158310427	3
2	11980	2407.820239573827	2
2	11987	2409.00981408499	1
2	11991	2409.44200982507	2
2	11992	2410.203445059357	1
2	11996	2411.23281789347	2
2	11997	2411.349567368271	1
2	12003	2412.177356247091	2
2	12004	2412.447172176948	1
2	12008	2412.63882665919	2
2	12009	2413.423568748607	1
2	12013	2413.489631496852	2
2	12016	2414.379576197657	1
2	12020	2414.812916099292	2
2	12021	2415.225112326834	1
2	12024	2416.338808973524	0
2	12028	2416.460486046197	1
2	12029	2417.312370247039	0
2	12038	2419.164698370478	1
2	12039	2419.364516350645	0
2	12051	2421.678896222508	1
2	12053	2421.692013176865	2
2	12054	2422.315178531054	1
2	12057	2423.224424818456	0
2	12061	2423.363866883159	1
2	12063	2423.377694491656	2
2	12064	2424.087686682511	1
2	12068	2424.118391699861	2
2	12069	2425.271695613507	1
2	12073	2425.968426389084	2
2	12074	2426.163042399771	1
2	12078	2426.260865477755	2
2	12081	2427.200030184835	1
2	12084	2428.33644239923	0
2	12093	2429.502628456035	1
2	12095	2429.53791812376	2
2	12097	2429.642917951862	3
2	12098	2430.395422754548	2
2	12101	2431.480472149439	1
2	12107	2431.682131316697	2
2	12108	2432.403558110837	1
2	12112	2432.433199066115	2
2	12114	2432.923809919825	3
2	12116	2433.384053449266	4
2	12117	2433.529763444439	3
2	12121	2433.957371182435	4
2	12122	2434.364083990846	3
2	12125	2435.532377906908	2
2	12128	2436.7086589453	1
2	12132	2437.886695150133	2
2	12133	2437.907605450154	1
2	12137	2438.341285908026	2
2	12139	2438.654696829874	3
2	12140	2438.836426312496	2
2	12144	2439.067407877551	3
2	12145	2439.726320613661	2
2	12148	2440.682806459648	1
2	12151	2441.6011179683	0
2	12161	2443.792186931056	1
2	12164	2444.158176377343	0
2	12168	2445.145621209962	1
2	12169	2445.278436461857	0
2	12173	2445.954342639971	1
2	12176	2446.181416616517	0
2	12185	2447.436929685214	1
2	12187	2447.532184833238	2
2	12188	2448.039971710762	1
2	12194	2448.858096907931	2
2	12195	2449.102701754143	1
2	12198	2450.265314414372	0
2	12205	2452.104172452441	1
2	12206	2452.477294848507	0
2	12212	2453.418397437138	1
2	12213	2453.674068065101	0
2	12217	2453.913755507442	1
2	12221	2454.52354561068	2
2	12224	2454.766202690845	1
2	12227	2455.729411217497	0
2	12233	2456.245611179849	1
2	12235	2456.635500798239	2
2	12236	2456.675836627764	1
2	12242	2457.296702305925	2
2	12244	2457.360151317778	3
2	12245	2457.762922530362	2
2	12248	2458.693162088768	1
2	12252	2459.505270037255	2
2	12253	2459.703093176914	1
2	12257	2460.106035406138	2
2	12259	2460.235807095922	3
2	12260	2460.624955351578	2
2	12263	2461.531253931878	1
2	12267	2462.229223117514	2
2	12268	2462.422023864483	1
2	12272	2463.101167703595	2
2	12273	2463.238732127865	1
2	12277	2463.362537175129	2
2	12279	2463.961133896068	3
2	12280	2464.420623143689	2
2	12284	2464.560020220021	3
2	12288	2464.873141496951	4
2	12289	2465.450385966172	3
2	12293	2465.872176072666	4
2	12294	2466.443878002112	3
2	12297	2467.285937638601	2
2	12300	2468.163435023484	1
2	12304	2468.488114475086	2
2	12305	2469.321270475836	1
2	12308	2470.175468050709	0
2	12315	2471.870300860587	1
2	12317	2472.127459414428	2
2	12319	2472.329967719428	3
2	12320	2472.418713243513	2
2	12326	2473.378498417281	3
2	12327	2473.560366661775	2
2	12331	2473.843101100974	3
2	12332	2474.659966998383	2
2	12335	2475.53844526403	1
2	12338	2476.681711383838	0
2	12342	2477.377571302766	1
2	12343	2477.664936029002	0
2	12356	2481.344678578969	1
2	12357	2481.486245315918	0
2	12363	2482.123644818991	1
2	12366	2482.387901502685	0
2	12375	2483.466045187879	1
2	12377	2484.164082597537	2
2	12378	2484.183185529173	1
2	12382	2484.218727254833	2
2	12383	2485.066818938986	1
2	12388	2485.990276201465	0
2	12395	2487.510057127656	1
2	12396	2487.950679026194	0
2	12405	2489.748682323814	1
2	12406	2489.816472855326	0
2	12413	2490.933271865807	1
2	12414	2491.850439288117	0
2	12428	2494.356147615987	1
2	12429	2494.852485169772	0
2	12436	2495.985434206391	1
2	12439	2497.127178418751	0
2	12457	2501.037729814865	1
2	12460	2502.046809029136	0
2	12490	2507.028572989764	1
2	12491	2507.183255994063	0
2	12500	2508.855172405931	1
2	12501	2509.202763257757	0
2	12510	2510.363249562758	1
2	12511	2511.280819528666	0
2	12515	2511.85812433666	1
2	12516	2512.238765288074	0
2	12530	2514.608496535333	1
2	12533	2515.033242775616	0
2	12542	2516.80294886154	1
2	12543	2516.8704207442	0
2	12552	2518.363487032604	1
2	12554	2518.494197482762	2
2	12555	2518.652813065541	1
2	12558	2519.734516087291	0
2	12562	2520.667054223918	1
[...]
6	122386	24461.231746032288	32.240237372348
6	122480	24477.019147785487	283.59195464824
6	122507	24482.508071189948	473.28316941593
6	122614	24505.349765109007	158.40948186731
6	122656	24513.87797393167	87.233266085608
6	122934	24565.080307946837	1112.1566239954
6	123023	24582.768938564062	203.78493051419
6	123101	24598.948036727326	445.48528947456
6	123151	24609.252012925145	1633.7983986067
6	123188	24616.155882519127	154.50186835287
6	123199	24619.566929919195	193.7963926186
6	123221	24623.462066149356	103.87930653426
6	123241	24627.500756376719	104.28302564553
6	123453	24667.23753479926	100.5321268633
6	123493	24674.962414526772	1148.7467067375
6	123626	24701.804191249256	195.73742104979
6	123684	24714.157713289113	88.220388770919
6	123696	24716.326376983543	286.90010196645
6	123702	24717.967004287914	530.95797721426
6	123781	24732.98778261777	198.33761565124
6	123883	24753.340165601035	214.64567581264
6	123901	24757.026446365674	211.86300530825
6	124152	24805.226083947643	226.485022401
6	124183	24812.074048406835	136.49083392725
6	124266	24828.712637543696	143.05280679769
6	124386	24851.337826758733	352.70586127421
6	124678	24906.849124200009	671.49449325101
6	124741	24921.571842650065	562.29524423302
6	124746	24922.431941467171	209.29744722085
6	124812	24933.899928078728	204.57160772289
6	124853	24942.732258772127	957.00653335976
6	124863	24944.554100383561	214.56711976931
6	124911	24955.031421102886	586.09368691859
6	124919	24956.971549313632	189.97098396455
6	124924	24958.129542503716	480.28217018864
6	124982	24970.337648361664	479.28590617283
6	125007	24975.465052126371	146.22120496532
6	125012	24976.480112502747	827.14299755266
6	125098	24994.653400339303	132.30134535654
6	125205	25015.318561271975	682.46409020678
6	125223	25019.308198734212	847.84052024935
6	125226	25020.505557381853	399.6226368011
6	125232	25022.666604009483	558.62009879893
6	125258	25029.242856506751	300.39874629735
6	125331	25041.951605552554	393.62823067408
6	125383	25051.386794152695	497.17132807192
6	125394	25054.20914734055	472.78642923415
6	125414	25058.288697943954	87.435182145645
6	125438	25063.801955325833	462.18082195342
6	125446	25066.096516794363	225.17704946132
6	125461	25069.340541207907	742.18137319478
6	125472	25072.10527892618	1698.2122827743
6	125517	25081.379346580267	193.36838039614
6	125542	25086.068215033714	1307.3147372676
6	125562	25089.66827315532	745.81199346375
6	125598	25099.360821513668	65.374357111069
6	125601	25100.449116705288	459.06303947677
6	125726	25127.461337097664	247.44200071904
6	125763	25134.270467656779	1154.1564196684
6	125849	25149.083234168517	113.74667449584
6	125937	25165.847919024829	380.86149455953
6	125975	25173.642373856831	57.50888324994
6	126345	25249.933527624625	995.05501565183
6	126363	25254.232152444141	720.64378959927
6	126366	25255.279704301449	620.44214002699
6	126371	25256.414644214994	313.3270651707
6	126374	25257.561947275902	515.45307572127
6	126396	25261.67059489183	303.33771741935
6	126417	25266.67629342146	102.6682640828
6	126469	25276.311406444493	1606.714249959
6	126504	25283.522825250229	683.28496565752
6	126536	25289.652332890698	156.95507337462
6	126584	25302.033478114023	397.58639198101
6	126966	25374.925505112965	179.17354871979
6	127060	25392.32660472348	1103.2135623238
6	127119	25405.702759785035	1661.8746155565
6	127163	25413.571824650297	544.71088314506
6	127169	25415.519244890677	170.47216839555
6	127246	25434.454574209748	56.550329861141
6	127281	25441.844711407569	610.58110052834
6	127317	25448.129762453136	840.08088329865
6	127418	25467.698867586645	511.40084706353
6	127475	25480.983136289584	273.35117284663
6	127484	25481.981908312923	84.812090746706
6	127503	25487.01717086166	200.36618341608
6	127506	25488.075808798446	645.97095616343
6	127511	25489.267826543952	645.73138520923
6	127554	25498.441703980434	356.27620406742
6	127685	25525.717316602001	246.48549213106
6	127693	25527.363779583963	293.30597444923
6	127715	25531.102037373948	923.34977871093
6	127948	25575.808614003766	921.98598166344
6	127963	25578.792759386743	415.61553667892
6	128132	25610.080185398659	106.70673235038
6	128138	25611.94505267424	62.750336784586
6	128141	25612.96303563259	46.014116822889
6	128144	25614.023005340727	2735.3107828627
6	128162	25618.097427765573	983.74128280553
6	128201	25624.853664966222	465.23778971739
6	128253	25635.217078557441	507.32808525833
6	128265	25638.877846590819	50.717901552027
6	128368	25659.439355665834	273.10908378514
6	128420	25668.958243960065	641.16629449292
6	128430	25670.955046115366	158.60825225377
6	128508	25687.159459758008	104.2432694816
6	128511	25688.036869907396	864.32309237594
6	128514	25688.850575723982	237.49252010918
6	128542	25695.172134839574	685.82423310191
6	128550	25697.29179972207	124.89787042772
6	128553	25698.13882490482	79.07420203827
6	128576	25703.112581133672	929.50513535737
6	128579	25704.087231867683	652.95122953595
6	128622	25713.038007144924	709.81892057028
6	128629	25713.921904802896	144.62285427834
6	128670	25723.140747825815	99.068390390798
6	128720	25733.331793832607	658.32726736798
6	128849	25758.643682195352	95.263575339044
6	128857	25760.609377975774	881.59589417104
6	128887	25766.557835903775	95.330641603355
6	128984	25786.039997787787	608.6313071753
6	129643	25917.968231394063	210.53275333438
6	129692	25928.531051138058	516.1486892215
6	129697	25929.62559477083	172.87016517767
6	129776	25944.855990568565	143.85488141206
6	129795	25950.256475246994	81.004236161523
6	129826	25957.343302891794	335.00638699058
6	129845	25962.524581652525	175.16969571508
6	129860	25965.704747632164	164.34916879301
6	129880	25969.69373254489	17.213338677194
6	129958	25983.206027107424	213.65429155221
6	129979	25987.790372226871	674.57413234381
6	129997	25992.089786103107	181.47424238466
6	130067	26005.038654124382	61.636996294225
6	130109	26013.286872154491	663.72543064078
6	130156	26024.251235730963	191.76671753335
6	130209	26035.114996904617	329.26859186577
6	130245	26043.111102500295	293.46576666937
6	130291	26050.510532527246	249.84644091896
6	130527	26097.473380679935	102.13933826786
6	130539	26101.245562593286	86.879949653395
6	130550	26104.29575679537	169.55051675485
6	130568	26108.590500492436	326.98041021103
6	130726	26138.588572898156	202.60774079068
6	130771	26147.546554023794	118.32783082436
6	130776	26148.436511727537	233.18567839232
6	130883	26169.546182553585	195.61661166911
6	131282	26244.83943739126	245.85702403385
6	131306	26249.301165244473	60.535077071785
6	131365	26260.071234089066	219.59573065741
6	131403	26267.572114319563	36.231436950389
6	131431	26273.196575290079	34.869929645263
6	131483	26285.151085727123	142.56541371996
6	131495	26287.13108160535	20.002187110053
6	131500	26288.248182078564	287.26707037305
6	131506	26290.52406568287	140.19713483107
6	131530	26296.502569745407	45.494972887659
6	131578	26306.796627001575	68.936445013605
6	131590	26308.658082873298	146.02406038497
6	131654	26320.364487158805	118.9377962902
6	131682	26326.086117962208	15.170277619849
6	131685	26327.093381068036	155.70300985694
6	131883	26365.456105857267	113.70545374466
6	131954	26380.671963126416	84.929349118902
6	131962	26382.611642961222	333.83262943308
6	132433	26475.015837177655	20.347698332388
6	132446	26478.047133619546	220.9237558063
6	132473	26482.592343911457	104.32135039223
6	132507	26488.543893858906	385.85464063299
6	132520	26491.791367691033	161.87151799561
6	132553	26498.565882853255	299.45096855023
6	132561	26500.560186905902	20.903917889397
6	132581	26504.52651359348	246.00145786147
6	132599	26508.69692619827	23.983102451617
6	132602	26509.669121662084	283.54639684997
6	132623	26513.829864665796	185.93449952414
6	132645	26517.751990046934	67.091325862541
6	132655	26519.92883285128	335.46419796258
6	132681	26526.025554049598	116.61988907241
6	132705	26531.817050019676	171.35094348256
6	132710	26532.970812762832	32.40527852445
6	132715	26534.01161771298	54.094243746212
6	132770	26545.481932693463	191.53953925971
6	132776	26547.154890601825	338.83209618012
6	132801	26552.014311096654	91.112526093238
6	132899	26570.370321086258	55.427324635448
6	132912	26573.69305761673	21.939124057767
6	132970	26586.21743691687	48.069319717773
6	132989	26591.194570156395	30.219222314019
6	133071	26606.977313870867	37.171276053221
6	133149	26622.844911361787	135.70743902612
6	133157	26624.627099520456	64.159331285809
6	133210	26639.342422119883	30.523257508391
6	133249	26648.031782134368	11.004927069896
6	133267	26651.935514997344	6.997272883005
6	133362	26677.217584662476	18.699001877576
6	133420	26703.313403538117	1.066359970439
6	133480	26744.476440009606	2.06543368974
6	133505	26750.609961234953	1.509187933638
6	133555	26771.663528385475	20.382901459727
6	133567	26793.56369174122	2.395760338954
6	133657	26817.925220935677	3.065235562622
6	133746	26836.955708915195	15.891221203677
6	133788	26845.718491620493	2.695658731151
6	133902	26867.566321656403	22.58815023447
6	134149	26916.493678951652	38.531415709692
6	134205	26928.458829819987	31.640782947112
6	134275	26943.048105930461	126.67041191952
6	134336	26955.571475409454	8.641613650064
6	134342	26957.562145962118	111.63701339601
6	135279	27139.605579186586	160.69347149587
6	135322	27148.201426125672	308.92991517526
6	135352	27154.400665546098	220.2434326899
6	135368	27158.47841497807	190.11677670629
6	135440	27173.260998410341	95.411836749083
6	135468	27179.49308001984	209.40906464516
6	135491	27184.707746534964	331.1768722838
6	135551	27196.148273517268	169.52649927929
6	135560	27197.263814197744	168.80475457442
6	135718	27232.445136050677	221.49635802275
6	135746	27236.463451424597	42.728482596345
6	135806	27248.260027580506	203.36302348339
6	135817	27251.498689596992	123.02894082887
6	135832	27254.118835479937	116.39324733403
6	135879	27263.367954272668	295.0214626625
6	135882	27264.265470834899	70.637057308642
6	135885	27265.398542866468	248.81425354737
6	135919	27273.183977777961	293.77309713004
6	135941	27277.468349992375	305.7088850684
6	135957	27281.515805761594	13.331902905168
6	135967	27283.405736146945	77.353960019855
6	135985	27287.512787945833	152.63050974722
6	136013	27293.887708329954	288.54933848148
6	136108	27310.814640117794	55.855904810125
6	136261	27340.976709472464	45.042785279679
6	136328	27354.44766711209	277.14854277281
6	136337	27357.240605780092	131.20700184765
6	136403	27369.675949193333	59.073585278853
6	136510	27392.543243096937	404.63217874313
6	136586	27406.307467492932	249.72417491451
6	136648	27418.280885754881	113.07745202377
6	136651	27419.357603493688	58.723430618543
6	136750	27438.512933023163	184.3086126067
6	137000	27488.324678380305	95.493641995994
6	137005	27489.505670979602	96.463897549291
6	137016	27492.364891023172	664.11042860779
6	137019	27493.246405778529	345.87035446605
6	137024	27494.340157414025	484.98659954732
6	137073	27503.360425790569	142.64292279031
6	137118	27512.722266614515	259.39353875661
6	137126	27514.697473880541	201.58918082752
6	137177	27525.444316793405	206.34389575067
6	137215	27532.588626923677	33.619128338581
6	137244	27539.810902547449	30.736315534098
6	137249	27540.93858557016	174.20907993043
6	137281	27547.134938246368	18.571858064353
6	137288	27548.109444729595	52.78540694786
6	137298	27550.30141970523	200.41308160321
6	137430	27578.125352071306	260.36890276298
6	137454	27583.962184728668	315.22553398966
6	137493	27592.454556497918	168.22471645238
6	137604	27613.536606880543	195.47779541513
6	137711	27629.900956179374	159.91513289973
6	137756	27638.69322998662	284.93782662554
6	137811	27649.280730676822	104.81208427033
6	137927	27673.902017234437	172.7243730859
6	137977	27684.311524387806	73.567118919851
6	138011	27691.89154575447	53.277021124582
6	138087	27707.968825231013	16.657445805797
6	138099	27709.623885744796	138.35215790438
6	138109	27711.301656835419	95.006611639585
6	138135	27715.293739620117	298.29544141898
6	138143	27717.418591624206	140.28457155727
6	138475	27781.666814236708	144.15372629774
6	138527	27791.366713857084	44.711914508594
6	138586	27802.583241469311	47.019886273841
6	138718	27828.646072741497	241.55717427367
6	138750	27836.79613719293	225.72761346104
6	138830	27852.222981537311	138.80636492249
6	138936	27871.946100137841	104.58698639201
6	138956	27876.014766299065	151.05611039199
6	139015	27887.469964951364	258.83093837726
6	139041	27893.620700550631	153.96512790172
6	139057	27897.475542472762	57.02557274229
6	139094	27906.814104409322	160.19955141681
6	139118	27910.899589734424	52.779993449876
6	139151	27917.540758747601	212.24137158646
6	139159	27919.431891701271	357.53142013787
6	139310	27950.625011614331	68.093343018104
6	139318	27952.684376831347	212.75929574186
6	139375	27964.104857724621	242.16605608984
6	139386	27966.926041720431	17.361675816423
6	139391	27967.98463965002	95.632330150396
6	139436	27977.697722252454	652.34630500891
6	139444	27979.764663904435	235.59548805013
6	139471	27984.69190564034	364.67044577774
6	139509	27992.363370589534	167.21932243027
6	139536	27997.14445603126	523.41078601356
6	139654	28018.110933209762	21.747245204705
6	139676	28023.647750233201	40.076218120097
6	139713	28030.196754068317	608.96376954131
6	139716	28031.172110580461	19.287659718593
6	139719	28032.305757503671	383.61916720886
6	139722	28033.479324483213	38.790571721519
6	139746	28039.056889490776	341.42519139272
6	139805	28050.53414771314	255.91293400123
6	140016	28091.248565411003	95.471176749653
6	140037	28096.167259149713	119.51452346827
6	140040	28097.308586261788	26.032232226082
6	140095	28108.977076553081	92.036713689862
6	140177	28125.536152193504	36.49342790664
6	140202	28130.480148604136	53.320751758978
6	140222	28134.487070964179	377.89828762845
6	140272	28144.597805475718	133.42829790313
6	140314	28152.508116473811	103.73646400758
6	140384	28166.369986586268	122.70907544486
6	140412	28173.05463145561	62.447562543833
6	140501	28190.50742027871	17.173148027734
6	140535	28198.321189254613	97.549893209029
6	140596	28208.973482998645	60.621111011173
6	140828	28254.631937316243	323.17416782254
6	140845	28257.619007614345	141.5430552783
6	140895	28266.828787512796	64.888577464418
6	141036	28295.369362729039	63.002779529275
6	141082	28305.363588009491	483.04959992807
6	141124	28313.496950814589	46.527112509737
6	141135	28316.514308751556	453.80884282811
6	141177	28324.939090272779	12.218918382764
6	141182	28326.112802850636	175.13791943984
6	141219	28333.008661110135	70.649512493643
6	141330	28353.128286007132	118.77972896415
6	141338	28355.003715881138	75.76710080232
6	141454	28376.876258612229	91.754860054273
6	141465	28379.607895388259	388.3691884712
6	141493	28385.605959947865	210.07492401248
6	141529	28393.517327957033	36.706027919279
6	141535	28395.567611050877	273.59016108799
6	141554	28398.86900062169	57.205915780185
6	141611	28409.948242428611	59.893616920613
6	141726	28433.267722035936	177.29263405981
6	141741	28436.19271452454	40.096765074005
6	141749	28437.990682919687	272.17828949184
6	141752	28438.819287959384	71.104739040336
6	141946	28476.471690981547	21.705370948776
6	141949	28477.375362285963	122.28415610627
6	141964	28479.844915157269	145.23602424383
6	141989	28484.833164275337	22.302239426787
6	142041	28494.554357031539	208.58074957892
6	142153	28517.502385883216	108.7376083845
6	142222	28531.629266722218	129.74755398052
6	142264	28539.920181332713	37.209429045902
6	142356	28557.751964415981	303.20598901595
6	142546	28596.268151127638	165.17789345818
6	142566	28599.847558031695	166.38918774622
6	142679	28623.21870921673	166.46356709764
6	142699	28627.728783640543	138.64180547757
6	142708	28630.720367576086	92.328743557166
6	142867	28661.230263991744	503.34697274431
6	142958	28677.664885279441	139.0285058258
6	143002	28686.005505942086	122.61362932102
6	143050	28695.866776939574	30.197849741304
6	143276	28740.278010282664	143.99009127488
6	143488	28783.56995325638	117.92027345925
6	143508	28787.338638814259	82.391768774362
6	143610	28807.343134269306	74.331669672582
6	143618	28809.200219155663	140.81941755871
6	143621	28810.142034009752	279.16447318311
6	143626	28811.148557188922	570.8022573532
6	143636	28813.196132413393	470.60942549263
6	143662	28819.156877634677	136.68901244525
6	143706	28827.319119089285	111.21082145024
6	143787	28843.268195295896	49.525695719434
6	143793	28845.1522830206	41.82012810571
6	143887	28863.369192643374	145.55563781422
6	143897	28865.153935977914	31.174081467214
6	143903	28867.026076702312	54.47981823176
6	143908	28868.068307211347	188.18902741601
6	143962	28879.808628213129	57.848195215751
6	143989	28884.807593776195	55.332230662198
6	144009	28888.855064110926	376.03633707164
6	144015	28890.976449952649	237.03905727873
6	144020	28891.876201117879	413.16579752803
6	144023	28892.75498894863	67.401517266484
6	144041	28896.793350329252	252.63996716591
6	144044	28897.829457687216	326.34631670869
6	144050	28899.957637688893	46.850595281699
6	144070	28906.37405357074	1.196747937519
6	144082	28910.616732864477	29.354779301011
6	144151	28926.258746208384	7.154825583518
6	144169	28930.024488715402	17.088163105707
6	144185	28934.026814377162	13.198304505149
6	144190	28949.625149855199	0.936055932008
6	144202	28957.969159684275	3.408354931909
6	144215	28961.461781991653	4.274524878275
6	144220	28975.27794893604	1.038684983365
6	144252	28992.090509007222	6.646441366322
6	144321	29005.298889976556	4.695853978416
6	144603	29069.1203974566	15.973678573652
6	144656	29080.079156128463	34.174350496913
6	144912	29128.674331883859	42.949953014343
6	144966	29138.697185980861	44.271200579933
6	145015	29149.684627841185	55.081234943262
6	145093	29166.884391073191	98.541507470921
6	145264	29200.801394776125	29.102508859628
6	145267	29201.925078791157	29.888957228963
6	145299	29208.040061086846	126.7729680293
6	145312	29211.068238848877	114.10102890069
6	145355	29219.476551531591	49.665579734161
6	145378	29224.737385451198	46.905654199386
6	145422	29234.163143800349	124.29675743893
6	145464	29242.608576732	190.98706635377
6	145479	29245.517929124051	130.52209566293
6	145490	29248.481897381005	216.16695069106
6	145546	29260.257129870039	97.107203797693
6	145551	29261.441565430407	164.01243067206
6	145609	29274.216987126129	88.833433903746
6	145612	29275.053898166208	164.46590093637
6	145665	29289.43733274419	52.47898398887
6	145709	29305.233047413585	11.946665038818
6	145944	29353.150089880273	31.990500621394
6	146338	29429.008181333925	126.5045971303
6	146381	29437.754579321397	28.412587748242
6	146426	29446.452061385391	65.580734627289
6	146438	29448.522916782563	65.996291103512
6	146444	29450.527319703446	59.015803448929
6	146451	29451.632300130473	19.392353512346
6	146488	29458.551255584611	131.24436610298
6	146563	29473.820100476228	69.12936555734
6	146584	29478.75139913001	149.37736202861
6	146599	29481.630957625256	92.449211700035
6	146609	29483.974781531011	14.162774423791
6	146637	29489.914916038243	87.120894945375
6	146648	29493.111822326118	118.0079529471
6	146833	29527.637205553341	107.5029735123
6	147164	29591.92357141693	139.68334923938
6	147170	29593.696294295051	95.99703243241
6	147173	29594.702727148504	110.00490666352
6	147359	29630.099069034688	203.78209606283
6	147377	29633.56168980087	234.38082990183
6	147390	29636.606814878535	26.591616954689
6	147541	29665.925745372016	108.37598883122
6	147559	29669.85777097103	222.16318796386
6	148544	29862.7332101253	408.030866308
6	148637	29882.04658427873	439.55400670014
6	148679	29890.344630387718	344.01792430213
6	148773	29909.942595251757	332.42930214341
6	148782	29910.782659414052	172.87872497125
6	148852	29924.367813521173	110.23245508432
6	148915	29937.844503878257	114.42572242044
6	148970	29948.403516141991	369.75655213885
6	149077	29970.077157975004	458.33118549948
6	149097	29974.047011262753	98.538603785931
6	149105	29975.804260973928	331.14406016959
6	149121	29980.022190552594	467.32589759714
6	149140	29984.999710180627	367.28570576437
6	149145	29986.132218800222	431.82803946472
6	149170	29991.310983220877	81.995001020197
6	149185	29994.339751805103	73.18731896431

