version 2
run Second_exit_5-1-20191017-13:43:54-1929
attr configname Second_exit_5
attr datetime 20191017-13:43:54
attr experiment Second_exit_5
attr inifile omnetpp.ini
attr iterationvars ""
attr iterationvarsf ""
attr measurement ""
attr network ResponseTimeNetwork
attr processid 1929
attr repetition 1
attr replication #1
attr resultdir results
attr runnumber 1
attr seedset 1
param **.Source.interArrivalTime exponential(5s)
param **.jobPriority bernoulli(0.6)
param **.PS.serviceTimeU1 "uniform(0.8s, 1.2s)"
param **.PS.serviceTimeU2 "uniform(1.8s, 2.2s)"
param **.SS1.serviceTime exponential(1s)
param **.SS2.serviceTime exponential(1.2s)
param **.PS.exitProbability bernoulli(0.5)

vector 0 ResponseTimeNetwork.SS1 queueLength:vector ETV
attr interpolationmode sample-hold
attr title "queue length, vector"
vector 1 ResponseTimeNetwork.SS2 queueLength:vector ETV
attr interpolationmode sample-hold
attr title "queue length, vector"
vector 2 ResponseTimeNetwork.QueueU1 queueLength:vector ETV
attr interpolationmode sample-hold
attr title "queue length, vector"
vector 3 ResponseTimeNetwork.QueueU2 queueLength:vector ETV
attr interpolationmode sample-hold
attr title "queue length, vector"
vector 4 ResponseTimeNetwork.sink lifeTimeU2:vector ETV
attr interpolationmode none
attr title "lifetime of arrived jobs U2, vector"
attr unit s
vector 5 ResponseTimeNetwork.sink lifeTime:vector ETV
attr interpolationmode none
attr title "lifetime of arrived jobs, vector"
attr unit s
vector 6 ResponseTimeNetwork.sink lifeTimeU1:vector ETV
attr interpolationmode none
attr title "lifetime of arrived jobs U1, vector"
attr unit s
0	0	0	0
0	147	88.975235898539	1
0	151	90.481957293612	0
0	162	92.544044319944	1
0	169	94.644136524597	0
0	534	238.458018952426	1
0	536	239.234211622924	0
0	787	394.08804283394	1
0	789	394.146753236349	0
0	1090	547.418734171569	1
0	1094	550.726103764	0
0	2375	1187.330749779065	1
0	2376	1189.215929182638	0
0	2765	1372.199425192432	1
0	2769	1372.52931355313	0
0	2772	1373.502278182612	1
0	2778	1374.463455899435	0
0	2781	1374.698870260411	1
0	2783	1374.733781084176	0
0	2805	1380.803134712906	1
0	2806	1381.79233680316	0
0	4290	2321.485580849663	1
0	4291	2323.256077684007	0
0	4295	2324.114549616642	1
0	4296	2324.978946049564	0
0	6980	3831.740950725269	1
0	6981	3832.247900064588	0
0	6985	3833.218301688526	1
0	6986	3833.493545250987	0
0	7046	3849.41429887781	1
0	7048	3849.669853602482	0
0	7051	3850.286421301161	1
0	7058	3851.451361940085	0
0	7742	4161.956096598849	1
0	7746	4162.973741974746	0
0	7765	4182.566181054257	1
0	7766	4182.584107171656	0
0	8305	4431.543601352822	1
0	8306	4432.27157350636	0
0	8360	4501.45329877959	1
0	8361	4501.640393629235	0
0	8485	4538.930080494167	1
0	8491	4541.996829092471	0
0	9035	4854.207628075605	1
0	9039	4854.618734455011	0
0	9160	4905.31960424923	1
0	9165	4908.050163716312	2
0	9166	4909.814416332511	1
0	9171	4913.129327196384	0
0	9312	4961.069631839562	1
0	9314	4961.951998812036	0
0	9622	5143.673378876139	1
0	9626	5145.059257151602	0
0	9632	5146.141762451405	1
0	9636	5146.345393372689	0
0	9792	5249.527428050653	1
0	9794	5249.540165462744	0
0	9812	5253.519457020644	1
0	9816	5254.690254581848	0
0	9946	5284.657666417509	1
0	9953	5285.758384252524	0
0	9956	5286.392916141935	1
0	9958	5286.587372166521	0
0	9961	5287.411017547101	1
0	9968	5288.467710847978	0
0	9998	5294.279602954463	1
0	10003	5295.61476731529	0
0	10024	5300.40168481676	1
0	10026	5300.691530942282	0
0	10130	5336.226934643727	1
0	10131	5336.51084870745	0
0	10294	5392.33571212982	1
0	10309	5395.978117804892	0
0	10320	5398.292263365403	1
0	10321	5398.968165156974	0
0	10725	5565.832432456095	1
0	10726	5566.763641645549	0
0	10977	5702.060216562797	1
0	10979	5702.348654343905	0
0	11557	5986.455073474304	1
0	11559	5987.404103761047	0
0	11600	6001.066520719029	1
0	11601	6001.355795866512	0
0	11745	6087.710819697717	1
0	11746	6088.920835946119	0
0	11900	6159.988442442174	1
0	11901	6160.255902769012	0
0	12040	6221.887768404176	1
0	12041	6222.019301024646	0
0	12582	6492.977254352573	1
0	12584	6493.139332691852	0
0	12600	6497.689119326313	1
0	12601	6497.731674762481	0
0	12605	6498.632036488076	1
0	12606	6499.471671028917	0
0	12620	6502.766795863413	1
0	12621	6503.520363345565	0
0	12625	6504.466497143088	1
0	12631	6504.882925837715	0
0	14210	7336.14333860224	1
0	14219	7340.060500883452	0
0	14965	7765.826025030763	1
0	14971	7767.65428211703	0
0	15110	7842.236058885999	1
0	15111	7842.491722790424	0
0	15120	7844.678106387511	1
0	15121	7845.011234462734	0
0	15125	7845.911975661579	1
0	15126	7846.778821299809	0
0	15130	7847.886600948243	1
0	15131	7847.951155685917	0
0	15451	7979.928722098781	1
0	15461	7983.162250060253	0
0	15465	7983.969216935747	1
0	15469	7984.622023880286	0
0	16872	8747.569711173283	1
0	16874	8747.579680723632	0
0	17959	9216.856463402967	1
0	17961	9217.192069459078	0
0	18035	9241.880183619855	1
0	18039	9243.095024661699	0
0	18042	9243.13818223835	1
0	18044	9243.881594741565	0
0	18047	9244.021047420381	1
0	18049	9244.153295550182	0
0	18114	9259.098736359683	1
0	18116	9259.226226315708	0
0	18870	9714.962392563228	1
0	18871	9715.053349878121	0
0	18877	9716.222021819599	1
0	18879	9716.987648408264	0
0	18925	9727.750644579555	1
0	18936	9729.580056803274	0
0	18940	9730.426638302739	1
0	18941	9730.717385061843	0
0	18945	9731.635036543863	1
0	18946	9732.523977582452	0
0	18950	9733.49882170364	1
0	18951	9733.673128872215	0
0	19047	9761.516224336309	1
0	19049	9761.658614737684	0
0	19187	9791.026822753311	1
0	19189	9791.039593037364	0
0	19202	9794.001345744045	1
0	19204	9794.871353772131	0
0	19392	9849.772824924839	1
0	19396	9854.749064019855	0
0	19545	9927.479247678005	1
0	19546	9928.336817458824	0
0	19550	9929.270021726277	1
0	19554	9931.577244026439	0
0	20427	10450.987412211446	1
0	20429	10451.41959947223	0
0	20432	10452.144389212651	1
0	20434	10452.230162295287	0
0	20444	10454.013457845206	1
0	20446	10455.008262417592	0
0	21157	10836.190253062661	1
0	21161	10836.863499542886	0
0	21169	10838.049412791918	1
0	21174	10839.573133319125	0
0	21237	10851.896045619563	1
0	21241	10853.035144499782	0
0	21247	10854.12765421411	1
0	21249	10854.590299315221	0
0	21449	10941.279501447729	1
0	21451	10942.078793924545	0
0	21454	10942.299829799025	1
0	21458	10942.585808700346	0
0	21461	10943.253985573812	1
0	21468	10944.567921828224	0
0	22605	11550.401042199134	1
0	22606	11550.650500309421	0
0	22622	11553.76999028218	1
0	22624	11554.735510481168	0
0	22862	11707.992710023855	1
0	22866	11711.403322022667	0
0	23014	11790.167913928477	1
0	23024	11791.883543479385	2
0	23031	11793.049216719462	1
0	23033	11793.271444046813	0
0	23036	11793.821773098817	1
0	23038	11794.743212736849	0
0	23170	11839.388969301998	1
0	23171	11840.518227973249	0
0	23196	11844.038106717304	1
0	23201	11845.703526924199	0
0	23204	11846.22337161316	1
0	23206	11847.174006923558	0
0	23230	11852.015926696029	1
0	23231	11852.269883294308	0
0	23595	12079.625835499912	1
0	23599	12079.987618281195	0
0	23605	12081.880350229642	1
0	23606	12081.885789496823	0
0	23865	12233.266943079329	1
0	23866	12233.820847455936	0
0	23870	12234.656904963276	1
0	23871	12234.762552089284	0
0	23894	12238.973968106549	1
0	23896	12239.372347121858	0
0	24057	12306.624160396229	1
0	24061	12307.142442310368	0
0	24190	12358.028292398319	1
0	24191	12358.070849558522	0
0	24275	12392.457229164858	1
0	24276	12392.763255629146	0
0	24280	12393.802682003861	1
0	24281	12395.023606430708	0
0	24322	12404.420533164342	1
0	24324	12405.169673657585	0
0	24335	12407.386460330089	1
0	24336	12407.967469220367	0
0	24415	12456.149363478006	1
0	24420	12457.474146985641	2
0	24421	12458.623334936724	1
0	24424	12458.66234204227	0
0	24435	12461.689690035136	1
0	24441	12469.100769634132	0
0	24805	12627.925790560881	1
0	24806	12628.556889596303	0
0	25170	12810.770560078626	1
0	25171	12811.074101753679	0
0	25185	12814.379896921997	1
0	25190	12815.487454109538	2
0	25191	12816.732450625038	1
0	25195	12817.656951043958	2
0	25196	12820.719747440777	1
0	25201	12822.318925359208	0
0	25915	13226.449405961357	1
0	25916	13226.489811684797	0
0	26330	13438.824200958665	1
0	26331	13440.408366592174	0
0	26590	13535.796749105152	1
0	26591	13536.043824486466	0
0	26615	13542.479422081404	1
0	26619	13543.379920173492	0
0	26627	13545.134301962625	1
0	26629	13545.795552804196	0
0	26632	13546.138978117719	1
0	26641	13548.50376961672	0
0	26805	13644.492782055397	1
0	26806	13645.727576534457	0
0	26812	13646.790546289838	1
0	26814	13647.048524674134	0
0	27375	13933.843769640716	1
0	27376	13935.266100270571	0
0	27380	13936.279858821528	1
0	27381	13938.874220238106	0
0	27722	14096.219536594258	1
0	27726	14098.153950791148	0
0	28015	14274.810214029669	1
0	28019	14275.345391495066	0
0	28024	14275.924722616244	1
0	28035	14278.893772003297	2
0	28039	14279.997733123004	1
0	28042	14280.309906386747	2
0	28046	14283.11823316601	1
0	28049	14283.54406250187	0
0	28054	14284.261451856074	1
0	28056	14284.573318665762	0
0	28069	14287.108204636377	1
0	28071	14287.496091837098	0
0	28076	14288.27039985082	1
0	28078	14288.697833483016	0
0	28089	14291.094431178857	1
0	28096	14293.967505910217	0
0	29152	14894.856220144227	1
0	29154	14895.240515322397	0
0	29157	14895.678560670007	1
0	29160	14896.835472004123	2
0	29161	14897.681022265341	1
0	29164	14897.743714341914	0
0	29390	15019.579232302353	1
0	29391	15021.203277652808	0
0	30145	15391.562179094938	1
0	30146	15391.978833366172	0
0	30670	15743.497558192662	1
0	30671	15744.543274786835	0
0	30790	15793.563579023162	1
0	30791	15796.218900225081	0
0	31509	16158.629206888148	1
0	31511	16159.011609915547	0
0	31825	16307.050872607089	1
0	31826	16308.263881735467	0
0	34249	17693.235868137179	1
0	34251	17693.753401891372	0
0	34570	17872.926357380031	1
0	34571	17872.965311252586	0
0	34655	17902.189175428827	1
0	34659	17902.898030771815	0
0	34835	17963.458100256241	1
0	34845	17969.202168885223	2
0	34846	17971.672111880619	1
0	34849	17971.713542105585	0
0	34854	17972.631040316287	1
0	34856	17972.775464495491	0
0	35179	18222.112261963065	1
0	35181	18223.026107965051	0
0	35187	18224.069042202725	1
0	35193	18224.527131343589	0
0	35295	18263.669999489989	1
0	35296	18264.465848746343	0
0	35300	18265.310044411762	1
0	35301	18266.165825440197	0
0	35327	18271.215281746651	1
0	35331	18271.988529013228	0
0	35334	18272.323825939673	1
0	35336	18273.030583916247	0
0	35339	18273.439213672581	1
0	35341	18273.507710382018	0
0	35352	18276.213669061402	1
0	35356	18278.396192320115	0
0	35360	18279.38907054733	1
0	35361	18279.905482677892	0
0	35505	18325.436286974977	1
0	35506	18325.50519793793	0
0	35676	18421.148118277211	1
0	35678	18422.278772913101	0
0	35757	18441.016506475798	1
0	35759	18441.671655842757	0
0	35814	18452.126082153647	1
0	35816	18452.60549086347	0
0	35819	18453.220935630361	1
0	35821	18453.41425046115	0
0	35940	18524.018847174764	1
0	35941	18524.701087684198	0
0	36160	18676.831628661689	1
0	36161	18678.450536219103	0
0	36222	18691.920051200586	1
0	36224	18692.010452323571	0
0	36360	18760.145990262999	1
0	36361	18761.633501571341	0
0	36409	18771.377467114124	1
0	36411	18771.634020294645	0
0	36414	18772.542181801535	1
0	36416	18772.633279718972	0
0	36427	18775.390332813859	1
0	36429	18775.818000629411	0
0	36437	18777.100019295998	1
0	36439	18777.558635661073	0
0	36502	18800.499333356555	1
0	36506	18803.612000536348	0
0	36670	18926.134444071999	1
0	36671	18926.219817301526	0
0	36939	19112.689158535597	1
0	36947	19114.693764249363	2
0	36951	19115.902499200176	1
0	36959	19116.747235167857	0
0	37162	19189.285271761184	1
0	37164	19190.294282482385	0
0	37170	19191.272696228874	1
0	37171	19192.106910396488	0
0	37532	19440.26883306629	1
0	37534	19440.826141070077	0
0	37712	19536.975191489194	1
0	37714	19537.298521804378	0
0	37851	19590.661392282484	1
0	37853	19590.820802896549	0
0	38005	19668.751422048159	1
0	38006	19668.923141990504	0
0	38412	19866.687919339528	1
0	38416	19867.786110988082	0
0	38514	19904.828717041437	1
0	38516	19905.448427341016	0
0	38529	19907.822418308866	1
0	38534	19909.514985251161	0
0	39025	20107.5077819164	1
0	39026	20109.126457663383	0
0	39375	20283.497188487555	1
0	39376	20284.339655829537	0
0	39637	20437.519696726767	1
0	39641	20439.070510740915	0
0	40152	20712.114543906776	1
0	40154	20712.871895697035	0
0	40157	20713.123992983149	1
0	40159	20713.750997466143	0
0	40162	20714.127804911593	1
0	40166	20715.256165549038	0
0	40547	20867.164366653881	1
0	40549	20867.505729730446	0
0	40680	20912.570644618323	1
0	40681	20912.63528600073	0
0	40710	20919.709929821758	1
0	40711	20920.378670660142	0
0	40738	20924.31730974048	1
0	40740	20925.255371799212	0
0	40765	20929.334420888606	1
0	40767	20930.054880779081	0
0	40770	20930.228114909879	1
0	40781	20933.594066577431	0
0	41115	21123.219846496682	1
0	41119	21123.735237860626	0
0	41265	21192.742256246284	1
0	41269	21194.099034198586	0
0	41452	21316.62999683867	1
0	41454	21317.28320321305	0
0	41705	21455.371058434417	1
0	41706	21457.967465850879	0
0	41847	21523.675683974154	1
0	41849	21523.876930388032	0
0	42582	21901.098719698798	1
0	42584	21901.253996785037	0
0	42597	21904.298099671353	1
0	42599	21904.506157244215	0
0	43360	22444.683118437851	1
0	43364	22445.05369994588	0
0	43694	22597.15619114372	1
0	43701	22600.802228518359	0
0	43707	22601.716601251781	1
0	43711	22603.162577234226	0
0	43795	22636.819254630068	1
0	43799	22639.578018922498	0
0	43807	22640.735277218394	1
0	43809	22640.743951704585	0
0	44392	22896.221391877351	1
0	44396	22896.386853368516	0
0	44960	23250.162640247096	1
0	44961	23250.363017579149	0
0	44975	23253.427133319601	1
0	44976	23254.238539115459	0
0	45001	23258.315048451468	1
0	45006	23260.266004326317	0
0	45195	23307.795951833278	1
0	45199	23308.975002776191	0
0	45233	23314.811116939642	1
0	45235	23315.059788463856	0
0	45562	23489.092189137152	1
0	45564	23489.323999099191	0
0	46227	23821.349906556955	1
0	46229	23822.080685578646	0
0	46245	23825.311507389037	1
0	46246	23826.434593958329	0
0	46697	24045.796795157491	1
0	46699	24045.89624784097	0
0	46904	24141.345673298149	1
0	46906	24141.555574013053	0
0	46909	24142.362266435439	1
0	46914	24143.51456725786	0
0	47062	24194.373826120524	1
0	47069	24195.781455018001	0
0	47085	24199.519271358857	1
0	47104	24203.115792216187	0
0	47119	24206.193922526697	1
0	47124	24207.357928813743	2
0	47126	24207.504443458932	1
0	47131	24208.641657037021	0
0	47160	24213.401105297013	1
0	47163	24214.277360118582	2
0	47166	24215.111760799429	3
0	47170	24215.697121398508	2
0	47173	24216.169806665397	3
0	47175	24216.731443310995	2
0	47184	24219.106937143142	3
0	47186	24219.701321546545	2
0	47191	24221.002808076526	1
0	47206	24223.357345910921	0
0	47610	24444.409073174632	1
0	47611	24444.808038939056	0
0	47815	24563.906564438074	1
0	47816	24564.582642616312	0
0	47845	24586.760358842308	1
0	47846	24587.262610125748	0
0	47852	24588.170262846743	1
0	47855	24589.095628647992	2
0	47860	24590.528104672018	3
0	47864	24591.524333236584	2
0	47867	24591.636261134296	3
0	47870	24592.447638769615	4
0	47871	24593.4935477026	3
0	47874	24593.750492903224	2
0	47876	24594.367250987291	1
0	47881	24595.195624602092	0
0	47884	24595.815973886215	1
0	47889	24596.983894355428	2
0	47892	24598.093673625049	3
0	47894	24598.11210622267	2
0	47896	24598.167339028373	1
0	47899	24598.996930319463	2
0	47904	24600.029909524714	3
0	47906	24600.13449475699	2
0	47908	24600.815715040571	1
0	47913	24600.919191915254	0
0	47924	24604.11198917052	1
0	47927	24605.090594321976	2
0	47929	24605.817286722875	1
0	47931	24605.977550584636	0
0	47934	24606.058309754937	1
0	47937	24607.231493616964	2
0	47939	24607.787260218881	1
0	47941	24607.796764331568	0
0	47944	24608.039936461508	1
0	47949	24609.594079126524	0
0	47970	24614.149272844494	1
0	47971	24614.831825571378	0
0	48140	24692.303371100633	1
0	48141	24692.398769365952	0
0	48180	24704.438083848089	1
0	48181	24705.053044154494	0
0	48309	24753.901049458148	1
0	48311	24754.068067381437	0
0	48332	24758.989829326333	1
0	48334	24759.054532962278	0
0	48675	24927.344567909594	1
0	48676	24927.39674525177	0
0	48910	25047.975590020091	1
0	48911	25049.056669053606	0
0	49070	25122.39420165733	1
0	49071	25122.611018646195	0
0	49075	25123.719925539627	1
0	49076	25125.301979989869	0
0	49292	25217.149019439808	1
0	49295	25218.037843917693	2
0	49296	25218.455256748306	1
0	49301	25219.712205699251	0
0	49780	25462.498103921139	1
0	49781	25462.56573808445	0
0	49977	25542.424509078626	1
0	49979	25543.006731320314	0
0	50447	25766.2304759285	1
0	50451	25768.130510779249	0
0	51095	26113.000230675227	1
0	51099	26114.740943151115	0
0	51107	26115.83860975391	1
0	51111	26117.315296216624	0
0	51337	26208.514888613925	1
0	51347	26210.668115425923	2
0	51349	26210.995687903558	1
0	51355	26211.275918512117	0
0	51361	26212.76088868405	1
0	51363	26212.853372061344	0
0	51381	26216.498418691077	1
0	51383	26217.338751373942	0
0	51386	26217.556475725	1
0	51388	26217.943786670717	0
0	51414	26223.878454087836	1
0	51416	26224.900981164934	0
0	52099	26593.625046146933	1
0	52115	26597.427412466231	2
0	52119	26600.931810584603	1
0	52124	26601.571200308089	0
0	52210	26622.048906964152	1
0	52211	26622.602689821677	0
0	52292	26676.450549367365	1
0	52294	26676.611449703073	0
0	52590	26851.594238696739	1
0	52591	26852.330731389015	0
0	52736	26941.962629503023	1
0	52741	26942.820984358865	0
0	53010	27105.077037029801	1
0	53011	27105.415816572816	0
0	53235	27253.133492122545	1
0	53236	27255.97568984067	0
0	53244	27257.103410293422	1
0	53246	27257.214911268398	0
0	53740	27490.831808004652	1
0	53741	27491.057641294218	0
0	53936	27580.586139341028	1
0	53938	27580.955491959216	0
0	54020	27596.702510111643	1
0	54022	27597.332769836248	0
0	54025	27597.740446479855	1
0	54030	27599.154934663112	0
0	54033	27599.560050329617	1
0	54035	27599.749436938038	0
0	54785	27966.659052540919	1
0	54786	27967.210459620829	0
0	54805	27971.241467294327	1
0	54806	27972.949866192662	0
0	54815	27975.283303099	1
0	54816	27976.553992499147	0
0	55075	28094.988899526738	1
0	55076	28095.844915683546	0
0	55445	28240.817197096406	1
0	55449	28241.619735244304	0
0	56160	28642.650414569312	1
0	56161	28642.705792671963	0
0	56267	28688.48662600731	1
0	56271	28689.537765787728	0
0	57025	29117.224503232032	1
0	57026	29117.659618488205	0
0	57342	29290.596760770533	1
0	57346	29291.835530977187	0
0	57542	29380.496362355473	1
0	57544	29380.834209174918	0
0	58470	29808.150427744324	1
0	58471	29809.516795857299	0
0	58475	29810.493488214958	1
0	58481	29811.723279576977	0
0	58484	29811.860293088057	1
0	58489	29812.88854978587	0
0	58770	29968.145635736194	1
0	58771	29968.226706363947	0
0	58782	29970.164256251824	1
0	58785	29971.32599102914	2
0	58786	29971.629038588233	1
0	58789	29971.701838401471	0
0	58822	29978.483706064611	1
0	58827	29979.394187967568	2
0	58831	29981.395965625741	1
0	58834	29981.791181982954	0
0	58837	29982.520182671607	1
0	58842	29983.700031534233	2
0	58849	29984.913844827518	1
0	58851	29985.500283073627	0
1	0	0	0
1	87	75.287682402219	1
1	89	75.407146699311	0
1	400	203.440539542245	1
1	401	203.444152904073	0
1	495	231.43090404567	1
1	496	231.612763918008	0
1	2020	1028.555435037626	1
1	2026	1030.453047687857	0
1	4545	2458.201186019246	1
1	4546	2459.328695825519	0
1	4762	2570.143416434246	1
1	4773	2572.27550877572	0
1	5700	3122.479994621278	1
1	5701	3122.585288991215	0
1	5710	3124.669483374241	1
1	5711	3125.295264765115	0
1	7079	3856.343649277967	1
1	7083	3856.391392591883	0
1	7320	3963.696101574383	1
1	7321	3963.717190007793	0
1	7647	4116.159347713748	1
1	7649	4116.538244766307	0
1	8512	4546.304403143811	1
1	8516	4546.726148664845	0
1	8547	4553.148113410704	1
1	8551	4554.996981767949	0
1	8940	4796.170905212419	1
1	8941	4796.48540180288	0
1	9390	4993.302296285385	1
1	9391	4995.136453952015	0
1	9875	5270.177117646014	1
1	9886	5272.464258871079	0
1	9927	5281.402100209352	1
1	9931	5282.073607931704	0
1	10215	5375.972859167045	1
1	10216	5377.584500886883	0
1	10572	5503.650376947832	1
1	10574	5503.719091559047	0
1	10594	5507.690828999926	1
1	10603	5509.076250469022	0
1	10614	5511.71087981458	1
1	10621	5514.221198697294	0
1	12382	6384.399202875204	1
1	12386	6387.861993138394	0
1	12395	6389.805629691943	1
1	12396	6394.483411733319	0
1	12420	6399.357992544656	1
1	12421	6400.378243520927	0
1	13922	7162.496949133987	1
1	13924	7163.062246906238	0
1	14440	7433.927555554612	1
1	14441	7434.854899193406	0
1	14445	7435.993419374306	1
1	14446	7436.391762465308	0
1	15245	7889.758586297794	1
1	15254	7891.150080413087	0
1	15752	8104.64003853525	1
1	15759	8107.017296237439	0
1	15970	8170.267972101126	1
1	15974	8171.544693492671	0
1	15980	8172.801675023625	1
1	15984	8173.267693660648	0
1	16910	8758.85225569974	1
1	16911	8759.263273128126	0
1	16915	8760.243066233121	1
1	16916	8760.674997340544	0
1	16920	8761.614616832538	1
1	16924	8763.19258268521	0
1	17422	8981.959200276422	1
1	17424	8982.040441597465	0
1	17472	8992.086454344622	1
1	17476	8995.066462428446	0
1	17480	8996.184547835819	1
1	17481	8996.333353646764	0
1	17507	9001.287690308422	1
1	17510	9002.286592995107	2
1	17511	9003.425310028582	1
1	17514	9003.449613231729	0
1	17557	9013.344530136501	1
1	17559	9013.727461701581	0
1	17947	9214.504780063304	1
1	17954	9216.079814785737	0
1	17992	9224.04719339869	1
1	17994	9224.108979331711	0
1	19072	9766.361354219785	1
1	19075	9767.397679755056	2
1	19076	9768.017392947676	1
1	19079	9768.154295101551	0
1	19087	9770.251955737139	1
1	19092	9771.219282261155	2
1	19094	9771.402903280553	1
1	19106	9774.257055026925	0
1	19112	9775.451201191325	1
1	19114	9775.567927234346	0
1	19117	9776.284842122965	1
1	19120	9777.147566180271	2
1	19121	9777.932709360275	1
1	19124	9778.084750260064	0
1	19370	9840.701667067198	1
1	19371	9840.842222486501	0
1	19865	10128.199352694827	1
1	19866	10128.675312011167	0
1	20162	10270.097092065038	1
1	20164	10270.61382786603	0
1	20865	10690.060020466571	1
1	20866	10690.15927402474	0
1	24495	12510.731842858003	1
1	24496	12510.91631291729	0
1	24687	12591.952476602031	1
1	24689	12592.415242178549	0
1	24904	12674.431383875418	1
1	24908	12674.632490297215	0
1	25315	12894.129455585963	1
1	25316	12894.149567351049	0
1	25322	12895.283332437674	1
1	25326	12896.405336068565	0
1	25615	13064.448903190216	1
1	25616	13065.277839664087	0
1	25620	13066.296981280759	1
1	25629	13067.749801167338	0
1	26015	13279.428247142916	1
1	26019	13279.884303087047	0
1	28577	14578.490839737525	1
1	28579	14578.952408867192	0
1	28582	14579.462196563335	1
1	28587	14580.616445327701	2
1	28589	14581.26160929397	1
1	28595	14582.600937949085	2
1	28596	14582.762556354948	1
1	28599	14583.161526014388	0
1	28925	14796.383075080794	1
1	28926	14797.6954893791	0
1	29225	14923.982127566388	1
1	29229	14925.419676017064	0
1	29792	15209.604446057543	1
1	29799	15211.337247262178	0
1	29802	15211.780926702764	1
1	29804	15211.929191387668	0
1	29807	15212.718292592593	1
1	29809	15213.569364519338	0
1	29815	15214.898917582852	1
1	29819	15216.779433436789	0
1	29825	15219.05870528028	1
1	29826	15221.003798933653	0
1	29910	15247.705815088371	1
1	29911	15248.478440060464	0
1	30495	15642.26483401605	1
1	30496	15643.49098217066	0
1	30500	15644.426749180049	1
1	30501	15645.54824131452	0
1	31055	15937.140916872847	1
1	31056	15937.84120576334	0
1	31060	15938.838838275976	1
1	31061	15939.30403962024	0
1	31215	16031.091146746921	1
1	31216	16031.965064332183	0
1	31537	16164.49130114266	1
1	31539	16164.571091774227	0
1	31905	16378.033081608221	1
1	31906	16378.347903782792	0
1	32507	16724.828146071638	1
1	32511	16726.086801083701	0
1	32930	17010.315170353582	1
1	32934	17011.907911716466	0
1	32940	17013.409029061531	1
1	32941	17015.473402079109	0
1	32985	17031.014995883454	1
1	32989	17032.138207203532	0
1	33105	17090.562474706936	1
1	33106	17090.894279888726	0
1	33110	17091.968133318785	1
1	33111	17095.3306288409	0
1	33296	17186.469715923405	1
1	33298	17186.72081917311	0
1	33877	17453.720512976617	1
1	33879	17454.464299431886	0
1	33885	17455.734881588005	1
1	33886	17457.052979809901	0
1	37100	19170.895198094822	1
1	37101	19172.655903408588	0
1	37392	19336.811596781025	1
1	37395	19337.830095383534	2
1	37396	19338.086091801876	1
1	37404	19340.116305936479	0
1	38265	19811.652045059904	1
1	38266	19812.084799320529	0
1	38270	19813.002627540192	1
1	38271	19813.432507001767	0
1	38280	19815.328946443061	1
1	38281	19815.773109338536	0
1	38610	19926.177476806664	1
1	38611	19927.510991462875	0
1	38620	19929.752520292621	1
1	38621	19929.911441750839	0
1	38965	20088.037775352363	1
1	38981	20092.057844662868	0
1	40220	20732.223292175035	1
1	40221	20735.246421657787	0
1	40387	20816.854218824048	1
1	40389	20817.259161209649	0
1	41537	21350.638465086221	1
1	41541	21353.020571663042	0
1	42340	21778.144563399643	1
1	42344	21778.759883588642	0
1	42380	21786.484043308883	1
1	42384	21787.950679404219	0
1	42665	21927.9385792148	1
1	42669	21928.940780732743	0
1	43460	22496.325848173984	1
1	43461	22496.730253254667	0
1	43855	22655.695160342177	1
1	43856	22656.282035268311	0
1	43962	22682.752518835218	1
1	43964	22683.834990115789	0
1	43985	22688.171322647266	1
1	43986	22688.628561600534	0
1	43992	22689.575202053929	1
1	43996	22690.547714316474	0
1	44835	23153.520220668999	1
1	44836	23154.433095467431	0
1	45127	23285.979563883171	1
1	45131	23287.519171574478	0
1	46050	23763.167840779299	1
1	46054	23763.70450690015	0
1	46195	23809.514854279793	1
1	46196	23810.448248865728	0
1	46640	24022.627411697233	1
1	46641	24023.29010404856	0
1	46990	24177.15742535791	1
1	46991	24177.859179947633	0
1	47280	24253.954061451179	1
1	47281	24255.641138404805	0
1	48057	24662.002253230023	1
1	48059	24662.160732247288	0
1	48067	24663.766155837676	1
1	48071	24666.334936349687	0
1	48077	24667.415331350301	1
1	48081	24670.722452811242	0
1	49829	25471.757068747005	1
1	49831	25472.172220773386	0
1	50405	25756.47057760393	1
1	50409	25758.120603568189	0
1	51250	26187.347761175751	1
1	51251	26188.468387557611	0
1	51255	26189.61526443702	1
1	51256	26189.622756612465	0
1	51745	26395.427080596658	1
1	51746	26396.249983587076	0
1	51772	26401.214457441582	1
1	51776	26401.799722394055	0
1	52077	26589.584223840751	1
1	52082	26590.685316982206	2
1	52084	26591.42204351096	1
1	52096	26593.274177524643	0
1	52770	26949.938630559493	1
1	52771	26950.270741352862	0
1	53465	27342.964483162006	1
1	53466	27343.062022825485	0
1	53470	27344.036933997428	1
1	53471	27344.456158679423	0
1	53485	27347.368576920477	1
1	53486	27349.078392417685	0
1	53590	27386.82654226091	1
1	53591	27387.339422553226	0
1	53595	27388.474739782054	1
1	53596	27388.902025496301	0
1	53820	27550.585033413399	1
1	53821	27550.604846036612	0
1	53943	27581.544502992699	1
1	53945	27582.141308336829	0
1	54307	27771.068374473964	1
1	54311	27772.882999962884	0
1	54520	27886.594834737627	1
1	54524	27886.912245939947	0
1	54592	27900.881330804339	1
1	54594	27901.409668965974	0
1	54897	28015.082074254694	1
1	54900	28016.269898387733	2
1	54901	28016.391391467415	1
1	54904	28016.416418551244	0
1	54907	28017.327008688655	1
1	54916	28021.59577698902	0
1	56450	28780.322262386544	1
1	56451	28780.460492298068	0
1	57405	29305.659101608519	1
1	57406	29309.395096544627	0
1	57617	29396.023279078985	1
1	57624	29398.612753526357	0
1	58115	29644.473749908068	1
1	58116	29644.533023044928	0
1	58322	29722.300513615843	1
1	58324	29723.113843152813	0
1	58875	29991.127290608311	1
1	58876	29991.279185592022	0
2	0	0	0
2	15	32.855201423597	1
2	16	32.898588875682	0
2	20	33.322565354489	1
2	21	33.966487291829	0
2	45	39.694661503373	1
2	46	40.384574543464	0
2	75	72.510038847021	1
2	76	72.881263117755	0
2	85	74.848577415647	1
2	86	75.287682402219	0
2	97	76.837720049865	1
2	98	77.216800375461	0
2	105	78.733167421892	1
2	108	79.29514170251	0
2	130	85.759814198673	1
2	131	85.987162564535	0
2	135	86.265396642124	1
2	137	86.901669302041	2
2	138	86.902272701755	1
2	142	88.038074622879	2
2	143	88.069017235495	1
2	146	88.975235898539	0
2	155	90.536796387336	1
2	158	91.508322105029	0
2	170	94.644136524597	1
2	171	94.766876298138	0
2	175	94.889720579763	1
2	177	95.178667557981	2
2	178	95.844636361343	1
2	181	96.664617744875	0
2	190	98.769009449835	1
2	192	99.040447175453	2
2	193	99.40349112991	1
2	196	100.55674131857	0
2	215	122.645064513415	1
2	216	122.912328802777	0
2	250	139.039812864252	1
2	251	139.737893842021	0
2	275	145.252758048211	1
2	276	146.09091863284	0
2	280	147.045860084632	1
2	281	147.137776599416	0
2	287	147.920962816084	1
2	288	148.148599841782	0
2	350	192.027426961514	1
2	351	192.960518685674	0
2	357	193.734509537826	1
2	358	193.853222071046	0
2	365	195.030630055016	1
2	366	195.676223080365	0
2	375	197.253714392464	1
2	376	197.700963290477	0
2	435	219.23854993702	1
2	436	219.308845728046	0
2	444	220.201804008049	1
2	445	220.209776026725	0
2	459	223.118518623968	1
2	460	223.336209706745	0
2	474	225.953319054349	1
2	475	226.164351698073	0
2	507	233.4468004071	1
2	508	233.700836362693	0
2	517	235.045721715347	1
2	518	235.858420011126	0
2	524	236.547701626308	1
2	525	236.696587708876	0
2	529	237.137364524041	1
2	530	237.6007137497	0
2	537	239.234211622924	1
2	538	239.63042412382	0
2	542	240.254366439851	1
2	543	240.640292246457	0
2	555	243.534590573427	1
2	556	243.888623416442	0
2	565	251.080012804168	1
2	568	251.250785948362	0
2	585	267.521970306414	1
2	586	268.652336069256	0
2	597	270.491563841801	1
2	598	270.674860907685	0
2	605	272.5617888901	1
2	606	272.807516662929	0
2	615	273.831121729173	1
2	616	274.603379218619	0
2	655	301.399638601692	1
2	656	302.492911112814	0
2	675	330.94492894796	1
2	676	331.008744057567	0
2	710	352.380120440139	1
2	711	352.939799896206	0
2	730	367.548073070543	1
2	731	367.981997445143	0
2	770	390.662075124798	1
2	772	390.779281846437	2
2	773	390.800063254689	1
2	776	391.8246468382	0
2	782	392.00836633018	1
2	783	393.014167670724	0
2	790	394.146753236349	1
2	792	394.572172148396	2
2	796	394.703101140349	3
2	797	394.997602963918	2
2	802	396.171551842992	1
2	805	397.178589437906	0
2	809	397.195189219552	1
2	812	398.079536119201	0
2	819	400.009854073833	1
2	820	400.239777362538	0
2	850	413.112746370974	1
2	852	413.365678978115	2
2	855	414.14392952913	1
2	860	415.293914189688	0
2	864	415.623504015384	1
2	865	416.321711954228	0
2	869	416.660953692134	1
2	870	417.308463963061	0
2	874	417.563407767049	1
2	875	418.447272876124	0
2	882	419.732770727658	1
2	883	420.749306860319	0
2	890	422.210379534051	1
2	891	422.800634232102	0
2	900	424.370135192679	1
2	901	424.611133047597	0
2	965	455.680443778235	1
2	966	456.200123042445	0
2	1055	517.225113156211	1
2	1056	517.439792324964	0
2	1095	550.726103764	1
2	1096	550.901987500169	0
2	1100	551.120267017113	1
2	1101	551.88477763306	0
2	1105	552.113088009264	1
2	1107	552.238952911954	2
2	1108	552.888184129033	1
2	1111	554.007625826593	0
2	1115	554.360495711269	1
2	1116	555.003228746965	0
2	1120	555.230975788742	1
2	1124	555.83790610589	2
2	1125	556.040601728908	1
2	1129	556.743655164943	2
2	1130	557.140545053552	1
2	1133	558.156925776932	0
2	1145	561.361758597769	1
2	1146	562.235764531121	0
2	1172	566.620326733562	1
2	1173	567.085052113587	0
2	1205	583.521302014298	1
2	1206	584.255478191423	0
2	1245	624.618426746885	1
2	1248	625.539150195057	0
2	1300	655.41745532468	1
2	1301	656.304633152297	0
2	1380	714.650172474493	1
2	1381	715.419550671071	0
2	1460	752.143074287766	1
2	1462	752.786978983644	2
2	1463	753.210771918665	1
2	1466	754.239058257449	0
2	1475	755.802680531398	1
2	1476	756.418817354827	0
2	1480	757.135128133917	1
2	1481	757.340501685063	0
2	1505	765.244120407575	1
2	1506	765.768307454444	0
2	1520	770.789670229984	1
2	1521	770.931812933492	0
2	1550	784.052312154173	1
2	1552	784.196260984984	2
2	1553	784.864294190931	1
2	1558	785.799777400813	0
2	1650	840.508288643588	1
2	1651	841.352905693488	0
2	1655	842.309402355884	1
2	1656	842.462425408257	0
2	1660	843.020582588537	1
2	1661	843.472135769507	0
2	1700	861.283279624727	1
2	1701	861.841916126039	0
2	1740	877.757943213178	1
2	1741	878.038439845909	0
2	1755	881.008681597689	1
2	1756	881.53845438169	0
2	1770	883.703968958529	1
2	1773	884.450692101435	0
2	1800	894.111591422988	1
2	1803	894.886450716864	0
2	1810	896.451776826857	1
2	1811	896.897459366277	0
2	1820	897.953489611301	1
2	1821	898.562431264866	0
2	1832	901.732064307593	1
2	1833	902.008136611357	0
2	1840	903.092244910994	1
2	1841	903.94920823492	0
2	1845	904.700268166134	1
2	1846	904.952376913856	0
2	1905	966.059343596285	1
2	1906	967.103572179765	0
2	1940	1007.637743722244	1
2	1941	1008.575850580373	0
2	1970	1018.244671567568	1
2	1972	1018.743453189115	2
2	1973	1018.863253460931	1
2	1976	1020.016464864662	0
2	1980	1020.799900998951	1
2	1981	1020.89343588577	0
2	1985	1020.947260960353	1
2	1987	1021.118214787963	2
2	1990	1021.748777762441	1
2	1993	1022.678433176236	0
2	1997	1023.289742669609	1
2	1998	1023.664126381477	0
2	2002	1023.736377621434	1
2	2003	1024.795380526142	0
2	2052	1035.555139208566	1
2	2053	1035.773088986969	0
2	2060	1037.429953084733	1
2	2061	1038.085788660108	0
2	2117	1069.65155248206	1
2	2118	1070.29071820548	0
2	2150	1094.512224817884	1
2	2151	1095.114388387325	0
2	2160	1098.035713179261	1
2	2161	1098.266075302367	0
2	2170	1099.265856493704	1
2	2171	1100.221520915593	0
2	2240	1131.449410735973	1
2	2241	1131.467342679359	0
2	2260	1136.205370433419	1
2	2261	1136.718788734411	0
2	2285	1151.139047946826	1
2	2286	1151.374777326584	0
2	2340	1177.420144952745	1
2	2341	1178.175864351848	0
2	2350	1179.997638825542	1
2	2352	1180.412012695626	2
2	2353	1180.514643313081	1
2	2356	1181.3808963472	0
2	2360	1182.194941113941	1
2	2361	1182.240675065105	0
2	2370	1185.328451962136	1
2	2371	1186.359176844136	0
2	2380	1189.903669378611	1
2	2381	1190.293164016139	0
2	2445	1243.210704644498	1
2	2446	1243.887281435844	0
2	2465	1251.12398922361	1
2	2466	1251.400360841028	0
2	2477	1252.686820139187	1
2	2478	1253.629363758865	0
2	2482	1254.195253934143	1
2	2483	1254.448560783177	0
2	2525	1269.511481235192	1
2	2526	1270.271930430197	0
2	2530	1270.813145595688	1
2	2531	1271.224917414897	0
2	2535	1271.618919305334	1
2	2536	1272.416710757949	0
2	2605	1305.926498040183	1
2	2606	1306.404423973789	0
2	2612	1307.191568841561	1
2	2613	1307.500023601377	0
2	2617	1307.958614256508	1
2	2618	1308.328543444803	0
2	2622	1309.270318877527	1
2	2623	1309.4829426322	0
2	2630	1311.199607576073	1
2	2632	1311.227237910993	2
2	2633	1311.457626473891	1
2	2636	1312.42488092695	0
2	2640	1313.001384476125	1
2	2641	1313.235182320034	0
2	2645	1313.935373276042	1
2	2646	1314.210480481466	0
2	2680	1331.618800300924	1
2	2681	1332.268582656016	0
2	2690	1333.782378591321	1
2	2691	1334.65755784081	0
2	2695	1335.351807521736	1
2	2696	1335.721295815685	0
2	2705	1337.167046632753	1
2	2706	1337.536075188989	0
2	2715	1339.365567664202	1
2	2716	1339.663575686446	0
2	2760	1370.833990616903	1
2	2761	1371.180399483697	0
2	2770	1372.52931355313	1
2	2771	1373.502278182612	0
2	2775	1373.676838195207	1
2	2777	1374.170971514551	2
2	2779	1374.463455899435	3
2	2780	1374.698870260411	2
2	2784	1374.733781084176	3
2	2786	1375.177477387336	4
2	2787	1375.653271863752	3
2	2790	1376.510055635733	2
2	2793	1377.623979864878	1
2	2797	1378.089936491916	2
2	2798	1378.773630239212	1
2	2801	1379.863242965148	0
2	2810	1382.463332093967	1
2	2811	1382.803475522294	0
2	2835	1392.264180508649	1
2	2836	1392.866112867587	0
2	2870	1409.17384910789	1
2	2871	1409.387940040129	0
2	2890	1413.202157087472	1
2	2892	1413.255154902751	2
2	2895	1413.636983586087	1
2	2898	1414.776063771996	0
2	2935	1428.542726231641	1
2	2936	1429.461708957989	0
2	3060	1500.30509655337	1
2	3061	1501.011985708992	0
2	3070	1503.004101031748	1
2	3071	1503.573889138684	0
2	3155	1562.166544406678	1
2	3156	1562.535779091886	0
2	3180	1574.876615860686	1
2	3181	1575.967571209173	0
2	3215	1583.619477643089	1
2	3216	1584.025024967551	0
2	3220	1584.338717316082	1
2	3221	1585.168555997036	0
2	3380	1691.703630021375	1
2	3381	1692.461489103354	0
2	3405	1701.385827696519	1
2	3406	1702.249390605085	0
2	3440	1764.656855064392	1
2	3441	1765.492578018781	0
2	3505	1818.497622383758	1
2	3506	1818.810043844649	0
2	3510	1819.180015931462	1
2	3511	1819.666490029053	0
2	3515	1819.752264273896	1
2	3517	1819.893137915165	2
2	3518	1820.557529126083	1
2	3522	1820.784974193051	2
2	3523	1821.639650966482	1
2	3528	1822.491404749522	0
2	3535	1823.526626231217	1
2	3536	1824.526882877829	0
2	3610	1852.15008087183	1
2	3611	1852.276260264389	0
2	3630	1861.079790426944	1
2	3633	1861.892138284305	0
2	3640	1862.846691082819	1
2	3641	1864.000451004831	0
2	3725	1910.683289402109	1
2	3726	1911.313707581904	0
2	3730	1911.559568387024	1
2	3731	1912.340667926144	0
2	3770	1934.320501462591	1
2	3771	1934.841798813825	0
2	3800	1947.537576594618	1
2	3801	1948.454813834008	0
2	3840	1994.218096998873	1
2	3841	1994.441857371228	0
2	4125	2241.919898157152	1
2	4126	2242.532253768633	0
2	4140	2245.440970968236	1
2	4141	2246.286606418177	0
2	4150	2248.043281732212	1
2	4152	2248.092891917239	2
2	4153	2248.489135415847	1
2	4158	2249.308150453395	0
2	4162	2249.550281464734	1
2	4163	2250.112219435065	0
2	4167	2250.158768368994	1
2	4168	2251.014792203712	0
2	4172	2251.462264232924	1
2	4173	2252.070782029624	0
2	4180	2253.302896688904	1
2	4181	2253.922293593543	0
2	4200	2266.729189284039	1
2	4201	2267.640697573525	0
2	4205	2267.816373812901	1
2	4208	2268.815529729639	0
2	4212	2269.543356131116	1
2	4213	2269.990741144334	0
2	4240	2281.480628222213	1
2	4241	2281.634793620695	0
2	4335	2371.677390734437	1
2	4336	2372.509133374573	0
2	4365	2380.483504985927	1
2	4367	2380.637280844822	2
2	4368	2381.325031023638	1
2	4371	2382.398515156729	0
2	4375	2382.640964275944	1
2	4376	2383.246675507331	0
2	4430	2405.863060059457	1
2	4431	2406.613372429531	0
2	4455	2427.291369617714	1
2	4457	2427.712376675967	2
2	4458	2427.823813296814	1
2	4463	2428.783350482915	0
2	4467	2429.419723788159	1
2	4468	2429.653279192053	0
2	4525	2449.681785511774	1
2	4526	2450.284934147252	0
2	4575	2490.315146000524	1
2	4576	2490.44819017433	0
2	4585	2491.763627814589	1
2	4586	2492.518651552279	0
2	4610	2508.404544419551	1
2	4611	2508.725931611573	0
2	4615	2509.521087355761	1
2	4616	2509.705040716016	0
2	4640	2520.518509389261	1
2	4641	2521.609804617052	0
2	4657	2526.657873522714	1
2	4658	2526.743386065537	0
2	4665	2528.359275640838	1
2	4666	2528.591520907959	0
2	4695	2546.818221660336	1
2	4696	2547.55934204567	0
2	4712	2550.136397156321	1
2	4713	2550.813412899804	0
2	4717	2551.521142794663	1
2	4718	2551.87252806984	0
2	4725	2553.222087486821	1
2	4726	2554.079992038664	0
2	4760	2570.083228088876	1
2	4761	2570.143416434246	0
2	4770	2572.012052109955	1
2	4772	2572.072149953591	2
2	4775	2572.385116291962	1
2	4778	2573.251218194033	0
2	4785	2574.225245134224	1
2	4788	2575.299468120265	0
2	4815	2587.622786180917	1
2	4816	2587.975286205239	0
2	4855	2605.097204592356	1
2	4856	2605.456730019593	0
2	4985	2700.553886344659	1
2	4987	2700.807176895685	2
2	4988	2701.205452233735	1
2	4992	2701.622448902316	2
2	4995	2702.387608227968	1
2	4998	2703.393967063442	0
2	5002	2703.430463205409	1
2	5003	2704.237544657659	0
2	5007	2704.417029987013	1
2	5008	2705.116824350689	0
2	5012	2705.366047641122	1
2	5013	2706.107142530006	0
2	5017	2706.747901396878	1
2	5018	2707.192408120629	0
2	5022	2707.847159096757	1
2	5023	2707.996883627583	0
2	5027	2708.253262893024	1
2	5028	2709.061244382427	0
2	5032	2709.231085967514	1
2	5033	2710.236732052636	0
2	5039	2711.341542653564	1
2	5040	2711.375782736667	0
2	5085	2743.330491225941	1
2	5086	2743.894716146907	0
2	5160	2806.370667882463	1
2	5161	2806.700869812701	0
2	5225	2843.087541134982	1
2	5226	2843.444364168026	0
2	5250	2849.248132968874	1
2	5251	2850.041562184982	0
2	5270	2856.524787319951	1
2	5271	2856.816044907966	0
2	5275	2856.932275492968	1
2	5276	2857.863660763712	0
2	5280	2858.082996620069	1
2	5282	2858.133089681447	2
2	5283	2858.790498732352	1
2	5287	2859.306937904308	2
2	5288	2859.806370411669	1
2	5292	2860.768734723941	2
2	5293	2860.939201504686	1
2	5297	2861.045990019763	2
2	5298	2861.92572510256	1
2	5302	2862.601049130615	2
2	5303	2862.809262533714	1
2	5306	2863.944954316174	0
2	5330	2881.637371224839	1
2	5331	2882.031834256387	0
2	5415	2945.664166955655	1
2	5416	2945.919659696648	0
2	5435	2965.22215913216	1
2	5436	2965.72122728223	0
2	5480	2999.762448926849	1
2	5481	3000.103924063402	0
2	5495	3006.086723700103	1
2	5496	3007.008046050166	0
2	5545	3030.864777127687	1
2	5546	3031.317961575815	0
2	5550	3032.34366203034	1
2	5551	3032.45389785988	0
2	5560	3034.607995860424	1
2	5561	3035.46836344388	0
2	5630	3101.074656961271	1
2	5633	3101.881742105385	0
2	5645	3104.22663354282	1
2	5646	3105.195035155055	0
2	5665	3109.872238868757	1
2	5666	3110.215136418474	0
2	5680	3113.97579621784	1
2	5681	3115.083513663032	0
2	5745	3155.492060276346	1
2	5746	3156.429239822023	0
2	5750	3156.844527155141	1
2	5753	3157.343212679897	0
2	5757	3158.36704046275	1
2	5758	3158.436501595501	0
2	5767	3160.299438827233	1
2	5768	3160.431916300051	0
2	5777	3161.358531430521	1
2	5779	3162.235324603426	2
2	5780	3162.461376851641	1
2	5787	3163.333165551193	0
2	5794	3164.727511368929	1
2	5795	3165.053617608111	0
2	5842	3191.524218837881	1
2	5843	3191.543120051446	0
2	5847	3191.796265498834	1
2	5848	3192.698773316751	0
2	5865	3196.378330000722	1
2	5866	3197.320438492928	0
2	5870	3197.652601384892	1
2	5874	3198.201426090716	2
2	5875	3198.225350629889	1
2	5879	3199.00248225694	2
2	5880	3199.334382738617	1
2	5884	3199.481962065357	2
2	5885	3200.156933135518	1
2	5889	3200.829760240142	2
2	5891	3200.949620579372	3
2	5892	3201.065715580319	2
2	5895	3202.00833784498	1
2	5899	3202.181740930219	2
2	5900	3203.071857842502	1
2	5904	3203.110223424467	2
2	5905	3204.05951161876	1
2	5910	3204.9953279658	0
2	5914	3205.251634378645	1
2	5915	3205.948206689745	0
2	5950	3228.099692509517	1
2	5951	3228.126911013296	0
2	5960	3230.449626562711	1
2	5961	3230.821333632904	0
2	5990	3248.85484195648	1
2	5991	3249.23440277508	0
2	6040	3297.007459844719	1
2	6041	3297.943849962615	0
2	6090	3319.513238324865	1
2	6092	3319.513617585948	2
2	6094	3320.192392504745	3
2	6095	3320.366480223093	2
2	6098	3321.176430942494	1
2	6102	3321.27943623362	2
2	6103	3322.148607289701	1
2	6106	3322.985092921465	0
2	6110	3323.911847221494	1
2	6111	3324.046396142341	0
2	6120	3325.176782622992	1
2	6121	3326.241267730962	0
2	6190	3360.52374893441	1
2	6191	3360.579216196605	0
2	6220	3385.181263418621	1
2	6221	3386.014176133088	0
2	6260	3400.231343815917	1
2	6261	3401.095431151755	0
2	6315	3451.206890128134	1
2	6316	3451.712485145019	0
2	6325	3452.818598906593	1
2	6326	3453.733366101873	0
2	6340	3464.215328505403	1
2	6341	3465.088637888079	0
2	6350	3467.010998268328	1
2	6351	3467.08289092865	0
2	6360	3468.2425727468	1
2	6361	3468.852528469564	0
2	6365	3469.126187106322	1
2	6368	3469.815597913155	0
2	6385	3476.549600209419	1
2	6386	3476.617217085284	0
2	6410	3482.64273675448	1
2	6411	3482.871227038807	0
2	6450	3521.492226654884	1
2	6451	3521.882783423547	0
2	6460	3524.201509691005	1
2	6461	3524.373160513652	0
2	6470	3539.19889476826	1
2	6471	3540.117764412748	0
2	6490	3548.558013834445	1
2	6491	3548.802763538599	0
2	6555	3630.440148716147	1
2	6556	3630.74483351369	0
2	6560	3631.647948596697	1
2	6561	3631.886457432123	0
2	6572	3633.49449688706	1
2	6574	3633.913975786171	2
2	6575	3634.070568166039	1
2	6579	3634.489056404607	2
2	6580	3635.029951443727	1
2	6583	3635.980847271363	0
2	6640	3700.047973514547	1
2	6641	3701.078142622563	0
2	6700	3720.215008689068	1
2	6703	3720.723180487479	0
2	6710	3721.656717737541	1
2	6711	3722.6971379445	0
2	6720	3725.568434239325	1
2	6721	3726.24048481787	0
2	6730	3727.427754092559	1
2	6731	3728.049879839909	0
2	6742	3733.082697506519	1
2	6743	3733.165118271046	0
2	6752	3734.469761633341	1
2	6753	3734.813031244491	0
2	6760	3735.985815354558	1
2	6761	3736.830070136794	0
2	6765	3737.129199248873	1
2	6766	3737.896137479627	0
2	6775	3739.000009464196	1
2	6776	3739.927809002371	0
2	6785	3743.538655920291	1
2	6787	3744.203857900279	2
2	6788	3744.327108997591	1
2	6791	3745.497390642315	0
2	6795	3746.017521729571	1
2	6797	3746.104004686718	2
2	6799	3746.493988846058	3
2	6800	3746.566495869048	2
2	6803	3747.397587193754	1
2	6806	3748.582800130565	0
2	6810	3748.61431596532	1
2	6811	3749.75810483668	0
2	6855	3776.365239711085	1
2	6856	3777.116629868975	0
2	6870	3779.195865369499	1
2	6873	3780.107014476458	0
2	6975	3830.428177782807	1
2	6976	3830.900382413943	0
2	6990	3834.107843004423	1
2	6993	3834.639976221063	0
2	7015	3843.856098008041	1
2	7018	3844.497792263367	0
2	7022	3845.111089941307	1
2	7023	3845.443460383211	0
2	7029	3845.98129511399	1
2	7031	3846.279659693049	2
2	7032	3846.323438372687	1
2	7036	3847.222933177817	2
2	7037	3847.290023396761	1
2	7041	3847.889484727135	2
2	7042	3848.460986753591	1
2	7045	3849.41429887781	0
2	7049	3849.669853602482	1
2	7050	3850.286421301161	0
2	7059	3851.451361940085	1
2	7061	3851.608600477123	2
2	7062	3852.477223664095	1
2	7067	3853.433797345442	0
2	7077	3855.904953715794	1
2	7078	3856.343649277967	0
2	7082	3856.354508004894	1
2	7087	3857.402287060898	0
2	7097	3860.103219528445	1
2	7098	3860.668361925093	0
2	7155	3880.245196719423	1
2	7156	3881.344509842774	0
2	7180	3890.175069690039	1
2	7181	3890.407855618919	0
2	7192	3891.689549767291	1
2	7193	3892.4693161575	0
2	7215	3911.1023922146	1
2	7216	3911.381862130348	0
2	7225	3912.61214938597	1
2	7226	3913.665630199997	0
2	7295	3957.786612673135	1
2	7296	3958.701716349801	0
2	7300	3959.278727820234	1
2	7301	3959.54920851166	0
2	7305	3959.931853126676	1
2	7306	3960.545571879173	0
2	7327	3963.933867452687	1
2	7328	3964.571294757186	0
2	7350	3970.295496608082	1
2	7352	3970.316867336686	2
2	7355	3970.829515666675	1
2	7360	3971.822109990727	0
2	7370	3974.576978115279	1
2	7371	3974.717920842462	0
2	7380	3977.250585601183	1
2	7381	3978.143589901979	0
2	7385	3978.468344126263	1
2	7386	3979.063803504835	0
2	7390	3979.366301844027	1
2	7391	3979.977383858859	0
2	7395	3980.495851241635	1
2	7396	3980.811764750499	0
2	7420	3988.267335379333	1
2	7421	3988.636739828495	0
2	7455	4027.130298782722	1
2	7456	4027.576955322872	0
2	7470	4032.750707946653	1
2	7471	4033.45343204796	0
2	7505	4047.65214158289	1
2	7506	4048.532434772218	0
2	7510	4048.588949411589	1
2	7511	4049.732385088114	0
2	7525	4052.611633115658	1
2	7526	4053.024835048863	0
2	7530	4053.240866425581	1
2	7533	4054.212342526266	0
2	7537	4054.38768606802	1
2	7538	4055.267963667648	0
2	7545	4057.191368231402	1
2	7546	4057.34259232205	0
2	7570	4075.448442623293	1
2	7571	4075.554775433208	0
2	7590	4088.670170840593	1
2	7591	4089.146499508066	0
2	7595	4089.362831414086	1
2	7596	4090.032490099879	0
2	7630	4112.397936097476	1
2	7631	4112.994686285323	0
2	7645	4116.136725351838	1
2	7646	4116.159347713748	0
2	7690	4140.443881794039	1
2	7691	4141.518953887317	0
2	7700	4143.794303194728	1
2	7701	4144.108066480508	0
2	7735	4159.816761058604	1
2	7737	4160.241127538503	2
2	7738	4160.763690276135	1
2	7741	4161.956096598849	0
2	7750	4163.194655830734	1
2	7751	4163.934573241853	0
2	7770	4183.580918395425	1
2	7771	4183.733405340468	0
2	7775	4184.496462423597	1
2	7776	4184.92494748524	0
2	7780	4185.049598556015	1
2	7781	4185.73475648007	0
2	7875	4244.4691368758	1
2	7876	4245.315034565959	0
2	7895	4250.817409074613	1
2	7896	4251.02970540446	0
2	7900	4251.427366517213	1
2	7901	4251.831086490087	0
2	7920	4267.379003796465	1
2	7921	4267.476318236497	0
2	7925	4267.874368434033	1
2	7926	4268.579590486326	0
2	7975	4297.819290615332	1
2	7978	4298.24377988038	0
2	7985	4299.105743097946	1
2	7987	4299.487006066003	2
2	7988	4299.893307886006	1
2	7991	4300.816424797488	0
2	7995	4300.980726570698	1
2	7996	4301.673162172934	0
2	8025	4310.2269132371	1
2	8026	4311.165945145339	0
2	8065	4323.725269809676	1
2	8066	4323.763727382768	0
2	8090	4337.368422437888	1
2	8091	4338.226699569584	0
2	8155	4366.422701992674	1
2	8156	4367.117028783381	0
2	8165	4368.894252253509	1
2	8166	4369.417152650495	0
2	8227	4392.236703058304	1
2	8228	4392.716960342402	0
2	8235	4394.121276793523	1
2	8237	4394.423478549692	2
2	8238	4394.860140896482	1
2	8241	4395.703564378513	0
2	8310	4432.322784297108	1
2	8311	4433.074057612726	0
2	8355	4499.642451341523	1
2	8356	4500.344837845316	0
2	8367	4502.126378887172	1
2	8368	4502.798577052292	0
2	8387	4507.153167522752	1
2	8388	4507.868175268599	0
2	8395	4509.061982771429	1
2	8396	4509.829323308968	0
2	8415	4515.597356608542	1
2	8416	4515.721819737695	0
2	8460	4532.113393181662	1
2	8461	4532.371665898297	0
2	8480	4536.914883629755	1
2	8481	4538.027782599976	0
2	8499	4542.775797559932	1
2	8500	4543.159585290743	0
2	8529	4548.705990314028	1
2	8530	4549.383563806924	0
2	8580	4564.304302223427	1
2	8581	4565.401608236813	0
2	8710	4705.723882496468	1
2	8711	4706.693208045454	0
2	8720	4707.997202608957	1
2	8721	4708.855442300287	0
2	8730	4710.44292288697	1
2	8733	4711.50149127253	0
2	8770	4726.731891166174	1
2	8771	4727.486104818608	0
2	8790	4732.507648425409	1
2	8791	4733.317357323774	0
2	8805	4737.33387394864	1
2	8806	4737.752887875081	0
2	8810	4737.831105742777	1
2	8811	4738.93672635663	0
2	8815	4739.20960406647	1
2	8816	4739.890858715826	0
2	8820	4740.553809532451	1
2	8821	4740.76444349257	0
2	8855	4756.713092956693	1
2	8856	4757.140072350667	0
2	8865	4758.755412762785	1
2	8866	4759.189381152016	0
2	8880	4767.321265922071	1
2	8881	4768.383390171111	0
2	8885	4768.407584278812	1
2	8887	4769.315594288715	2
2	8888	4769.566249071185	1
2	8891	4770.473600385648	0
2	8985	4835.721365847234	1
2	8986	4836.017965779232	0
2	9025	4852.222357241725	1
2	9026	4852.249117121206	0
2	9030	4853.266549381687	1
2	9031	4853.269949530357	0
2	9040	4854.618734455011	1
2	9042	4854.645324517033	2
2	9044	4854.951179202437	3
2	9045	4855.596759553169	2
2	9048	4856.581823993762	1
2	9051	4857.625280949202	0
2	9055	4857.683827365619	1
2	9056	4858.672553687178	0
2	9060	4859.033277553924	1
2	9061	4859.80255742139	0
2	9065	4860.204431080706	1
2	9066	4860.724662009634	0
2	9072	4861.572834903129	1
2	9073	4861.908091692727	0
2	9115	4880.290813730581	1
2	9116	4881.141774638801	0
2	9120	4881.862109520325	1
2	9121	4882.06991635362	0
2	9145	4901.478136537007	1
2	9146	4902.050823239742	0
2	9155	4903.365908351207	1
2	9156	4904.408077548189	0
2	9215	4922.844659332579	1
2	9216	4923.628015281108	0
2	9295	4956.34619396487	1
2	9296	4957.022744490195	0
2	9307	4959.782822403134	1
2	9308	4960.257376361377	0
2	9315	4961.951998812036	1
2	9316	4962.054566000979	0
2	9320	4962.679689914515	1
2	9321	4962.866329590249	0
2	9352	4982.748272837483	1
2	9353	4983.693081547978	0
2	9365	4988.066417722589	1
2	9366	4988.204750312335	0
2	9445	5024.278109763615	1
2	9446	5024.563111408497	0
2	9450	5025.564772931499	1
2	9451	5025.742723760544	0
2	9455	5025.756152569972	1
2	9456	5026.868259755498	0
2	9495	5038.9402365949	1
2	9496	5039.187318907649	0
2	9585	5133.854479596049	1
2	9586	5134.210196806939	0
2	9590	5134.373172170737	1
2	9591	5135.073940888775	0
2	9595	5135.189720155064	1
2	9596	5136.199595216551	0
2	9635	5146.199142932427	1
2	9637	5146.345393372689	2
2	9639	5146.383355260169	3
2	9640	5147.206300904738	2
2	9645	5148.315792100361	1
2	9649	5148.397569470387	2
2	9650	5149.205780455886	1
2	9653	5150.338958128399	0
2	9657	5150.516175458074	1
2	9658	5151.455165215625	0
2	9662	5151.871457833886	1
2	9663	5152.481234608075	0
2	9695	5173.938632654206	1
2	9696	5174.236527491513	0
2	9720	5213.483340886189	1
2	9721	5214.455946952258	0
2	9740	5226.58652081142	1
2	9741	5226.588074024597	0
2	9760	5231.129901019421	1
2	9761	5231.412213762552	0
2	9790	5248.69140080199	1
2	9791	5249.527428050653	0
2	9795	5249.540165462744	1
2	9796	5250.555896417272	0
2	9800	5251.2425808266	1
2	9801	5251.482339270633	0
2	9805	5252.589841246885	1
2	9806	5252.597078843914	0
2	9810	5253.330328570014	1
2	9811	5253.519457020644	0
2	9852	5264.958217603356	1
2	9853	5265.012317544124	0
2	9864	5266.068273976576	1
2	9865	5266.846908247093	0
2	9885	5272.163367107438	1
2	9892	5272.976569057927	0
2	9912	5277.474256386007	1
2	9913	5278.208448212892	0
2	9925	5281.364272223586	1
2	9926	5281.402100209352	0
2	9930	5281.800580611748	1
2	9937	5282.529966506381	0
2	9941	5282.843631497193	1
2	9942	5283.610811028555	0
2	9949	5284.709954122838	1
2	9950	5285.496731216293	0
2	9954	5285.758384252524	1
2	9955	5286.392916141935	0
2	9959	5286.587372166521	1
2	9960	5287.411017547101	0
2	9969	5288.467710847978	1
2	9971	5288.626228198957	2
2	9972	5289.318643479813	1
2	9975	5290.472282892671	0
2	9979	5291.494034630793	1
2	9980	5291.54185329035	0
2	9984	5291.680573366511	1
2	9985	5292.451589752474	0
2	9989	5292.753912890521	1
2	9992	5293.293710205165	0
2	9996	5293.516711222834	1
2	9997	5294.279602954463	0
2	10004	5295.61476731529	1
2	10005	5296.493480948006	0
2	10009	5297.108552034571	1
2	10010	5297.45542787958	0
2	10017	5299.390768722715	1
2	10018	5299.533358768859	0
2	10027	5300.691530942282	1
2	10028	5301.271533075367	0
2	10032	5301.756871870307	1
2	10033	5302.451464641021	0
2	10037	5303.420984982413	1
2	10038	5303.553717954384	0
2	10042	5303.574411853286	1
2	10045	5304.621552684551	0
2	10054	5306.415488538036	1
2	10056	5306.835510521331	2
2	10057	5306.894783696553	1
2	10060	5307.841842119416	0
2	10115	5331.94623898875	1
2	10116	5332.677158774201	0
2	10125	5334.844650200653	1
2	10126	5335.111616836194	0
2	10135	5336.558477860233	1
2	10136	5337.525714113121	0
2	10142	5338.296798016165	1
2	10143	5338.56195245639	0
2	10175	5345.952752361076	1
2	10178	5346.973918246109	0
2	10182	5347.38783675406	1
2	10183	5347.83777765185	0
2	10229	5379.434850755381	1
2	10230	5379.518264155753	0
2	10245	5382.882045613835	1
2	10247	5383.272499718419	2
2	10248	5383.402936857578	1
2	10251	5384.204118960456	0
2	10257	5385.062633195892	1
2	10258	5385.12120350973	0
2	10270	5387.612998819976	1
2	10273	5388.355358444444	0
2	10277	5389.30303390563	1
2	10278	5389.546350199926	0
2	10285	5390.621819580585	1
2	10288	5391.376172723446	0
2	10310	5395.978117804892	1
2	10311	5396.297821148351	0
2	10315	5396.313218608415	1
2	10316	5397.452856666554	0
2	10345	5419.300127378264	1
2	10346	5419.835046722554	0
2	10445	5461.650943114232	1
2	10446	5462.133110280107	0
2	10455	5463.817724695924	1
2	10456	5463.979170639026	0
2	10460	5464.282764557618	1
2	10461	5464.894936467572	0
2	10485	5481.466621090417	1
2	10486	5481.983222526392	0
2	10490	5482.294814725464	1
2	10491	5482.84022086429	0
2	10500	5484.826576771072	1
2	10501	5485.844261871009	0
2	10505	5486.781696933866	1
2	10508	5486.940826037443	0
2	10540	5497.030327329477	1
2	10543	5497.548578364823	0
2	10549	5498.527893914924	1
2	10550	5498.733872575641	0
2	10577	5503.948938281121	1
2	10580	5504.808604100582	0
2	10592	5506.807248810786	1
2	10593	5507.690828999926	0
2	10599	5508.171585195266	1
2	10600	5508.764486466025	0
2	10690	5555.697910921715	1
2	10691	5555.722685489009	0
2	10700	5558.404116943844	1
2	10702	5558.409241308006	2
2	10703	5559.017250269069	1
2	10706	5560.009911029483	0
2	10720	5563.851139030255	1
2	10721	5564.773689559721	0
2	10730	5567.102947085226	1
2	10732	5567.117484791504	2
2	10733	5567.573937953146	1
2	10736	5568.752142023271	0
2	10740	5569.532440515477	1
2	10742	5569.569783804053	2
2	10743	5569.632105170632	1
2	10747	5570.582546876688	2
2	10749	5570.824987034098	3
2	10750	5570.826002906146	2
2	10753	5571.875591076887	1
2	10757	5572.172077866739	2
2	10758	5573.016552392463	1
2	10761	5574.095491010579	0
2	10780	5578.346419304319	1
2	10781	5578.963281462298	0
2	10785	5579.881594285432	1
2	10786	5580.009880589557	0
2	10790	5580.053507176371	1
2	10791	5581.031833381348	0
2	10795	5581.220160502861	1
2	10796	5581.894988098697	0
2	10810	5583.901535367773	1
2	10811	5585.048509357547	0
2	10830	5593.234898353605	1
2	10831	5594.164597266848	0
2	10850	5612.389423652879	1
2	10851	5613.01790190677	0
2	10865	5619.487718404306	1
2	10866	5620.199458033819	0
2	10920	5663.846701794519	1
2	10921	5664.024718603037	0
2	10930	5667.321393432347	1
2	10931	5668.064140765935	0
2	10965	5699.810915651982	1
2	10966	5700.248882480126	0
2	10970	5700.590214851224	1
2	10973	5701.109190401223	0
2	10980	5702.348654343905	1
2	10982	5702.536651210769	2
2	10983	5703.077423405436	1
2	10986	5704.110785543987	0
2	11010	5710.274250865112	1
2	11011	5710.799444750697	0
2	11015	5711.328038182648	1
2	11016	5711.809912454803	0
2	11035	5727.637507733321	1
2	11036	5727.737433304095	0
2	11050	5736.727838173934	1
2	11051	5737.400908209159	0
2	11110	5773.163259357348	1
2	11111	5773.200115184729	0
2	11135	5781.337081908091	1
2	11136	5781.96071455428	0
2	11140	5782.44197784804	1
2	11141	5782.986969953362	0
2	11145	5784.0100155874	1
2	11146	5784.094151124504	0
2	11170	5812.643184953062	1
2	11171	5812.799069700888	0
2	11185	5821.000907007896	1
2	11186	5821.250218434594	0
2	11195	5823.972389392987	1
2	11196	5824.019678187925	0
2	11210	5827.594718496252	1
2	11211	5828.576897379598	0
2	11215	5829.374649592227	1
2	11216	5829.448798440425	0
2	11250	5879.502230768576	1
2	11251	5879.967327962571	0
2	11267	5882.592554386204	1
2	11268	5883.054856003762	0
2	11305	5894.937447183412	1
2	11306	5895.398769752325	0
2	11310	5895.849136797895	1
2	11311	5896.36032320691	0
2	11320	5897.763430876598	1
2	11321	5898.386337334493	0
2	11330	5899.708208694808	1
2	11331	5900.350186404789	0
2	11430	5952.973675399671	1
2	11432	5953.488487953076	2
2	11433	5953.588208950407	1
2	11438	5954.479765696361	0
2	11442	5954.984522377285	1
2	11445	5955.482097253672	0
2	11449	5955.756010706281	1
2	11452	5956.570675690661	0
2	11456	5956.870089426336	1
2	11457	5957.628269568368	0
2	11495	5966.698846031163	1
2	11496	5967.287075872358	0
2	11505	5968.705354061302	1
2	11506	5969.468743722618	0
2	11540	5982.764104528578	1
2	11541	5983.657621604999	0
2	11545	5984.132557476137	1
2	11548	5984.623028224198	0
2	11552	5984.635009430755	1
2	11553	5985.538181773623	0
2	11560	5987.404103761047	1
2	11561	5987.578422227831	0
2	11590	5998.972523897627	1
2	11591	5999.087114149876	0
2	11595	5999.928712237855	1
2	11596	6000.077807771772	0
2	11605	6002.270404274691	1
2	11606	6002.357021886092	0
2	11635	6035.465687960604	1
2	11636	6036.12341185398	0
2	11640	6036.584108855307	1
2	11641	6037.240822232138	0
2	11645	6037.350570285574	1
2	11646	6038.19275803668	0
2	11685	6049.017002789638	1
2	11686	6049.535210987619	0
2	11715	6073.654953241107	1
2	11716	6073.809502635854	0
2	11730	6084.694423616036	1
2	11731	6084.780335701128	0
2	11735	6085.31690163707	1
2	11736	6085.806722205283	0
2	11740	6086.599024245802	1
2	11741	6086.611691464169	0
2	11750	6089.323669203663	1
2	11751	6090.026168988916	0
2	11780	6102.304021120009	1
2	11782	6102.338114321689	2
2	11783	6103.209305835933	1
2	11788	6104.359056318969	0
2	11792	6104.661153493383	1
2	11793	6105.447785371028	0
2	11800	6106.809888064496	1
2	11801	6107.316318047929	0
2	11835	6120.920099796405	1
2	11836	6121.34090683808	0
2	11875	6154.035101036999	1
2	11876	6154.989004653859	0
2	11885	6156.745365911827	1
2	11887	6156.839874787006	2
2	11888	6156.917688871808	1
2	11891	6157.945447165034	0
2	11895	6158.915571010809	1
2	11896	6158.948680005762	0
2	11905	6160.789405712955	1
2	11906	6161.178341988628	0
2	11910	6161.216689028238	1
2	11911	6162.188530217172	0
2	11915	6162.40044617659	1
2	11916	6163.119165935149	0
2	11947	6187.590859364046	1
2	11948	6187.81559173881	0
2	11970	6197.341239604817	1
2	11971	6197.969027415447	0
2	11980	6200.815997554338	1
2	11981	6201.452701112607	0
2	11990	6204.067011679969	1
2	11991	6204.213518486632	0
2	12005	6207.760176450422	1
2	12006	6208.262756877098	0
2	12025	6214.921614027763	1
2	12026	6215.571467728338	0
2	12045	6222.27561180617	1
2	12046	6222.958081919242	0
2	12060	6225.444158635886	1
2	12061	6226.56609869076	0
2	12130	6264.666496031557	1
2	12131	6265.51670028115	0
2	12160	6283.515957329837	1
2	12161	6284.10715313604	0
2	12195	6299.907810223608	1
2	12196	6300.702316312403	0
2	12225	6315.43175049254	1
2	12226	6315.600722851599	0
2	12265	6344.238619028171	1
2	12266	6345.101897374593	0
2	12270	6345.123518940887	1
2	12271	6345.910480170284	0
2	12280	6350.850600603132	1
2	12281	6351.390099419761	0
2	12290	6352.710399318953	1
2	12291	6353.626407567799	0
2	12315	6366.974820721206	1
2	12316	6367.784853144088	0
2	12335	6374.969110155225	1
2	12336	6375.090251731664	0
2	12347	6377.164990106102	1
2	12348	6377.532837321951	0
2	12355	6378.501622581658	1
2	12358	6379.361138964693	0
2	12367	6380.863611010229	1
2	12370	6381.262301399994	0
2	12440	6412.962303371274	1
2	12441	6413.550897759493	0
2	12470	6432.002854460611	1
2	12471	6432.177323836618	0
2	12535	6483.490645297882	1
2	12537	6483.933640896667	2
2	12538	6484.005769016728	1
2	12541	6484.864434021473	0
2	12547	6485.079065408725	1
2	12548	6486.011832940806	0
2	12555	6487.236648630202	1
2	12557	6487.654179448658	2
2	12558	6488.235282389488	1
2	12564	6489.258611665087	2
2	12565	6489.293371287029	1
2	12569	6489.443241263776	2
2	12570	6490.184241426032	1
2	12574	6490.712545683329	2
2	12575	6491.012591827888	1
2	12578	6491.855158666562	0
2	12585	6493.139332691852	1
2	12587	6493.813386627115	2
2	12588	6494.004282472044	1
2	12591	6494.882515782904	0
2	12610	6500.45955525791	1
2	12611	6500.47033079473	0
2	12615	6500.941900400297	1
2	12616	6501.604813250077	0
2	12630	6504.690501602729	1
2	12632	6504.882925837715	2
2	12633	6505.6268667708	1
2	12637	6505.892945970034	2
2	12638	6506.448202022709	1
2	12643	6507.319915546555	0
2	12647	6507.489436359383	1
2	12648	6508.18908851704	0
2	12652	6508.258384155254	1
2	12653	6509.382061498784	0
2	12660	6511.363593457504	1
2	12661	6511.400180929978	0
2	12685	6539.415129867804	1
2	12686	6539.862831526704	0
2	12755	6592.198794452845	1
2	12756	6592.814448188039	0
2	12765	6594.514528165649	1
2	12766	6595.002121448217	0
2	12790	6602.275561028642	1
2	12791	6603.093134197667	0
2	12825	6616.491096457025	1
2	12828	6616.851914697435	0
2	12835	6618.277511299973	1
2	12836	6618.958450618029	0
2	12850	6621.644228969067	1
2	12851	6622.195233136576	0
2	12857	6622.769950572457	1
2	12858	6623.266350497932	0
2	12885	6641.690661620009	1
2	12886	6642.578355802524	0
2	12910	6674.900048027576	1
2	12911	6675.326548875012	0
2	12915	6675.39663244913	1
2	12917	6676.087051556651	2
2	12918	6676.468589466233	1
2	12924	6676.749086482326	2
2	12925	6677.573752785269	1
2	12928	6678.597293637302	0
2	12965	6697.520942081449	1
2	12966	6697.953140259844	0
2	12970	6698.169485536178	1
2	12971	6698.869709734929	0
2	12975	6699.17167653131	1
2	12978	6699.683822379572	0
2	12985	6701.312190903476	1
2	12986	6701.578845631736	0
2	12995	6703.765973661564	1
2	12997	6704.260606290091	2
2	12998	6704.900891802745	1
2	13007	6705.828717679909	0
2	13014	6706.877030552401	1
2	13017	6707.514431871015	0
2	13026	6708.892131951225	1
2	13027	6709.51479989235	0
2	13031	6709.542869833577	1
2	13032	6710.370309143147	0
2	13036	6711.441782741461	1
2	13037	6711.495996859024	0
2	13065	6727.969000955064	1
2	13066	6727.999487888278	0
2	13145	6782.110659478607	1
2	13147	6782.249947487877	2
2	13148	6782.274025032115	1
2	13151	6783.397473052149	0
2	13155	6783.941055249251	1
2	13156	6784.578590300964	0
2	13185	6792.831827185384	1
2	13186	6793.685886339351	0
2	13225	6837.836292898976	1
2	13226	6838.650732464209	0
2	13260	6855.213788783203	1
2	13261	6855.945800173902	0
2	13280	6861.969562406653	1
2	13281	6862.616954752787	0
2	13297	6865.868726555052	1
2	13298	6866.603314669082	0
2	13307	6868.402300326834	1
2	13308	6868.435562008178	0
2	13390	6911.763640617199	1
2	13391	6912.424889590511	0
2	13405	6922.809107640928	1
2	13407	6923.483616189642	2
2	13408	6923.507485240638	1
2	13411	6924.430279073339	0
2	13417	6925.167323628948	1
2	13418	6925.381028924171	0
2	13425	6927.049414199835	1
2	13426	6927.312487452511	0
2	13435	6928.524903478945	1
2	13436	6929.565367738471	0
2	13465	6937.620543414944	1
2	13466	6938.02268841492	0
2	13495	6952.568969514843	1
2	13496	6953.18700529461	0
2	13515	6964.802379983729	1
2	13517	6965.413170344568	2
2	13518	6965.534329688029	1
2	13523	6966.552428387796	0
2	13527	6967.033328871452	1
2	13528	6967.644636143131	0
2	13542	6970.755926304349	1
2	13543	6970.858520052994	0
2	13555	6973.964445001767	1
2	13556	6974.460398717976	0
2	13560	6975.501952936501	1
2	13561	6975.602141643788	0
2	13570	6989.295141466049	1
2	13571	6989.622160984635	0
2	13575	6990.231960086923	1
2	13576	6990.56405306334	0
2	13580	6991.582692353537	1
2	13581	6991.676311571396	0
2	13620	7016.879321159947	1
2	13621	7017.281120737672	0
2	13665	7047.325150630371	1
2	13666	7048.075614973602	0
2	13675	7049.79566870762	1
2	13676	7050.679147521074	0
2	13732	7067.392935916172	1
2	13733	7067.9018679045	0
2	13805	7124.990058682174	1
2	13806	7125.209039755907	0
2	13825	7138.049118105008	1
2	13826	7138.103587045543	0
2	13835	7139.709622173291	1
2	13836	7140.127617439212	0
2	13865	7149.242373254989	1
2	13866	7149.381817357295	0
2	13900	7157.871629155527	1
2	13901	7158.427117767057	0
2	13912	7159.851783031969	1
2	13913	7160.48677664228	0
2	13920	7161.924426404149	1
2	13921	7162.496949133987	0
2	13930	7164.32762204402	1
2	13931	7164.474501372746	0
2	13975	7200.557625825507	1
2	13976	7201.508195880446	0
2	13980	7202.450673023164	1
2	13981	7202.607022870443	0
2	13995	7215.500983727388	1
2	13996	7215.510757250672	0
2	14000	7215.699332555367	1
2	14001	7216.390084239801	0
2	14030	7223.002520969953	1
2	14031	7223.915711173477	0
2	14055	7261.021047731255	1
2	14056	7261.74258217533	0
2	14065	7263.338869258649	1
2	14066	7263.875490021984	0
2	14160	7319.222247296283	1
2	14161	7319.868967542636	0
2	14180	7327.214131590047	1
2	14181	7328.053619411383	0
2	14195	7330.975419934919	1
2	14196	7331.697921384235	0
2	14205	7334.896603050891	1
2	14206	7335.256738152838	0
2	14220	7340.060500883452	1
2	14221	7340.916600298101	0
2	14235	7348.318608921039	1
2	14236	7348.518150158011	0
2	14255	7353.620171682758	1
2	14257	7354.517007317366	2
2	14258	7354.707642734217	1
2	14262	7355.667403933323	2
2	14263	7355.808046265951	1
2	14266	7356.710253714936	0
2	14270	7357.008476119659	1
2	14272	7357.561350719942	2
2	14273	7357.820910945514	1
2	14277	7358.625034718522	2
2	14278	7359.015781419331	1
2	14282	7359.323719620649	2
2	14284	7359.851554095721	3
2	14285	7360.032383933456	2
2	14288	7361.145933466011	1
2	14292	7361.249998236653	2
2	14293	7362.134541662109	1
2	14296	7363.150412262675	0
2	14300	7363.92825668227	1
2	14301	7364.219594579727	0
2	14310	7366.0094680706	1
2	14311	7366.479583507424	0
2	14340	7386.507488128545	1
2	14341	7386.546094512971	0
2	14375	7400.744340795744	1
2	14376	7401.489153287325	0
2	14400	7422.547527966875	1
2	14401	7423.150721724497	0
2	14412	7427.136406546411	1
2	14413	7427.409143600958	0
2	14417	7428.14207079755	1
2	14418	7428.443392860396	0
2	14490	7455.00023570528	1
2	14491	7455.711127673861	0
2	14495	7455.711736501978	1
2	14497	7455.880552280546	2
2	14498	7456.746289830588	1
2	14501	7457.83878853808	0
2	14545	7505.438655200036	1
2	14546	7506.353592206406	0
2	14580	7522.717692695807	1
2	14581	7522.778717264287	0
2	14590	7524.693074401409	1
2	14591	7525.586839923421	0
2	14785	7659.437696371238	1
2	14786	7660.378217201734	0
2	14895	7745.075334362958	1
2	14897	7745.513627833888	2
2	14898	7745.818628522277	1
2	14902	7746.107633814391	2
2	14903	7746.717653659999	1
2	14906	7747.814866875194	0
2	14915	7749.675495055893	1
2	14916	7749.826562061551	0
2	14940	7759.133159603801	1
2	14941	7759.893858125136	0
2	14960	7764.443993260875	1
2	14961	7764.885765937624	0
2	15000	7778.474127939699	1
2	15001	7779.279348441589	0
2	15005	7780.18486540074	1
2	15006	7780.232970389541	0
2	15075	7820.709031477292	1
2	15076	7821.372670906602	0
2	15100	7839.677956096892	1
2	15101	7840.324632677552	0
2	15105	7841.250982421914	1
2	15106	7841.310667657875	0
2	15115	7842.645972074932	1
2	15116	7843.623667277575	0
2	15135	7848.855858354956	1
2	15136	7849.048940771357	0
2	15175	7871.716665491222	1
2	15176	7872.356738102686	0
2	15200	7877.430688523543	1
2	15201	7878.320088211564	0
2	15210	7879.265695338543	1
2	15211	7880.230166451937	0
2	15230	7886.281402109915	1
2	15231	7886.52795431023	0
2	15275	7897.008783618239	1
2	15276	7897.590520940147	0
2	15285	7898.834435140315	1
2	15286	7899.759489980604	0
2	15315	7909.322454370834	1
2	15317	7909.399321364	2
2	15318	7909.770833389689	1
2	15321	7910.800324549009	0
2	15350	7922.557050905176	1
2	15351	7923.158898754767	0
2	15440	7978.363054860498	1
2	15444	7978.989427807148	2
2	15445	7978.997610782678	1
2	15449	7979.91562944202	2
2	15450	7979.928722098781	1
2	15453	7981.042549744094	0
2	15470	7984.622023880286	1
2	15472	7985.220638727262	2
2	15473	7985.561019961331	1
2	15478	7986.584936343953	0
2	15482	7986.786003695714	1
2	15483	7987.630760696046	0
2	15487	7988.220016484754	1
2	15488	7988.662287917435	0
2	15497	7989.841007087703	1
2	15498	7990.531522752792	0
2	15507	7992.372820810815	1
2	15508	7992.637479929329	0
2	15514	7993.727451816022	1
2	15515	7993.757615091168	0
2	15519	7993.957517314078	1
2	15520	7994.613898688909	0
2	15565	8024.804538299859	1
2	15566	8025.627623362983	0
2	15610	8061.969017024551	1
2	15613	8062.503491873512	0
2	15630	8067.200258131307	1
2	15631	8067.499838306793	0
2	15645	8069.70793714969	1
2	15646	8070.760099225908	0
2	15655	8072.847364723416	1
2	15656	8073.372762848562	0
2	15670	8079.658372900687	1
2	15671	8080.412643574253	0
2	15707	8091.003257156226	1
2	15708	8091.748705670157	0
2	15725	8095.433934132218	1
2	15726	8095.70051720949	0
2	15750	8103.680779444983	1
2	15751	8104.64003853525	0
2	15767	8108.818624649458	1
2	15768	8109.266748605327	0
2	15777	8111.074783009473	1
2	15778	8111.595614842915	0
2	15787	8112.789236838546	1
2	15788	8113.380201841736	0
2	15792	8113.763539960088	1
2	15793	8114.192867782557	0
2	15797	8114.245650547015	1
2	15798	8115.345521461809	0
2	15805	8117.316970839726	1
2	15806	8117.502129447864	0
2	15835	8127.134532215317	1
2	15838	8127.335366174688	0
2	15849	8128.958276777295	1
2	15850	8129.167002656885	0
2	15854	8129.636269233461	1
2	15855	8130.346608241011	0
2	15905	8146.262368470915	1
2	15906	8146.878097333457	0
2	15910	8147.150668105518	1
2	15911	8147.799167549215	0
2	15915	8148.281196975698	1
2	15916	8148.82015888875	0
2	15992	8174.678702961773	1
2	15993	8174.856142228247	0
2	16000	8176.10758174215	1
2	16003	8176.982285792437	0
2	16010	8178.031248999226	1
2	16011	8178.860567893051	0
2	16115	8237.581630604193	1
2	16116	8238.402793321421	0
2	16150	8259.35383518385	1
2	16152	8259.460185577963	2
2	16153	8259.715615674056	1
2	16156	8260.616369848367	0
2	16215	8338.230545585715	1
2	16217	8338.746928162807	2
2	16218	8338.891290954777	1
2	16223	8339.794879305919	0
2	16230	8341.78973512143	1
2	16231	8341.900667165497	0
2	16280	8375.521501157768	1
2	16282	8375.607089826165	2
2	16283	8375.723275743673	1
2	16287	8376.466900979389	2
2	16288	8376.609225046976	1
2	16291	8377.754208547125	0
2	16295	8377.859002979534	1
2	16296	8378.910017778879	0
2	16300	8379.411845415706	1
2	16301	8380.045779202009	0
2	16325	8395.704441003659	1
2	16326	8396.765707720303	0
2	16355	8419.707738683115	1
2	16356	8419.912470935979	0
2	16390	8443.605149044508	1
2	16391	8444.15378434171	0
2	16430	8479.451107487869	1
2	16432	8480.053698125321	2
2	16433	8480.162047896593	1
2	16436	8480.963469457406	0
2	16440	8481.618801524369	1
2	16441	8482.160954784568	0
2	16445	8482.19687918481	1
2	16446	8483.343940398715	0
2	16530	8552.045755957205	1
2	16531	8552.928154239243	0
2	16550	8558.293703907597	1
2	16551	8558.7760319173	0
2	16595	8576.498194038094	1
2	16596	8577.447917868832	0
2	16610	8582.247756385712	1
2	16611	8583.052428626029	0
2	16615	8583.832778185429	1
2	16616	8584.069721863738	0
2	16630	8593.555349160791	1
2	16631	8593.587744165454	0
2	16640	8595.339397410224	1
2	16641	8595.829856641367	0
2	16650	8597.834728366364	1
2	16651	8598.08631720623	0
2	16680	8605.038687253644	1
2	16681	8605.247272536893	0
2	16715	8631.758116392233	1
2	16716	8632.931595999385	0
2	16740	8655.672102577819	1
2	16741	8656.426267010954	0
2	16810	8718.819492404798	1
2	16811	8719.808803907503	0
2	16845	8740.045486814391	1
2	16846	8740.894819006724	0
2	16870	8746.75859118816	1
2	16871	8747.569711173283	0
2	16875	8747.579680723632	1
2	16878	8748.408812639261	0
2	16882	8749.166050962686	1
2	16883	8749.238905703886	0
2	16887	8749.36287608496	1
2	16888	8750.195489751598	0
2	16934	8764.048467982717	1
2	16936	8764.388170088597	2
2	16939	8765.02060413666	1
2	16943	8766.078093036326	2
2	16944	8766.122550293039	1
2	16948	8766.951569641661	2
2	16949	8767.015346418395	1
2	16953	8767.23953686914	2
2	16954	8768.020354325305	1
2	16957	8769.123479004558	0
2	16961	8769.125290264197	1
2	16962	8770.251435425207	0
2	16966	8771.074610508478	1
2	16967	8771.413098040577	0
2	16971	8771.953244200135	1
2	16972	8772.552898125518	0
2	16979	8773.885600311425	1
2	16980	8774.63498855967	0
2	17075	8818.242586790357	1
2	17076	8818.505453751686	0
2	17090	8826.113924034263	1
2	17091	8826.558603302365	0
2	17120	8848.166500213102	1
2	17121	8848.342069397016	0
2	17140	8854.322774648799	1
2	17142	8854.904894551784	2
2	17143	8855.369504967434	1
2	17146	8856.515029359338	0
2	17260	8911.278198958093	1
2	17263	8911.903168112347	0
2	17267	8912.098144444703	1
2	17269	8912.368165142484	2
2	17271	8912.4890349176	3
2	17272	8912.901907797558	2
2	17275	8913.923951471997	1
2	17278	8914.814885528227	0
2	17285	8915.947449194459	1
2	17287	8916.005830000889	2
2	17288	8916.759447256596	1
2	17291	8917.696762730953	0
2	17327	8932.09182806723	1
2	17328	8933.087249125045	0
2	17332	8933.193103500744	1
2	17334	8933.863147630184	2
2	17335	8933.961774613492	1
2	17339	8933.98492450958	2
2	17340	8935.116615330118	1
2	17343	8936.091623421169	0
2	17350	8937.442922639049	1
2	17351	8938.329804077714	0
2	17414	8979.943344788551	1
2	17415	8980.15894254957	0
2	17429	8982.673018505894	1
2	17430	8983.05817025284	0
2	17439	8984.885263521462	1
2	17440	8985.023708913556	0
2	17447	8986.452054340041	1
2	17449	8986.518186785655	2
2	17452	8987.030998631834	1
2	17455	8987.921626901894	0
2	17485	8996.666865462804	1
2	17488	8997.348730845482	0
2	17492	8997.722521426694	1
2	17495	8998.431456832972	0
2	17517	9004.136955363207	1
2	17518	9004.502644813019	0
2	17555	9012.831619613752	1
2	17556	9013.344530136501	0
2	17570	9016.086507965077	1
2	17571	9016.565846528289	0
2	17585	9018.751678574397	1
2	17586	9019.30643740698	0
2	17610	9036.335993444884	1
2	17611	9036.856462512161	0
2	17680	9101.873555280794	1
2	17681	9102.134644083752	0
2	17760	9129.022619987286	1
2	17761	9129.709270327855	0
2	17770	9133.282573138219	1
2	17771	9133.644620135371	0
2	17780	9136.941682611229	1
2	17781	9137.144592716561	0
2	17820	9154.424825974575	1
2	17821	9155.107841590462	0
2	17852	9162.731837489482	1
2	17853	9163.220651681226	0
2	17857	9163.854616688404	1
2	17858	9164.096310177136	0
2	17865	9165.419889020169	1
2	17866	9166.004547390591	0
2	17875	9167.421759380588	1
2	17876	9167.923252317	0
2	17925	9208.587935416003	1
2	17926	9209.302212216152	0
2	17945	9213.768628297574	1
2	17946	9214.504780063304	0
2	17950	9215.594031836343	1
2	17951	9215.682530366528	0
2	17957	9216.473507265234	1
2	17958	9216.856463402967	0
2	17962	9217.192069459078	1
2	17966	9217.706849166242	2
2	17967	9217.785989410142	1
2	17970	9218.763469436477	0
2	17977	9220.054694361787	1
2	17978	9220.860821925933	0
2	17990	9223.465562923175	1
2	17991	9224.04719339869	0
2	18002	9225.177006624128	1
2	18003	9226.070172660323	0
2	18010	9227.452653874355	1
2	18011	9228.089552922072	0
2	18030	9240.389295434355	1
2	18031	9240.734976218676	0
2	18040	9243.095024661699	1
2	18041	9243.13818223835	0
2	18045	9243.881594741565	1
2	18046	9244.021047420381	0
2	18050	9244.153295550182	1
2	18052	9244.916221468128	2
2	18053	9245.108759665816	1
2	18056	9246.063916373021	0
2	18060	9246.314556036772	1
2	18061	9246.879617285217	0
2	18067	9246.931327870546	1
2	18070	9247.78247974231	0
2	18074	9248.098740140221	1
2	18075	9248.845784437331	0
2	18079	9249.706087536009	1
2	18080	9249.714640357392	0
2	18105	9257.487891370918	1
2	18107	9257.854012025897	2
2	18108	9258.20606338963	1
2	18113	9259.098736359683	0
2	18117	9259.226226315708	1
2	18119	9259.709154696144	2
2	18121	9259.842786416043	3
2	18122	9260.141791908668	2
2	18126	9260.344271760502	3
2	18127	9260.95124730481	2
2	18130	9262.104969020879	1
2	18133	9263.108539144361	0
2	18140	9264.477659934442	1
2	18141	9264.965758785737	0
2	18195	9286.750037411377	1
2	18196	9287.236673228688	0
2	18205	9288.821098994071	1
2	18206	9289.245300776011	0
2	18215	9290.546178560344	1
2	18216	9291.181494345447	0
2	18264	9299.918407690298	1
2	18265	9300.571586201416	0
2	18375	9412.821543913354	1
2	18376	9413.009483063584	0
2	18415	9448.156233413677	1
2	18417	9448.197634522061	2
2	18418	9449.230069822408	1
2	18422	9449.74578904931	2
2	18423	9450.367780814655	1
2	18427	9450.453665713533	2
2	18428	9451.214938272592	1
2	18431	9452.164865019229	0
2	18485	9470.324971887668	1
2	18486	9471.115909603402	0
2	18530	9523.824277433352	1
2	18531	9523.934002997223	0
2	18570	9544.889106257426	1
2	18571	9545.715350252275	0
2	18615	9609.378432905483	1
2	18617	9609.542999977623	2
2	18620	9610.372982137533	1
2	18625	9611.437088502174	0
2	18629	9611.839134620983	1
2	18630	9612.288134357681	0
2	18637	9613.63542771152	1
2	18638	9614.260887380199	0
2	18675	9633.000313369934	1
2	18677	9633.632613813217	2
2	18678	9633.890213042587	1
2	18682	9634.270115099297	2
2	18683	9634.726376483958	1
2	18686	9635.598152419362	0
2	18695	9636.714032255452	1
2	18696	9637.538955399763	0
2	18705	9639.88218988953	1
2	18706	9639.98081107954	0
2	18715	9640.999418075231	1
2	18716	9642.125013583475	0
2	18740	9652.015105933985	1
2	18741	9652.034627613041	0
2	18745	9652.579803013516	1
2	18746	9653.149150589376	0
2	18750	9653.609547484432	1
2	18751	9653.952952103957	0
2	18770	9676.505917977755	1
2	18771	9676.698647954184	0
2	18785	9684.06029293809	1
2	18786	9684.590312052648	0
2	18795	9685.972240416823	1
2	18796	9686.925162584936	0
2	18800	9687.578905088693	1
2	18801	9687.964903498577	0
2	18805	9688.677482786428	1
2	18806	9689.059908481171	0
2	18825	9692.394956236996	1
2	18826	9693.439824568266	0
2	18875	9715.462906448266	1
2	18876	9716.222021819599	0
2	18880	9716.987648408264	1
2	18883	9717.313984997798	0
2	18887	9717.514522101463	1
2	18888	9718.413953497302	0
2	18895	9720.080475486111	1
2	18896	9720.135229295161	0
2	18900	9721.080998537508	1
2	18901	9721.326867645741	0
2	18910	9724.338546563448	1
2	18911	9724.723667834073	0
2	18915	9725.172666810861	1
2	18916	9725.567070355851	0
2	18920	9725.787539342572	1
2	18921	9726.610582133967	0
2	18930	9728.398027268277	1
2	18931	9728.677292212454	0
2	18955	9733.761828846205	1
2	18956	9734.648053198903	0
2	18970	9738.0267328738	1
2	18971	9738.796623149569	0
2	18985	9743.581194536728	1
2	18987	9743.809225981463	2
2	18988	9744.452676406095	1
2	18991	9745.504930132685	0
2	19015	9754.708153265702	1
2	19017	9754.883623411442	2
2	19018	9755.239596400374	1
2	19023	9756.051256682688	0
2	19027	9756.103255387539	1
2	19028	9757.033615953067	0
2	19032	9757.823057651791	1
2	19033	9758.223136495856	0
2	19037	9758.241437287953	1
2	19038	9759.225008394813	0
2	19042	9759.864945158824	1
2	19043	9760.367229764873	0
2	19050	9761.658614737684	1
2	19051	9762.33508842556	0
2	19055	9762.815503598801	1
2	19056	9763.444702590594	0
2	19090	9770.598859696455	1
2	19091	9771.219282261155	0
2	19100	9772.662328557693	1
2	19101	9773.207204784699	0
2	19132	9779.738808989213	1
2	19134	9779.893444031502	2
2	19135	9780.157127455029	1
2	19138	9781.019791728224	0
2	19142	9781.290275314943	1
2	19145	9781.85997376867	0
2	19149	9781.916413653264	1
2	19150	9783.007812038496	0
2	19154	9783.818311695799	1
2	19155	9783.875069190808	0
2	19175	9788.240901109191	1
2	19176	9788.998408909016	0
2	19180	9789.082578626387	1
2	19183	9789.942596701686	0
2	19190	9791.039593037364	1
2	19192	9791.0470779571	2
2	19193	9791.947041370035	1
2	19198	9792.887016721596	0
2	19205	9794.871353772131	1
2	19206	9794.875507178964	0
2	19210	9795.075817121432	1
2	19213	9795.908911723612	0
2	19217	9796.296341351276	1
2	19220	9797.056916818084	0
2	19230	9799.351720704731	1
2	19231	9800.058963998841	0
2	19242	9802.925779606143	1
2	19243	9803.116387352568	0
2	19275	9810.694865191387	1
2	19276	9811.807383338138	0
2	19295	9815.98461396912	1
2	19296	9816.560216470451	0
2	19335	9833.362365594804	1
2	19336	9833.416310493295	0
2	19340	9834.504300942613	1
2	19341	9834.553349793722	0
2	19345	9835.219292732918	1
2	19347	9835.444804273686	2
2	19348	9835.571967809481	1
2	19351	9836.404942730369	0
2	19380	9842.163694759364	1
2	19381	9842.716324858286	0
2	19400	9854.816439639063	1
2	19403	9855.948057075005	0
2	19435	9883.9702158506	1
2	19436	9884.568868565538	0
2	19460	9899.155666143881	1
[...]
6	50296	25678.321371173438	2.971046870831
6	50299	25679.140892393001	2.093802431457
6	50315	25686.138713465042	8.742107913456
6	50320	25688.318917174086	0.939765358251
6	50325	25691.339347560426	0.877176114172
6	50330	25696.735545024482	1.17210537931
6	50350	25726.632746753809	0.847473894618
6	50367	25746.649913258351	3.403687995178
6	50400	25754.92324983488	6.137930258216
6	50455	25769.232976283098	11.527864581633
6	50470	25774.346558150534	14.279430103088
6	50485	25777.4951898447	2.722652554326
6	50500	25782.350750381604	7.538986757848
6	50535	25795.861390740124	1.179074224687
6	50552	25802.197971198767	1.126448766608
6	50557	25803.387853637397	11.814988134285
6	50565	25805.353103409395	1.64415750566
6	50580	25834.053602053897	3.804547549187
6	50674	25867.827973463491	3.002548451157
6	50677	25868.700230395805	4.112694185879
6	50680	25869.870699948922	6.737003576437
6	50705	25879.663486406217	2.152550980606
6	50710	25881.037756610436	0.896876963414
6	50725	25888.251775522542	0.879139320087
6	50767	25915.284608144487	1.005483148806
6	50770	25916.402216466411	8.476008506038
6	50785	25922.238579412488	3.530564430596
6	50820	25936.751941346727	9.160864468922
6	50825	25950.797769321013	0.813960067369
6	50845	25962.901064687217	2.055992331414
6	50850	25979.301544906364	1.100763947517
6	50855	25985.478738496521	0.820279226359
6	50867	25992.387934384489	1.285798316476
6	50885	26007.88035891255	5.073939038732
6	50900	26013.971314767761	1.373850673962
6	50907	26016.156702978597	4.450808757685
6	50937	26025.875149611216	4.363281163771
6	50952	26029.157080717124	8.269882346409
6	50970	26039.577950296418	16.616506345883
6	50987	26050.838924249507	1.184344682191
6	50990	26051.679619787786	3.015985172949
6	50995	26062.862928953461	1.195647951495
6	51027	26084.859467281561	3.145423879195
6	51057	26095.107378396548	1.180997087713
6	51119	26118.154520179181	8.574165293647
6	51132	26121.048271540961	10.00193578396
6	51167	26133.423972303081	0.884685249627
6	51175	26135.543813575334	7.655892001712
6	51180	26139.60565281095	1.118191907369
6	51185	26142.85310761958	0.845065511204
6	51210	26166.357251773515	1.028747420013
6	51215	26170.433444944851	1.133848243393
6	51242	26185.34231116005	1.078074156027
6	51312	26202.901398586287	6.736098750304
6	51368	26213.590002490555	2.552541098704
6	51373	26214.528887629856	3.390582646985
6	51398	26219.797604147693	13.560244475933
6	51401	26220.993173869489	12.04885780856
6	51419	26225.023391555597	19.204869956211
6	51439	26229.092771600068	14.249453483693
6	51442	26230.257430719652	1.982360522392
6	51465	26235.773813596724	16.866085812882
6	51482	26238.890235535987	2.885200657424
6	51513	26248.124784748831	4.152129604947
6	51519	26249.924389722587	3.863870614797
6	51532	26253.133076752925	6.056910363062
6	51547	26256.132351879699	1.657584105986
6	51590	26273.952880441344	2.965290441478
6	51625	26306.078608988142	1.346555057601
6	51630	26310.386252474172	0.976778076775
6	51635	26315.28441157433	0.994328101259
6	51640	26319.559249691589	1.116764010768
6	51690	26348.651465596483	12.271064280774
6	51705	26361.033244547765	2.876225928277
6	51735	26375.620324324503	3.147756736095
6	51792	26405.250889810821	3.735478430229
6	51815	26423.355993696119	6.514376340416
6	51820	26431.660393643107	0.987718719337
6	51840	26446.722522267365	5.211749442223
6	51874	26464.712252301168	5.400095280185
6	51877	26465.884529500272	2.354890433974
6	51900	26474.177121593869	1.402760224551
6	51925	26505.440782193313	3.940939717458
6	51965	26536.173066533446	2.396699866301
6	51979	26538.348545733137	1.726275553918
6	51982	26539.319087890299	2.983142414224
6	51997	26547.771307258477	1.105207002815
6	52009	26549.888164647745	1.461976600099
6	52029	26554.209665801216	4.676217934599
6	52032	26555.164782001011	1.579671715575
6	52050	26558.827479581632	3.160246980265
6	52060	26573.984746038245	0.918180962
6	52122	26601.288031749674	1.197266390175
6	52129	26602.301735921078	10.841051137115
6	52134	26603.226361400508	11.235341899492
6	52147	26606.102108834558	9.756480877458
6	52185	26615.704407791382	3.270737473946
6	52217	26623.444829922946	7.268529823633
6	52220	26624.432361601511	3.775297538248
6	52237	26633.975909656606	4.992111494086
6	52247	26635.83499755109	1.202599076204
6	52255	26645.074796654688	1.11697627781
6	52260	26647.382622358555	0.829333730694
6	52301	26677.498565258474	1.094450193876
6	52311	26679.236567782347	3.8393143069
6	52314	26680.129340774768	3.10113642113
6	52317	26681.138786870257	3.379867428969
6	52320	26682.213291284178	9.465320128127
6	52325	26684.407269686262	1.111350180954
6	52332	26689.119327383564	1.129078238364
6	52335	26690.151081890316	1.872257927347
6	52340	26695.175107962097	0.902609277889
6	52369	26714.186191576208	4.2859003159
6	52372	26715.363234610251	3.158878109604
6	52380	26723.218398501022	0.884004806448
6	52397	26735.485213578682	4.753023715982
6	52400	26736.314655893951	1.067727705661
6	52420	26757.245405418878	0.962963617407
6	52425	26758.316884889597	0.945776849426
6	52440	26774.78761459612	1.840730931098
6	52482	26793.163138540111	10.479186360799
6	52500	26800.801595082229	9.93444149519
6	52515	26807.767608893225	3.05131322015
6	52520	26812.604493043127	1.056370765809
6	52525	26827.666995180632	0.899847663473
6	52537	26832.887843150272	1.39533898733
6	52550	26838.62406136392	0.852106831502
6	52575	26848.024922893952	3.503469185057
6	52582	26849.721561490282	0.842429496255
6	52597	26853.148480736646	4.103810389669
6	52612	26856.294916182472	5.524542138694
6	52615	26857.453634476284	2.692480663087
6	52625	26867.722592561279	2.577896215665
6	52635	26877.870198374407	4.889717621943
6	52665	26895.156840298878	7.788743304257
6	52670	26922.406514053783	1.090522920061
6	52689	26932.195557001425	1.979624275276
6	52692	26933.392969167424	2.897865454506
6	52714	26937.784640843805	1.590121949287
6	52754	26945.899422573309	7.684976798818
6	52764	26947.965208034135	12.101293004733
6	52810	26991.964667780735	1.181079330202
6	52832	27002.641726160198	2.774128434097
6	52855	27009.033274340217	1.358241164335
6	52865	27011.749763245385	9.449804960581
6	52875	27017.93208937261	1.06102166567
6	52895	27029.397929613293	6.381999576932
6	52905	27044.434793168772	4.682411253873
6	52945	27074.121465861151	0.8138363217
6	52952	27088.177637281251	1.043141321652
6	52957	27089.061785199382	0.960434838593
6	52982	27096.884710159049	1.146450548619
6	53020	27107.605019593933	4.105012742098
6	53027	27109.159179899139	5.815001972719
6	53032	27110.265996676819	1.460229935964
6	53077	27122.967129808287	12.919685527975
6	53104	27130.431979557159	6.208920963765
6	53107	27131.449295187029	2.351392562636
6	53115	27133.381085502575	1.822502757066
6	53130	27145.862835224509	2.505260452428
6	53155	27186.291475944629	4.377118833679
6	53167	27191.780844023089	1.183702770993
6	53180	27196.556318013624	7.031993295821
6	53190	27203.093652649391	2.222511719239
6	53200	27223.075090219756	1.007167825289
6	53205	27226.314878841268	0.815717018209
6	53251	27258.059062304608	1.103344636124
6	53264	27261.038602309468	2.859110775214
6	53269	27261.89586615458	9.582548781044
6	53272	27262.820153569596	20.547342538599
6	53280	27270.174039078387	0.833401765488
6	53290	27285.074765002089	0.909882467613
6	53302	27292.419517072657	0.834408424795
6	53310	27295.242324145211	3.474600077248
6	53322	27300.075876184559	2.36769999036
6	53342	27305.405369582479	5.652440731661
6	53352	27308.163548948053	2.814646858121
6	53385	27315.608501617541	8.331153705907
6	53399	27325.010020305502	1.1966852515
6	53427	27330.789368628624	1.707521327046
6	53437	27333.157130643732	10.477743112918
6	53450	27336.59377262369	3.98405117137
6	53535	27363.999508200628	7.715046753144
6	53552	27367.51051299098	3.025983753055
6	53562	27369.739394826452	1.846333320778
6	53580	27376.669816450079	15.6868770721
6	53625	27406.536180533249	1.2637122966
6	53650	27417.619457256564	2.898569505856
6	53655	27419.232935961064	1.046608003043
6	53665	27434.063388974242	1.133450168278
6	53680	27444.8757393655	8.04817835571
6	53705	27470.097534942588	0.899131498393
6	53724	27486.993258354657	0.960715200845
6	53734	27488.897168450274	4.693334350882
6	53754	27493.201022240978	6.881017118539
6	53757	27494.152415194821	6.227377612539
6	53769	27498.366226681494	0.862209046818
6	53775	27500.609188044802	2.520192374775
6	53782	27504.022610688755	6.137354775402
6	53812	27547.054565670921	1.522174202994
6	53815	27548.081387674829	2.529295448627
6	53834	27552.742583778213	1.240133465889
6	53862	27559.370214081265	7.461041542235
6	53953	27583.718267158562	7.17230372848
6	53956	27584.551758704198	6.746610173514
6	53981	27589.658971299746	2.028745719777
6	53993	27591.722871219137	6.905122128753
6	54028	27598.71592582134	2.534731123757
6	54048	27602.420880522351	9.226443345235
6	54053	27603.607682712241	13.663778742037
6	54064	27606.95675670044	13.949320289933
6	54075	27620.860738098863	1.035253832862
6	54085	27631.777774295198	0.998235853668
6	54090	27639.710004930261	0.985530218761
6	54095	27656.994394195418	0.876835705619
6	54125	27676.453450783661	0.84151796326
6	54130	27678.329678462297	1.129135643691
6	54135	27680.233347245202	0.881343926396
6	54165	27692.851034193462	0.986443126388
6	54189	27697.118311031888	4.035017927178
6	54200	27700.890508360384	12.3749603898
6	54215	27709.519876084695	0.826648008917
6	54222	27723.543166625476	0.903549043275
6	54245	27738.860233094625	3.81141310072
6	54270	27754.102734061592	1.003737930767
6	54292	27761.249750624328	4.659680479201
6	54295	27762.387811470973	3.651493993864
6	54310	27772.211397124258	1.858179100296
6	54350	27782.135114360483	5.833354765083
6	54375	27822.630407408071	4.580510602272
6	54390	27834.752924365996	2.800177917899
6	54400	27848.706622585127	0.813368899934
6	54432	27862.539271161037	1.755725682083
6	54435	27863.629152997474	11.238923165269
6	54445	27868.97867634279	1.424908749738
6	54462	27873.539820310959	1.032349345274
6	54496	27880.276881580761	6.642038315363
6	54514	27884.358810827377	1.495359967971
6	54565	27894.097988843264	7.369613197726
6	54573	27895.939742709415	4.571189590972
6	54609	27903.865505839975	0.978938828388
6	54642	27910.516104992012	3.664207193285
6	54669	27917.997281764953	1.137811222742
6	54709	27929.477770435023	1.143707576767
6	54715	27931.400885143182	17.121123640942
6	54720	27932.720378685768	3.727431700794
6	54757	27947.322734697017	4.169372793804
6	54767	27952.325850631231	0.970008954499
6	54775	27963.323268752759	0.862501212396
6	54799	27969.356211724642	4.425758363239
6	54822	27977.425695849412	9.604328688681
6	54830	27979.43004020915	14.798757343057
6	54835	27985.273213729053	0.939271784667
6	54867	28008.696156899667	2.529652189836
6	55014	28059.870661433474	1.273108603003
6	55035	28065.036317024602	6.43392212896
6	55055	28078.208914987617	3.578002582504
6	55087	28097.687292492182	4.151323256659
6	55092	28098.783520841298	8.307202613115
6	55095	28099.976163450794	1.22756389168
6	55100	28108.225278004468	0.978222417831
6	55105	28112.238469265322	1.085629272088
6	55112	28114.109266485265	0.889802051708
6	55120	28121.464936837501	1.146456970926
6	55125	28124.99661703003	1.016774753481
6	55140	28130.438596275346	3.409951927551
6	55160	28147.139605062421	4.387692241339
6	55165	28150.082857665608	0.999692831095
6	55177	28152.462006315904	1.24927401676
6	55190	28159.71649754248	1.689400853919
6	55202	28162.852009720542	1.318491872404
6	55217	28165.551192285493	3.332480948848
6	55225	28169.410576597225	1.122375768609
6	55230	28172.940170752195	22.777949760198
6	55262	28183.752339050379	9.337738372515
6	55274	28185.39702191867	1.471996448002
6	55282	28187.265221801792	2.330419414257
6	55285	28188.340772502237	4.065371336468
6	55300	28196.093213964138	5.815884603565
6	55312	28205.14142673977	5.161857571739
6	55367	28217.902411307505	4.017805976242
6	55370	28219.064319378527	14.778499790056
6	55422	28232.754183606778	3.564737867702
6	55430	28235.197443259637	3.020325814358
6	55435	28237.682834823926	1.188048126921
6	55469	28245.44061710937	7.553522996492
6	55472	28246.598921277654	6.636766435987
6	55490	28255.697119947007	2.104745181739
6	55507	28262.618477959254	2.915713963005
6	55539	28270.209716805861	8.748147385376
6	55547	28272.1723741326	3.981522852089
6	55565	28276.927932225856	8.649572128142
6	55582	28287.114125007082	4.135626395486
6	55607	28296.320600529132	10.22781402754
6	55645	28308.693840797552	4.615638593258
6	55650	28310.191824147514	1.18999017505
6	55712	28325.121515575817	11.17270122028
6	55722	28327.077212249695	1.665988965731
6	55740	28331.945292924294	6.848669032495
6	55775	28388.857945949877	0.999962128047
6	55825	28424.099461328512	5.826215741307
6	55830	28425.296310039612	0.843724264298
6	55837	28427.565391837805	0.980817608628
6	55850	28433.461679149944	0.950990654808
6	55860	28439.027652941303	1.061182625592
6	55890	28453.842888609228	4.549078225228
6	55916	28483.062261797257	0.960991946142
6	55921	28484.107983292781	1.983034076403
6	55924	28484.928080569908	4.39746262557
6	55927	28485.981745846339	3.115283827675
6	55930	28486.911397722599	3.720412836136
6	55937	28495.958826359612	1.085483060777
6	55962	28508.53092561378	2.21953836245
6	56005	28524.659522366518	3.618243224578
6	56010	28568.27781973611	1.179763599299
6	56020	28576.295913417971	2.805607266668
6	56025	28578.650128116333	0.870131505188
6	56049	28583.234727611462	3.759753629784
6	56064	28589.658442603059	1.148718642537
6	56067	28590.582577747952	1.475151829509
6	56075	28594.165500167055	0.850280204881
6	56085	28598.675084383339	1.154121550452
6	56130	28630.675453435496	5.661394430093
6	56135	28635.8366312275	0.883263416216
6	56169	28643.529198320079	5.752362103959
6	56175	28645.561544057875	2.23991801275
6	56190	28649.781086171618	10.594221960559
6	56199	28651.076399415443	1.151668293029
6	56202	28652.226628168104	5.268390078853
6	56205	28653.160268721347	3.074795130435
6	56210	28661.276066603101	0.85074810721
6	56244	28676.175212446048	0.929625206813
6	56247	28677.143642429642	4.59632062263
6	56250	28678.297742070265	2.137246611353
6	56270	28689.482848353307	1.94593247242
6	56277	28690.485828417167	10.918111304337
6	56280	28691.460710024927	4.047021001489
6	56295	28701.4740995894	2.477602058923
6	56300	28706.569429973511	0.874633418676
6	56382	28759.575390134353	1.171794066112
6	56397	28762.459129324436	3.139234945608
6	56405	28766.994318671458	0.970435530506
6	56410	28768.856586575188	0.837287525274
6	56420	28772.229193485232	0.839118529297
6	56469	28783.353956373749	1.921523343227
6	56480	28791.182832173971	1.154209442437
6	56490	28800.723087234593	0.86170205567
6	56495	28814.490644490356	1.030143835768
6	56500	28825.051296665003	0.992608945351
6	56525	28833.221957592672	6.831639921272
6	56542	28839.059423080132	5.823955274994
6	56560	28843.918019607015	6.854945360176
6	56572	28862.377748740163	1.096467018034
6	56575	28863.289378565714	1.319970607353
6	56585	28872.141501370491	1.030773726944
6	56590	28885.327258775479	0.893797840085
6	56605	28904.110925029022	0.901608612295
6	56610	28906.454108270852	1.027648760658
6	56615	28911.945288586025	1.009776871093
6	56630	28936.759780709265	1.079080198179
6	56635	28938.761132398072	3.758550847606
6	56647	28941.963677807087	1.020574650727
6	56667	28958.354302610574	1.088910956588
6	56670	28959.286828589836	1.65982173166
6	56682	28969.013040255234	2.31920726643
6	56695	28973.065344017257	1.345539936131
6	56705	28975.062309101674	6.112837428901
6	56724	28979.598830353829	3.366128399645
6	56739	28982.437273313745	2.336797435021
6	56757	28986.521479262212	7.095244666942
6	56784	28992.397683059527	13.183168322391
6	56787	28993.306152334912	1.371796818804
6	56807	29002.351898367138	11.931036129485
6	56810	29003.519369317492	1.817169534825
6	56825	29010.18962485277	1.35162274886
6	56867	29025.652074831327	1.084409667738
6	56885	29031.452941003208	20.964630049721
6	56917	29038.10436892409	5.447306957917
6	56932	29043.922827524414	9.012245182051
6	56950	29056.192700460263	0.962454804685
6	56955	29060.760287568519	0.873021732084
6	56960	29081.698302932852	0.877494960465
6	56965	29092.909421695077	1.169336858299
6	57000	29107.691291017038	6.265781633979
6	57030	29118.74445674221	4.253266697229
6	57035	29120.30523809453	6.200949673
6	57045	29135.195023383675	3.21473216155
6	57055	29144.941160728985	1.859397156764
6	57095	29193.742116139717	1.118811360095
6	57100	29195.254988449212	1.162438603397
6	57170	29220.974093569564	3.980071396278
6	57177	29227.398506497047	0.917488009017
6	57180	29228.409453545897	1.352312095289
6	57187	29229.470438501409	0.989924523886
6	57202	29234.866284277519	1.105168163963
6	57247	29253.712335775379	3.695810471261
6	57260	29257.60627910349	2.402879593457
6	57280	29267.056025167841	1.722369832821
6	57310	29277.538311370998	2.919146059453
6	57369	29295.81761030541	7.293760162223
6	57392	29300.373474386663	14.913740012223
6	57470	29331.840276279878	6.750428373359
6	57495	29348.787875529035	2.649275040145
6	57502	29357.463902212075	1.085802820418
6	57507	29358.314311919781	0.991424185107
6	57510	29359.285695971503	1.780738107481
6	57525	29370.789900750418	1.189991609845
6	57554	29382.359265646367	5.209462956391
6	57559	29383.45832875467	3.871999513731
6	57640	29401.301624699394	21.150355373069
6	57650	29411.760057281504	4.700405287931
6	57680	29429.371311254416	2.151779949953
6	57689	29436.269503529	1.176504326239
6	57719	29441.818192500531	6.619971571317
6	57744	29446.808356687036	7.676627599869
6	57755	29455.754405384635	0.887122237589
6	57767	29459.99662659048	0.941976864729
6	57770	29460.990984897324	3.4262857985
6	57789	29472.120238871793	1.169867792074
6	57805	29476.762874522577	10.345610635939
6	57829	29483.828913840544	1.20988077577
6	57837	29485.988933052015	2.1543075412
6	57850	29510.006173690804	1.097856127564
6	57855	29514.510918085056	0.817468009144
6	57865	29532.776944589613	2.267241886922
6	57885	29568.532452828514	0.847542804666
6	57900	29577.273483524299	4.116931612838
6	57915	29581.620457073882	1.171417900827
6	57922	29587.368428016039	1.191437662952
6	57925	29588.356855386919	1.884092013447
6	57935	29592.015828981076	0.91016639322
6	57940	29593.012167271783	0.896269990969
6	57962	29603.116717596444	1.01846755743
6	57991	29608.109844638407	2.636715877867
6	57996	29609.186412389483	1.389577320805
6	58032	29621.499113006849	1.881570879789
6	58052	29625.760464992148	8.939056164613
6	58069	29628.964150486753	10.388947239425
6	58072	29630.051785566617	3.314377834318
6	58080	29632.159967048053	1.81662693327
6	58125	29647.486585808751	1.078556687757
6	58140	29654.956523907249	3.484519642631
6	58152	29660.672727579282	4.788633441255
6	58207	29676.605239647632	2.826218355959
6	58231	29680.516244589356	6.943682187172
6	58234	29681.65816741549	2.834785603531
6	58242	29683.675036841916	5.531154333669
6	58264	29687.967603451401	3.780733536306
6	58280	29709.78280765433	3.52660541279
6	58292	29715.11536415816	2.746343189072
6	58352	29728.300781731225	9.794827537186
6	58370	29748.89000847708	2.023845750769
6	58375	29757.502306728489	1.194803943392
6	58392	29772.410011262569	4.47025593351
6	58422	29779.072149172664	4.423830640712
6	58464	29806.236556008617	1.081857237353
6	58487	29812.66806999505	1.040934555661
6	58497	29814.593815003005	9.285394598159
6	58534	29821.706497292356	10.894248164818
6	58537	29822.807759834961	21.092412983411
6	58540	29823.860684498069	2.617284486181
6	58565	29838.016291168197	7.779056118971
6	58570	29839.612248372262	0.984468503483
6	58577	29844.728450398831	1.150639171991
6	58632	29885.39753983527	4.175692438347
6	58682	29913.675104149169	0.881674106233
6	58690	29916.47872199085	3.524843737302
6	58715	29928.15617039775	7.634556310903
6	58732	29932.257108936862	1.153753308486
6	58754	29963.876042882092	6.107639177818
6	58757	29964.991545781791	2.451723744816
6	58814	29976.73026245059	8.464154129877
6	58830	29980.593870511367	1.706700548328
6	58845	29984.561864083004	1.282345967452
6	58859	29986.684422934935	9.119768083114
6	58864	29987.765158078675	25.803499103361
6	58872	29989.968221185492	24.200351011754

