version 2
run Second_exit_8-16-20191017-13:44:07-1971
attr configname Second_exit_8
attr datetime 20191017-13:44:07
attr experiment Second_exit_8
attr inifile omnetpp.ini
attr iterationvars ""
attr iterationvarsf ""
attr measurement ""
attr network ResponseTimeNetwork
attr processid 1971
attr repetition 16
attr replication #16
attr resultdir results
attr runnumber 16
attr seedset 16
param **.Source.interArrivalTime exponential(5s)
param **.jobPriority bernoulli(0.6)
param **.PS.serviceTimeU1 "uniform(0.8s, 1.2s)"
param **.PS.serviceTimeU2 "uniform(1.8s, 2.2s)"
param **.SS1.serviceTime exponential(1s)
param **.SS2.serviceTime exponential(1.2s)
param **.PS.exitProbability bernoulli(0.8)

vector 0 ResponseTimeNetwork.SS1 queueLength:vector ETV
attr interpolationmode sample-hold
attr title "queue length, vector"
vector 1 ResponseTimeNetwork.SS2 queueLength:vector ETV
attr interpolationmode sample-hold
attr title "queue length, vector"
vector 2 ResponseTimeNetwork.QueueU1 queueLength:vector ETV
attr interpolationmode sample-hold
attr title "queue length, vector"
vector 3 ResponseTimeNetwork.QueueU2 queueLength:vector ETV
attr interpolationmode sample-hold
attr title "queue length, vector"
vector 4 ResponseTimeNetwork.sink lifeTimeU1:vector ETV
attr interpolationmode none
attr title "lifetime of arrived jobs U1, vector"
attr unit s
vector 5 ResponseTimeNetwork.sink lifeTime:vector ETV
attr interpolationmode none
attr title "lifetime of arrived jobs, vector"
attr unit s
vector 6 ResponseTimeNetwork.sink lifeTimeU2:vector ETV
attr interpolationmode none
attr title "lifetime of arrived jobs U2, vector"
attr unit s
2	0	0	0
2	10	3.240943944356	1
2	11	3.273024732561	0
2	15	3.525443839884	1
2	18	4.134586838574	0
2	35	7.913804748358	1
2	36	8.223436357662	0
2	45	9.748160591831	1
2	48	10.231607723166	0
2	57	11.435487602881	1
2	58	12.045834686537	0
2	80	16.032277926979	1
2	83	17.099973440845	0
2	87	17.144973200854	1
2	88	18.253085403074	0
2	94	18.855823338141	1
2	95	19.316971737542	0
2	99	19.371744068642	1
2	100	20.155558991176	0
2	107	21.260846443269	1
2	108	22.120097831753	0
2	122	24.634750121792	1
2	124	24.958908262541	2
2	125	25.183228603122	1
2	128	26.286878225138	0
2	135	27.844542617892	1
2	136	28.254350631615	0
2	145	29.367006639132	1
2	146	30.042404443515	0
2	150	30.80995522325	1
2	151	31.072818596033	0
2	155	31.083157562895	1
2	156	32.01538156143	0
2	160	32.033952895248	1
2	163	32.828214592976	0
2	170	33.927635581181	1
2	172	34.735718290957	2
2	173	34.958855371853	1
2	176	36.042556504929	0
2	205	42.171714060262	1
2	206	42.977021030842	0
2	210	43.075138471754	1
2	211	44.050062371085	0
2	222	45.636334080088	1
2	223	46.281028687435	0
2	227	46.546544327317	1
2	231	46.914022432716	2
2	232	47.143864301911	1
2	236	47.583818746275	2
2	237	47.984093905745	1
2	241	48.507071583491	2
2	243	48.617954162667	3
2	244	48.950758612288	2
2	248	49.472397854964	3
2	249	50.09890294945	2
2	252	51.019627352656	1
2	255	52.156436629445	0
2	259	52.990285943572	1
2	260	53.026175597162	0
2	264	53.495894060235	1
2	265	53.87585147949	0
2	269	54.766092335445	1
2	270	54.98230614936	0
2	274	55.902076447263	1
2	275	56.024716755506	0
2	279	56.866770646308	1
2	281	56.974514727987	2
2	282	56.982910397314	1
2	286	57.580428937582	2
2	287	58.153626013864	1
2	291	58.362820135293	2
2	292	59.215300880503	1
2	296	59.346304850517	2
2	297	60.226422137152	1
2	300	61.109537150282	0
2	304	62.220541099603	1
2	305	62.284208273366	0
2	315	64.679208151454	1
2	316	65.164395746906	0
2	324	65.904122879753	1
2	325	66.22194800064	0
2	334	68.277144118692	1
2	335	68.401229413077	0
2	344	69.402988279919	1
2	346	69.849509747299	2
2	347	70.349171520061	1
2	350	71.256980433445	0
2	354	71.258966806585	1
2	355	72.376902993433	0
2	375	76.337827596424	1
2	378	76.948279918208	0
2	392	79.92351834529	1
2	393	79.996122108995	0
2	407	82.711895164924	1
2	408	83.039363939165	0
2	415	84.18987706298	1
2	416	84.90539275104	0
2	425	86.483971887282	1
2	429	86.926101869443	2
2	430	87.154885909928	1
2	433	88.314164179133	0
2	440	89.406411869143	1
2	442	89.804915424932	2
2	443	90.224467010459	1
2	447	90.437728686661	2
2	448	91.369862999896	1
2	453	92.209658189433	0
2	459	92.333942694802	1
2	460	93.210807516368	0
2	464	94.026868698182	1
2	465	94.078863218462	0
2	469	94.755879060777	1
2	470	94.904753127264	0
2	474	95.010668529184	1
2	476	95.245319041452	2
2	479	95.763342853578	1
2	482	96.609147463588	0
2	488	97.232025203929	1
2	489	97.626222479286	0
2	493	97.910015106714	1
2	494	98.812967392186	0
2	498	98.939166981155	1
2	499	99.840181440616	0
2	503	100.257960851624	1
2	504	100.738540201856	0
2	511	102.489027166199	1
2	513	102.505729227787	2
2	514	102.783487639705	1
2	517	103.738546991756	0
2	521	103.829375080466	1
2	522	104.736796556821	0
2	529	105.742929048774	1
2	531	106.696637193378	2
2	532	106.721389923838	1
2	536	106.809048927932	2
2	538	107.021980549023	3
2	539	107.809639773925	2
2	542	108.902190844656	1
2	546	108.927385948751	2
2	548	109.939384431418	3
2	549	110.082723021169	2
2	553	110.088711278786	3
2	554	111.237241349497	2
2	557	112.367121533246	1
2	561	112.455014849272	2
2	563	112.640925541144	3
2	564	113.185446237714	2
2	570	113.63347249907	3
2	571	114.073615694453	2
2	575	114.163986175232	3
2	576	115.15174861442	2
2	581	116.215178527065	1
2	585	116.432892719906	2
2	587	116.834449404397	3
2	588	117.090761988085	2
2	592	117.376379706954	3
2	593	118.131036895734	2
2	597	118.890704489939	3
2	598	118.93267063921	2
2	602	119.564257074806	3
2	603	119.797392610215	2
2	607	119.799716669545	3
2	608	120.928889210649	2
2	611	121.885485272888	1
2	615	122.578727107542	2
2	616	122.912714075517	1
2	619	123.905218989156	0
2	623	124.991762502035	1
2	624	125.032470243364	0
2	633	126.176372179257	1
2	634	127.113978003743	0
2	640	127.896657715052	1
2	641	128.14643389381	0
2	645	128.344678620548	1
2	647	128.711196305873	2
2	648	129.02213993439	1
2	652	129.219003204693	2
2	656	129.377608705057	3
2	657	130.116961040567	2
2	660	131.013243531934	1
2	664	131.590124224013	2
2	666	131.762115490362	3
2	667	132.177047229032	2
2	671	132.309852500915	3
2	673	132.337348303132	4
2	676	133.057293554801	3
2	679	134.137297715559	2
2	683	134.579901454115	3
2	685	134.725819353881	4
2	686	134.99319331761	3
2	690	135.033996938847	4
2	691	135.989536959711	3
2	694	136.861130684834	2
2	698	137.304622240526	3
2	699	137.785957634855	2
2	703	138.814461210994	3
2	704	138.962572545499	2
2	707	139.814867939089	1
2	711	140.077987387669	2
2	712	140.831347571441	1
2	716	141.045273970139	2
2	718	141.497448902962	3
2	719	141.715767995023	2
2	723	142.537754686858	3
2	724	142.785395345499	2
2	727	143.81274532912	1
2	731	144.661413216473	2
2	732	144.973889663291	1
2	736	145.202980552509	2
2	737	145.881690438592	1
2	741	145.898491504603	2
2	743	146.194776109312	3
2	744	146.681692219374	2
2	748	147.28121269164	3
2	750	147.485299893672	4
2	751	147.60791055368	3
2	755	147.635876699646	4
2	756	148.641660288011	3
2	759	149.750253890303	2
2	763	150.31307504501	3
2	764	150.552439964783	2
2	768	150.637256865059	3
2	769	151.524333521013	2
2	772	152.61715468507	1
2	776	153.337145811319	2
2	777	153.730151313019	1
2	781	153.938097490965	2
2	782	154.898804622457	1
2	786	155.156214054317	2
2	787	155.759798063838	1
2	790	156.878511448518	0
2	794	157.009726602527	1
2	795	157.800916486268	0
2	802	159.312101861691	1
2	803	160.019078331848	0
2	810	161.042999665861	1
2	812	161.523680468397	2
2	813	161.93012154767	1
2	817	162.202003144098	2
2	820	163.093569458497	1
2	826	163.496497798562	2
2	828	163.541032433469	3
2	829	163.991615997196	2
2	833	164.176005978172	3
2	834	164.933697984868	2
2	838	165.318435477842	3
2	839	165.920144772937	2
2	843	165.991051492032	3
2	844	166.926157494483	2
2	848	167.056793819076	3
2	849	167.766699500603	2
2	852	168.697089150024	1
2	856	169.597265744205	2
2	857	169.814363319462	1
2	860	170.813895249495	0
2	864	171.089551586177	1
2	865	171.747009467555	0
2	869	171.822826724583	1
2	870	172.893109856022	0
2	874	173.413937364454	1
2	875	173.756634968461	0
2	882	175.142303544145	1
2	883	175.702643537743	0
2	895	177.578415727419	1
2	896	178.258285315557	0
2	902	179.37418464401	1
2	903	179.442764334975	0
2	907	179.95187154272	1
2	912	180.633320679924	0
2	916	180.707774845637	1
2	917	181.6800122728	0
2	924	183.386365621521	1
2	925	183.46187330488	0
2	931	184.042930311535	1
2	932	184.277633545025	0
2	944	187.170810252349	1
2	945	187.192469512335	0
2	951	187.452843118037	1
2	952	188.38066025501	0
2	956	189.203871747711	1
2	957	189.234621184355	0
2	964	190.458514394194	1
2	966	190.506439818135	2
2	967	190.984495546145	1
2	972	192.170535449253	0
2	976	192.311051933748	1
2	977	193.362164091633	0
2	981	193.395049177383	1
2	983	194.13474679488	2
2	984	194.228099245706	1
2	988	194.296546449767	2
2	989	195.319494885148	1
2	993	196.1791345675	2
2	994	196.502357161266	1
2	998	196.854725031883	2
2	1001	197.700182286871	1
2	1004	198.840417665278	0
2	1014	200.991809945396	1
2	1015	201.769374266116	0
2	1026	203.261245187141	1
2	1028	203.475038601591	2
2	1029	203.750229549909	1
2	1034	204.608008309769	0
2	1044	206.91365998277	1
2	1046	207.165930836829	2
2	1047	207.307079604863	1
2	1051	207.54762595841	2
2	1053	207.556389867774	3
2	1055	207.836460666721	4
2	1056	208.238061040955	3
2	1060	208.425896889414	4
2	1065	209.16253653433	3
2	1069	209.528498260639	4
2	1070	210.2847647061	3
2	1073	211.470770683269	2
2	1076	212.585822502094	1
2	1080	212.701206105146	2
2	1082	212.934507001191	3
2	1083	213.695810626204	2
2	1087	214.161622002153	3
2	1088	214.643937351032	2
2	1091	215.679492517969	1
2	1094	216.790212662461	0
2	1098	216.891201203219	1
2	1099	217.617864546961	0
2	1103	218.012382546685	1
2	1104	218.56523067275	0
2	1108	219.195522863128	1
2	1109	219.512879500482	0
2	1113	219.60212519863	1
2	1114	220.67033688467	0
2	1118	221.101486387224	1
2	1119	221.636019859407	0
2	1123	221.931936868349	1
2	1124	222.481801612712	0
2	1204	240.54014499845	1
2	1209	241.389499720503	0
2	1218	243.425333780354	1
2	1219	243.572106923945	0
2	1228	245.189580064643	1
2	1229	245.736252749934	0
2	1241	247.929050115179	1
2	1242	248.93351755388	0
2	1254	250.770613934347	1
2	1255	251.659504667426	0
2	1269	253.677590005308	1
2	1272	254.50505598191	0
2	1283	255.67670432069	1
2	1285	255.950865113005	2
2	1286	256.546723662259	1
2	1291	257.393048146775	0
2	1295	258.07522952115	1
2	1296	258.457551989833	0
2	1300	259.043651887066	1
2	1301	259.380177412404	0
2	1305	259.658168702937	1
2	1306	260.427387697937	0
2	1329	265.217366931787	1
2	1330	265.901752908564	0
2	1347	269.750648332176	1
2	1348	270.015234102718	0
2	1357	271.189979835855	1
2	1358	271.740823759641	0
2	1367	272.89780910832	1
2	1370	273.961150469947	0
2	1379	275.355549402587	1
2	1380	275.724957616385	0
2	1425	285.487818987756	1
2	1430	286.544865022916	0
2	1510	303.171865958311	1
2	1511	303.977895416895	0
2	1530	308.704448516165	1
2	1531	308.836254561798	0
2	1535	309.674721940383	1
2	1536	309.716313307652	0
2	1542	310.228726114937	1
2	1545	310.648592855608	0
2	1555	312.969022933962	1
2	1558	313.551603229637	0
2	1565	315.122339834325	1
2	1567	315.186678746155	2
2	1568	315.46856310518	1
2	1573	316.60298923749	0
2	1582	317.931148018615	1
2	1583	318.774402406266	0
2	1592	320.333503131716	1
2	1593	320.789257340426	0
2	1600	322.150170088466	1
2	1601	322.555506980992	0
2	1645	337.48842571276	1
2	1646	337.960434923105	0
2	1660	340.747751894571	1
2	1661	341.102751969024	0
2	1665	341.166483733273	1
2	1666	342.13919431813	0
2	1670	342.24760634511	1
2	1671	342.983263642284	0
2	1675	343.013887642182	1
2	1676	343.978791822622	0
2	1680	343.994136332296	1
2	1681	344.922750667053	0
2	1695	347.703860144803	1
2	1696	348.422751053248	0
2	1704	349.219441365044	1
2	1705	349.274654508952	0
2	1709	349.279510040366	1
2	1710	350.076005872071	0
2	1714	350.439820888955	1
2	1716	350.664704555698	2
2	1717	351.265161252778	1
2	1720	352.3157786416	0
2	1724	352.759900413067	1
2	1726	353.02523096446	2
2	1727	353.131248234037	1
2	1731	353.880912859903	2
2	1732	354.27541240371	1
2	1736	354.684646306589	2
2	1738	354.811389233079	3
2	1740	354.833940086132	4
2	1741	355.121680464141	3
2	1745	355.356030958931	4
2	1746	356.01682436486	3
2	1749	357.105199594342	2
2	1752	358.034563843732	1
2	1756	358.128586257551	2
2	1757	359.170323853486	1
2	1761	359.785470777999	2
2	1764	360.08733739584	1
2	1768	360.123612826552	2
2	1770	361.027479200435	3
2	1771	361.089692911331	2
2	1775	361.7433310996	3
2	1776	362.213451790262	2
2	1780	363.191480061982	3
2	1782	363.228401514432	4
2	1783	363.321919638395	3
2	1787	363.582657830899	4
2	1788	364.194362909451	3
2	1791	365.188752880424	2
2	1796	366.245480424177	1
2	1799	367.3349685914	0
2	1803	368.486908997785	1
2	1804	368.518395356939	0
2	1810	368.928646876388	1
2	1812	369.394828386223	2
2	1813	369.555510038615	1
2	1816	370.676427083288	0
2	1820	370.885832597342	1
2	1822	371.463840984358	2
2	1823	371.802201354888	1
2	1827	372.121508285412	2
2	1828	372.811149357551	1
2	1831	373.904118193791	0
2	1841	376.681196656257	1
2	1842	376.908671870932	0
2	1846	376.922901548058	1
2	1847	377.722011074621	0
2	1859	379.882674084703	1
2	1861	380.137034019949	2
2	1862	380.584444560679	1
2	1866	381.045471969204	2
2	1871	381.394376322637	1
2	1874	382.394761027033	0
2	1878	382.996037304966	1
2	1879	383.356443499877	0
2	1896	387.077270848725	1
2	1898	387.07979462972	2
2	1899	387.381181370011	1
2	1904	388.410592822461	0
2	1914	390.506430381046	1
2	1918	390.826561601032	2
2	1919	391.42854591311	1
2	1924	392.329545046399	0
2	1934	394.566732425668	1
2	1935	395.298269060358	0
2	1947	397.917276938438	1
2	1948	398.334983169205	0
2	1985	405.964706673821	1
2	1986	405.980653584107	0
2	2045	419.754868754283	1
2	2048	420.153450725192	0
2	2059	421.555891862925	1
2	2060	422.195158221165	0
2	2068	423.135421884109	1
2	2069	423.34713023823	0
2	2073	423.479484126556	1
2	2074	424.339497631847	0
2	2078	424.499054268651	1
2	2079	425.21650240362	0
2	2086	426.392699953282	1
2	2088	426.586353344231	2
2	2089	427.448570690828	1
2	2094	428.520541353396	0
2	2101	430.290818815993	1
2	2102	430.39931711756	0
2	2106	430.570790650423	1
2	2107	431.200350674208	0
2	2111	431.360399853711	1
2	2112	432.041175037868	0
2	2116	432.510727639167	1
2	2117	433.134113408871	0
2	2121	433.447269016083	1
2	2122	434.05487987759	0
2	2132	436.215922205212	1
2	2134	436.548921342341	2
2	2135	436.919700585179	1
2	2138	438.011422876235	0
2	2142	438.061121869207	1
2	2146	438.413031466397	2
2	2148	438.441053850014	3
2	2149	438.954710335344	2
2	2153	439.287422614827	3
2	2155	439.360107854628	4
2	2156	439.85687663617	3
2	2159	440.955189585839	2
2	2163	441.442819623573	3
2	2164	441.984690635153	2
2	2167	443.037754546259	1
2	2170	443.862239130926	0
2	2177	445.044424436861	1
2	2178	445.961316949748	0
2	2182	446.075690753888	1
2	2186	446.779944157856	2
2	2187	446.89759532629	1
2	2191	446.949720605621	2
2	2193	447.657123460811	3
2	2194	447.847259610951	2
2	2198	448.335147803364	3
2	2199	448.755080761634	2
2	2203	449.166530984361	3
2	2204	449.92359661736	2
2	2209	451.026749700554	1
2	2212	451.908954937909	0
2	2222	454.99997039199	1
2	2223	455.310762935284	0
2	2232	457.286338153655	1
2	2233	457.528961665149	0
2	2242	458.603901297613	1
2	2247	459.631416023302	0
2	2251	460.01627621263	1
2	2252	460.620521657228	0
2	2256	460.661662423002	1
2	2259	461.584588855378	0
2	2263	461.873428360866	1
2	2264	462.520569953289	0
2	2268	462.530961458771	1
2	2271	463.585888901785	0
2	2275	463.777118503226	1
2	2276	464.529007246684	0
2	2280	465.305075295161	1
2	2281	465.726855570137	0
2	2285	465.997381125879	1
2	2286	466.577924738045	0
2	2290	466.687444962661	1
2	2291	467.593779193576	0
2	2295	468.06974506144	1
2	2296	468.613749610412	0
2	2300	468.809101469845	1
2	2302	469.110479717767	2
2	2303	469.743884360104	1
2	2307	469.753214235822	2
2	2308	470.619051022886	1
2	2312	471.164363689747	2
2	2313	471.619913860748	1
2	2316	472.611265663395	0
2	2320	472.870474581839	1
2	2322	473.231210572936	2
2	2323	473.610816216993	1
2	2326	474.734844566009	0
2	2330	475.457738224296	1
2	2331	475.710773454386	0
2	2335	475.790760776035	1
2	2336	476.738689974102	0
2	2346	478.941126561387	1
2	2349	479.906947756804	0
2	2358	480.811309723293	1
2	2360	481.252794267144	2
2	2361	481.941920307989	1
2	2366	483.122878479271	0
2	2372	483.301748680975	1
2	2375	484.02106537238	0
2	2402	490.069067090412	1
2	2403	490.07582284544	0
2	2407	490.280385315421	1
2	2410	491.063690780256	0
2	2414	491.159788953802	1
2	2416	491.572130921218	2
2	2417	492.063497453801	1
2	2420	493.078118918057	0
2	2427	494.115639784308	1
2	2430	494.960845370929	0
2	2439	496.473369317962	1
2	2440	496.75731734779	0
2	2449	498.325891061079	1
2	2450	498.715580046142	0
2	2454	499.261452474546	1
2	2457	499.813987643516	0
2	2473	502.570586719125	1
2	2474	502.768093004974	0
2	2483	504.039937288153	1
2	2484	504.780330436922	0
2	2488	505.461622469641	1
2	2489	505.697127204168	0
2	2498	506.910941932399	1
2	2499	507.350273141138	0
2	2563	520.01676042502	1
2	2564	520.17503374467	0
2	2571	521.56582290025	1
2	2572	522.277344186104	0
2	2585	523.529474466012	1
2	2586	524.64276144706	0
2	2593	525.78381624293	1
2	2595	525.894554478111	2
2	2596	526.533840055916	1
2	2603	527.580089745823	0
2	2621	532.390452578027	1
2	2625	532.680513079733	2
2	2626	532.715677493124	1
2	2629	533.839229264634	0
2	2641	535.842752548817	1
2	2642	536.907283943204	0
2	2661	540.169230035141	1
2	2664	540.861357719136	0
2	2673	541.854025188	1
2	2674	542.85791402232	0
2	2689	545.869760591396	1
2	2690	546.92191908002	0
2	2698	547.873572150615	1
2	2699	548.068260014487	0
2	2721	552.647068910183	1
2	2723	552.686391132814	2
2	2724	553.480058002435	1
2	2731	554.312899035924	0
2	2742	555.641461379103	1
2	2743	556.198411485609	0
2	2752	557.920531445839	1
2	2753	558.149986476601	0
2	2762	559.28888507112	1
2	2763	560.12996000318	0
2	2775	562.149155682756	1
2	2776	562.968182787263	0
2	2789	566.100624359384	1
2	2792	566.906657085065	0
2	2835	574.828071630018	1
2	2838	575.745882405116	0
2	2845	576.885558183485	1
2	2846	577.58211272085	0
2	2853	579.094800558722	1
2	2854	579.695479950643	0
2	2873	582.886921911786	1
2	2874	583.992980280667	0
2	2891	588.078592688872	1
2	2892	588.273062550331	0
2	2898	588.835212078215	1
2	2899	589.12361049462	0
2	2906	590.247248774951	1
2	2909	591.160309103187	0
2	2995	611.725441090763	1
2	2996	612.195902250593	0
2	3009	613.733550875707	1
2	3010	614.301225777787	0
2	3045	625.852766346458	1
2	3046	626.209567524946	0
2	3079	631.846728081001	1
2	3081	632.120699647238	2
2	3082	632.124605757358	1
2	3087	633.30647372537	0
2	3091	633.604507249028	1
2	3092	634.21825332361	0
2	3100	635.211641351736	1
2	3101	635.398772679909	0
2	3105	635.893920530069	1
2	3107	636.092094519658	2
2	3108	636.258316847577	1
2	3111	637.256564545061	0
2	3118	638.152340677504	1
2	3120	638.843991903067	2
2	3121	639.29608470843	1
2	3126	640.271557446092	0
2	3136	642.401543826454	1
2	3137	643.355548414763	0
2	3148	644.847043311877	1
2	3149	645.113944941003	0
2	3158	646.132682290409	1
2	3159	647.266075369797	0
2	3168	648.602866478221	1
2	3169	649.299412733025	0
2	3178	650.599403890573	1
2	3179	651.318157094611	0
2	3260	670.017762459612	1
2	3261	670.916658619764	0
2	3292	677.219810732123	1
2	3293	677.6001425949	0
2	3350	691.741991585669	1
2	3351	692.239960682786	0
2	3355	692.589608338606	1
2	3356	693.08726961056	0
2	3365	694.192492950799	1
2	3366	695.038273615038	0
2	3370	695.56524120958	1
2	3372	695.7835835939	2
2	3374	695.816901878755	3
2	3375	696.137708569245	2
2	3378	697.234861487543	1
2	3382	697.674249956402	2
2	3383	698.078078413309	1
2	3387	698.697576394203	2
2	3389	698.78030418992	3
2	3390	699.202186158319	2
2	3394	699.761912109971	3
2	3395	700.399195836038	2
2	3398	701.469759454877	1
2	3402	701.559748292177	2
2	3404	702.02790756909	3
2	3405	702.529464915787	2
2	3409	703.160837536227	3
2	3410	703.566647016184	2
2	3413	704.493606540115	1
2	3417	704.660528081426	2
2	3421	705.310578019788	3
2	3422	705.686496015565	2
2	3426	705.895970699539	3
2	3427	706.535525568502	2
2	3431	706.682298690211	3
2	3432	707.591553927233	2
2	3435	708.433328381201	1
2	3438	709.319887085652	0
2	3465	716.443667027826	1
2	3466	717.126560252611	0
2	3477	718.212926467442	1
2	3478	718.901349496228	0
2	3485	719.881925803452	1
2	3486	720.767978175116	0
2	3497	722.07553401776	1
2	3498	722.754206914844	0
2	3507	724.578146709147	1
2	3508	724.583662848751	0
2	3515	725.653429976462	1
2	3519	726.303369815463	2
2	3520	726.706210078037	1
2	3525	727.5906919609	0
2	3529	727.860229770466	1
2	3530	728.548871798458	0
2	3534	729.520614735947	1
2	3535	729.57553181799	0
2	3539	729.621217451425	1
2	3541	730.266408596508	2
2	3542	730.437567294593	1
2	3545	731.43043014707	0
2	3549	731.912273610658	1
2	3550	732.57670649087	0
2	3554	732.789158975758	1
2	3555	733.563836033288	0
2	3559	733.713591583087	1
2	3560	734.538130500279	0
2	3564	734.643242792889	1
2	3565	735.694297472685	0
2	3577	738.499540193715	1
2	3578	738.821214507165	0
2	3587	740.244194370166	1
2	3588	740.668158115557	0
2	3597	741.811686093777	1
2	3598	742.681356997992	0
2	3615	746.410893916199	1
2	3616	746.524476608553	0
2	3630	748.493191996655	1
2	3631	749.329240091157	0
2	3642	751.853886365626	1
2	3643	751.989222781009	0
2	3647	752.555788570992	1
2	3652	753.036154494363	0
2	3656	753.584673578231	1
2	3658	753.695903454835	2
2	3659	754.019126100115	1
2	3663	754.638424723586	2
2	3664	755.11260049336	1
2	3668	755.448214792421	2
2	3669	755.980498789087	1
2	3673	756.398295683386	2
2	3674	756.957336252764	1
2	3678	757.311923713225	2
2	3679	758.085834069386	1
2	3683	759.144516640845	2
2	3684	759.147261480171	1
2	3688	759.686335121469	2
2	3691	760.238126814946	1
2	3695	760.513838452884	2
2	3696	761.375967995844	1
2	3700	761.826290048275	2
2	3701	762.366926210861	1
2	3705	763.258944118398	2
2	3706	763.565574084337	1
2	3709	764.705249157663	0
2	3713	765.068596126683	1
2	3714	765.804554534632	0
2	3726	768.048675482357	1
2	3727	768.62567603404	0
2	3737	770.957377149586	1
2	3738	771.569925193138	0
2	3820	788.659347084608	1
2	3823	789.666465116368	0
2	3830	790.547401390531	1
2	3832	791.04354409564	2
2	3833	791.498598504142	1
2	3838	792.374169710913	0
2	3842	792.745332357341	1
2	3844	792.957291300547	2
2	3845	793.461004037858	1
2	3849	793.97333122109	2
2	3850	794.367705709563	1
2	3853	795.258644984925	0
2	3857	795.360290397045	1
2	3859	795.470102701585	2
2	3861	795.477315396084	3
2	3862	796.273990660703	2
2	3867	797.443824624999	1
2	3871	797.668793649674	2
2	3872	798.520167888033	1
2	3876	799.017731219385	2
2	3877	799.618295595499	1
2	3881	799.645875527278	2
2	3882	800.66947353313	1
2	3885	801.807224407776	0
2	3889	802.171971240229	1
2	3891	802.377112441166	2
2	3892	802.983924112173	1
2	3895	804.178405845894	0
2	3902	805.475981111557	1
2	3903	806.265107662214	0
2	3907	806.986874768217	1
2	3909	807.30705488791	2
2	3910	807.449293655513	1
2	3914	808.053539270277	2
2	3917	808.507477192285	1
2	3921	808.576192120807	2
2	3922	809.591418118852	1
2	3926	809.822601803819	2
2	3927	810.782490490175	1
2	3930	811.785440110027	0
2	3934	811.928293891377	1
2	3936	811.97049305523	2
2	3937	812.710722811784	1
2	3940	813.837035176981	0
2	3950	816.739978613845	1
2	3951	816.98615297329	0
2	3967	820.51743978224	1
2	3970	820.712313074962	0
2	3979	821.979103803846	1
2	3980	822.587883346499	0
2	3995	825.710969553592	1
2	3998	826.665210361471	0
2	4005	827.517825856908	1
2	4009	827.761000460207	2
2	4010	828.548083862541	1
2	4013	829.707733518975	0
2	4019	829.871048945482	1
2	4020	830.5464967502	0
2	4024	830.616155573282	1
2	4025	831.436035162648	0
2	4029	831.79601163465	1
2	4030	832.367735695997	0
2	4037	834.290751489859	1
2	4038	834.315685451841	0
2	4042	834.489653301615	1
2	4043	835.154968104577	0
2	4047	835.553399255204	1
2	4048	836.036496022502	0
2	4052	836.322654532409	1
2	4053	837.037920815935	0
2	4057	837.554700773091	1
2	4058	837.876525997994	0
2	4065	839.056553462171	1
2	4067	839.340654881487	2
2	4071	840.050557021124	3
2	4072	840.073840688886	2
2	4075	840.914295507846	1
2	4078	842.029737213598	0
2	4082	842.281960133357	1
2	4084	842.401228549419	2
2	4085	842.872374756326	1
2	4089	842.94935192548	2
2	4092	843.75821865254	1
2	4095	844.827272290801	0
2	4104	846.065971626678	1
2	4105	846.917557016172	0
2	4115	848.854401985219	1
2	4117	849.013310457808	2
2	4119	849.581839931104	3
2	4120	850.051019085635	2
2	4125	851.066823061713	1
2	4129	851.148161565304	2
2	4132	851.980313173839	1
2	4136	852.052946378969	2
2	4137	852.997794601572	1
2	4140	853.997533501284	0
2	4144	854.166452397555	1
2	4148	855.075992031617	2
2	4149	855.18396568845	1
2	4152	856.328262377223	0
2	4156	857.088780645137	1
2	4157	857.47421067615	0
2	4161	857.963361074966	1
2	4162	858.427587596485	0
2	4166	859.349874709479	1
2	4167	859.46156149215	0
2	4171	859.837540221187	1
2	4173	860.028859861154	2
2	4176	860.609912022547	1
2	4182	861.400262114195	2
2	4183	861.484318527457	1
2	4187	861.747169453005	2
2	4188	862.398120900959	1
2	4192	862.653934138684	2
2	4193	863.315411227167	1
2	4196	864.366117261228	0
2	4200	864.532283108264	1
2	4201	865.322031466634	0
2	4205	865.385340368038	1
2	4206	866.185482516018	0
2	4210	866.443543092089	1
2	4212	866.482025270162	2
2	4213	867.332987252501	1
2	4216	868.14269270596	0
2	4220	868.581817728035	1
2	4221	868.999570065615	0
2	4227	869.784816124236	1
2	4228	870.118493992527	0
2	4235	871.768640647056	1
2	4236	872.092311589578	0
2	4256	876.865745956727	1
2	4258	876.884635841295	2
2	4261	877.036925078062	1
2	4265	877.252040985843	2
2	4266	877.915474664019	1
2	4271	878.819953504456	0
2	4278	880.253790333851	1
2	4280	880.326619332137	2
2	4284	881.051961985124	3
2	4285	881.063404406392	2
2	4290	881.908995821857	1
2	4294	882.699469625444	2
2	4295	883.093736488436	1
2	4299	883.578525439085	2
2	4300	883.943046934222	1
2	4303	885.131138809835	0
2	4307	885.508947109131	1
2	4308	886.267103177374	0
2	4312	886.274215496855	1
2	4313	887.113801698545	0
2	4317	888.049259561237	1
2	4318	888.081519279974	0
2	4322	888.089428396606	1
2	4324	888.904423820339	2
2	4325	888.933775717365	1
2	4328	890.079489380746	0
2	4338	891.910785290487	1
2	4339	892.825432924434	0
2	4343	892.861910100897	1
2	4346	893.733806711502	0
2	4350	894.292152811758	1
2	4351	894.609294075027	0
2	4358	895.678373302126	1
2	4359	896.347208685681	0
2	4365	896.595532254391	1
2	4367	896.89605833635	2
2	4368	897.200360167466	1
2	4371	898.375630022187	0
2	4375	898.82288905676	1
2	4377	898.943209689285	2
2	4378	899.419712473612	1
2	4382	899.735483566213	2
2	4383	900.31724677791	1
2	4386	901.25663906268	0
2	4393	903.163199293564	1
2	4394	903.480479205373	0
2	4401	905.134691353299	1
2	4403	905.158645169839	2
2	4406	905.573305593218	1
2	4409	906.511294608816	0
2	4418	908.058908827426	1
2	4419	908.576401315137	0
2	4428	910.037076591033	1
2	4429	910.305028629835	0
2	4449	914.264235207963	1
2	4451	914.48178427856	2
2	4452	915.257886012522	1
2	4455	916.1044157203	0
2	4461	917.146685379392	1
2	4462	917.164140207385	0
2	4466	917.644402027371	1
2	4468	917.782692575578	2
2	4469	918.295733053674	1
2	4473	918.969510566583	2
2	4474	919.111185474199	1
2	4477	920.045957805653	0
2	4484	921.372473149418	1
2	4485	922.261239121919	0
2	4489	922.304141071802	1
2	4491	922.567447062671	2
2	4492	923.207800313523	1
2	4496	923.584577130795	2
2	4497	924.257098390041	1
2	4501	924.641476470649	2
2	4502	925.076585478215	1
2	4505	926.24643310613	0
2	4512	927.879238697135	1
2	4513	928.2115783842	0
2	4525	930.874154840321	1
2	4526	931.149271783018	0
2	4545	934.277306455539	1
2	4546	935.270150377268	0
2	4550	935.99699106922	1
2	4551	936.172561782824	0
2	4560	937.662383046825	1
2	4563	938.683292295437	0
2	4567	939.061524264815	1
2	4568	939.591587079435	0
2	4572	940.002513535319	1
2	4573	940.760755766115	0
2	4577	941.368240399067	1
2	4578	941.610834058492	0
2	4585	943.11282647662	1
2	4587	943.328845880278	2
2	4588	943.756843229873	1
2	4592	944.548391462977	2
2	4593	944.669584010286	1
2	4600	945.61671297385	0
2	4609	946.555709292031	1
2	4612	947.707684594231	0
2	4634	952.937079083133	1
2	4635	952.981130963216	0
2	4647	955.40079830644	1
2	4651	956.083503737138	2
2	4652	956.390806902225	1
2	4657	957.273204350403	0
2	4661	957.97574507	1
2	4662	958.260548981304	0
2	4666	958.262501965089	1
2	4667	959.189830043937	0
2	4674	960.409939406623	1
2	4676	960.415085817832	2
2	4679	961.365399060889	1
2	4682	962.464450609057	0
2	4695	965.49369814158	1
2	4697	965.679711154622	2
2	4698	966.262031475013	1
2	4703	967.271117922036	0
2	4707	967.504174717344	1
2	4708	968.256237700233	0
2	4715	970.036275543768	1
2	4716	970.469692721149	0
2	4742	975.564041730301	1
2	4743	975.879060504518	0
2	4747	976.090492051983	1
2	4749	976.167564344752	2
2	4751	976.962518081892	3
2	4752	976.978408287398	2
2	4760	978.121922831543	3
2	4761	978.148497894525	2
2	4765	978.44114238295	3
2	4768	979.313919897776	2
2	4772	979.725587911928	3
2	4773	980.392854688529	2
2	4776	981.475592898604	1
2	4779	982.409251130026	0
2	4789	984.461961594668	1
2	4791	984.740420096977	2
2	4792	985.181992895089	1
2	4796	985.311178400892	2
2	4798	985.725387559793	3
2	4801	986.299217952814	2
2	4805	986.36265795895	3
2	4807	986.470993937846	4
2	4808	987.289710434832	3
2	4812	987.810465769123	4
2	4813	988.427732474756	3
2	4817	989.07467591138	4
2	4818	989.268691539791	3
2	4821	990.423822086238	2
2	4824	991.589453077716	1
2	4828	992.192698266149	2
2	4830	992.362111590845	3
2	4831	992.752169397594	2
2	4834	993.770473099807	1
2	4838	994.549865747845	2
2	4839	994.917940924996	1
2	4844	996.079657348738	0
2	4851	997.282214883567	1
2	4853	997.434163204314	2
2	4855	997.443713178272	3
2	4856	998.14826939267	2
2	4863	999.017360668656	1
2	4867	999.54148792499	2
2	4868	1000.143582590789	1
2	4872	1000.250876337081	2
2	4874	1000.437765064192	3
2	4875	1001.336497251623	2
2	4879	1002.324179277803	3
2	4880	1002.492260461793	2
2	4884	1002.508801687981	3
2	4886	1002.868262942776	4
2	4887	1003.448573624556	3
2	4891	1003.644459702888	4
2	4892	1004.252729103369	3
2	4895	1005.268460403969	2
2	4899	1005.516680367291	3
2	4900	1006.209582413109	2
2	4904	1006.799519144498	3
2	4905	1007.050447544763	2
2	4909	1007.719753358138	3
2	4910	1007.973417273751	2
2	4914	1008.001640831622	3
2	4915	1008.981454669713	2
2	4919	1009.69855775395	3
2	4920	1010.041036843444	2
2	4923	1011.040751277032	1
2	4927	1011.835390686773	2
2	4928	1012.145660918886	1
2	4932	1012.816746158776	2
2	4933	1013.342904628841	1
2	4937	1013.618196440498	2
2	4938	1014.314023974845	1
2	4942	1014.666763276595	2
2	4943	1015.418592284554	1
2	4947	1015.970861381651	2
2	4948	1016.306963564762	1
2	4952	1016.977678093321	2
2	4954	1017.211669916114	3
2	4955	1017.285043915202	2
2	4958	1018.266327725844	1
2	4962	1018.625471463647	2
2	4963	1019.095005056848	1
2	4967	1019.725112424477	2
2	4968	1020.201341138621	1
2	4972	1020.274520769132	2
2	4973	1021.30359742551	1
2	4977	1021.661341809771	2
2	4978	1022.391338075259	1
2	4982	1023.30105488833	2
2	4983	1023.56843001035	1
2	4987	1023.67986359587	2
2	4988	1024.74544966177	1
2	4992	1025.27495903777	2
2	4993	1025.716034767152	1
2	4997	1025.986152776615	2
2	5000	1026.774325045132	1
2	5003	1027.676001434707	0
2	5012	1029.535580196854	1
2	5013	1029.797073240977	0
2	5026	1033.520127507393	1
2	5027	1033.783120117084	0
2	5048	1037.425508953763	1
2	5049	1037.916439311606	0
2	5061	1040.484090313459	1
2	5063	1040.550098123696	2
2	5064	1040.999329416295	1
2	5067	1042.0743292318	0
2	5073	1043.063275902515	1
2	5074	1043.199999041324	0
2	5078	1043.416231815395	1
2	5079	1044.063171800998	0
2	5083	1044.644662677754	1
2	5084	1045.174775674035	0
2	5088	1045.72024709191	1
2	5089	1046.285367831522	0
2	5096	1047.799075781975	1
2	5097	1048.078993323752	0
2	5101	1048.456644651778	1
2	5105	1048.795101990556	2
2	5107	1049.12672812814	3
2	5108	1049.154948807163	2
2	5112	1050.270517215644	3
2	5113	1050.303401656197	2
2	5117	1051.061595188255	3
2	5118	1051.390819517364	2
2	5121	1052.205411496134	1
2	5125	1052.237219485197	2
2	5127	1052.249015918744	3
2	5128	1053.007746725091	2
2	5131	1053.888376879906	1
2	5134	1054.689610419264	0
2	5141	1056.166247858972	1
2	5142	1056.700268063164	0
2	5146	1057.514491283125	1
2	5149	1057.823351386311	0
2	5153	1058.096387041565	1
2	5154	1058.891984242695	0
2	5158	1059.219366261055	1
2	5159	1059.859779392211	0
2	5163	1060.526315007639	1
2	5166	1061.026483778125	0
2	5170	1061.076714337472	1
2	5173	1062.006497688527	0
2	5177	1062.541565023125	1
2	5178	1062.849155855673	0
2	5182	1063.572062482496	1
2	5183	1064.029501048411	0
2	5187	1064.782162381416	1
2	5188	1064.909528687997	0
2	5192	1065.061857699015	1
2	5193	1065.712910126643	0
2	5203	1068.051852553016	1
2	5204	1068.583594716741	0
2	5208	1068.762439348492	1
2	5211	1069.767742224159	0
2	5217	1070.807637260393	1
2	5218	1070.879390051989	0
2	5222	1071.036585404994	1
2	5223	1071.815483616321	0
2	5227	1071.861973858039	1
2	5228	1072.847999229869	0
2	5232	1073.008247455632	1
2	5233	1073.846155208657	0
2	5237	1074.614083252706	1
2	5238	1074.773129120311	0
2	5242	1074.811056212808	1
2	5243	1075.717856560024	0
2	5247	1076.504461027937	1
2	5248	1076.5808824912	0
2	5255	1078.515972856484	1
2	5258	1078.89963826093	0
2	5265	1080.141089146293	1
2	5268	1081.179339159589	0
2	5272	1081.580383611318	1
2	5273	1082.304425866931	0
2	5277	1083.294615868717	1
2	5278	1083.364154312416	0
2	5287	1084.940046898302	1
2	5289	1084.99087567128	2
2	5290	1085.539020430698	1
2	5293	1086.592908697977	0
2	5297	1087.178264624551	1
2	5298	1087.56063284346	0
2	5302	1088.074370951592	1
2	5303	1088.759861289739	0
2	5307	1088.797284238962	1
2	5308	1089.696907070774	0
2	5312	1090.375271627196	1
2	5313	1090.571816454019	0
2	5317	1091.176656549067	1
2	5318	1091.552089649375	0
2	5322	1091.657549086317	1
2	5323	1092.690545183077	0
2	5333	1094.936284079224	1
2	5336	1095.707644542056	0
2	5340	1095.8508318242	1
2	5342	1096.087423407956	2
2	5343	1096.525495970185	1
2	5347	1096.797070352135	2
2	5349	1097.098496573721	3
2	5352	1097.672459523968	2
2	5355	1098.704524095758	1
2	5359	1098.730978624498	2
2	5361	1098.88744149436	3
2	5362	1099.507817687775	2
2	5366	1100.155044842007	3
2	5367	1100.43007771981	2
2	5370	1101.512660814757	1
2	5374	1101.978331114068	2
2	5376	1102.309030086385	3
2	5377	1102.519251147407	2
2	5381	1103.326905103874	3
2	5382	1103.466267003427	2
2	5386	1103.502020795547	3
2	5387	1104.570160870562	2
2	5391	1104.643222411297	3
2	5392	1105.757160971901	2
2	5395	1106.568969401746	1
2	5399	1106.570915169094	2
2	5400	1107.417395713861	1
2	5403	1108.340721711545	0
2	5409	1108.665038037409	1
2	5411	1108.922051994257	2
2	5412	1109.20896764149	1
2	5415	1110.093454666278	0
2	5424	1111.58456954638	1
2	5425	1112.204133188288	0
2	5429	1112.816061003858	1
2	5432	1113.107679165463	0
2	5436	1113.410021955436	1
2	5438	1113.598752645833	2
2	5440	1113.618821332252	3
2	5441	1114.094800471264	2
2	5444	1114.919435354258	1
2	5448	1115.478300975046	2
2	5449	1116.043020801368	1
2	5453	1116.49165213339	2
2	5454	1117.09404691116	1
2	5458	1117.294120875626	2
2	5459	1118.097221114049	1
2	5465	1119.134749217447	2
2	5466	1119.137551593995	1
2	5470	1119.821158897574	2
2	5471	1120.215138921356	1
2	5476	1121.153808605978	0
2	5480	1121.845991645399	1
2	5482	1121.965640762674	2
2	5483	1122.073053879318	1
2	5487	1122.104278715535	2
2	5489	1122.515780929171	3
2	5490	1123.055952817322	2
2	5493	1124.164475135532	1
2	5496	1125.266737945684	0
2	5500	1125.74569869943	1
2	5502	1126.051527591433	2
2	5503	1126.190058644981	1
2	5506	1127.322099821669	0
2	5510	1127.785155483178	1
2	5512	1127.95695084011	2
2	5513	1128.462787685105	1
2	5517	1128.63084457154	2
2	5518	1129.417295732283	1
2	5521	1130.492670857468	0
2	5525	1130.720126771262	1
2	5526	1131.431377166816	0
2	5530	1131.516875121062	1
2	5532	1131.776008652751	2
2	5534	1131.785110395179	3
2	5536	1132.222729834343	4
2	5537	1132.406839557857	3
2	5540	1133.459323401962	2
2	5543	1134.61281813274	1
2	5547	1135.095550397725	2
2	5548	1135.435964559231	1
2	5552	1136.284611483349	2
2	5553	1136.43911022798	1
2	5556	1137.608119506136	0
2	5560	1138.726158517474	1
2	5561	1138.746574823212	0
2	5565	1139.596715747023	1
2	5566	1139.775075778298	0
2	5570	1140.080283665694	1
2	5572	1140.471782286223	2
2	5573	1140.959601091899	1
2	5576	1142.026877351597	0
2	5580	1142.663391283154	1
2	5582	1142.844164645987	2
2	5583	1142.952801379494	1
2	5587	1143.174898758916	2
2	5588	1143.951715841356	1
2	5592	1144.187105375526	2
2	5593	1144.967939280837	1
2	5597	1145.161117998604	2
2	5598	1146.071811253696	1
2	5602	1146.154129937666	2
2	5604	1146.481072993778	3
2	5605	1146.933377863213	2
2	5609	1147.753638461725	3
2	5610	1147.943236227266	2
2	5614	1148.69236946471	3
2	5615	1148.879037123851	2
2	5618	1149.995923350684	1
2	5621	1151.043385668311	0
2	5625	1151.069951287317	1
2	5627	1151.303644090491	2
2	5628	1151.872788751803	1
2	5632	1152.904455273277	2
2	5633	1152.989543713096	1
2	5637	1153.343210459519	2
2	5638	1153.920380150832	1
2	5642	1154.024322192885	2
2	5643	1154.944394628357	1
2	5647	1155.269914948686	2
2	5648	1155.983225761101	1
2	5651	1157.107631855671	0
2	5657	1157.445326345427	1
2	5658	1158.174527394705	0
2	5662	1158.505242306118	1
2	5663	1159.311936837089	0
2	5670	1160.434657701909	1
2	5672	1160.991740399397	2
2	5673	1161.191639080857	1
2	5676	1162.040951969688	0
2	5683	1163.795950437144	1
2	5684	1163.866195083902	0
2	5688	1163.992235065778	1
2	5691	1165.058781288498	0
2	5704	1167.777179538768	1
2	5707	1168.836635711256	0
2	5714	1170.461749797614	1
2	5715	1170.625605997003	0
2	5722	1171.673322427772	1
2	5723	1172.428264738179	0
2	5843	1197.766396358655	1
2	5846	1198.333572731285	0
2	5864	1201.105167185872	1
2	5865	1201.359835203669	0
2	5922	1213.619012923763	1
2	5925	1213.781052261895	0
2	5937	1216.353968092524	1
2	5940	1216.617564122869	0
2	5947	1218.009467032181	1
2	5948	1218.886874200335	0
2	5963	1221.879965995154	1
2	5964	1222.574816293852	0
2	5979	1225.711004750625	1
2	5980	1226.228504242398	0
2	5997	1229.557806610805	1
2	5998	1229.967029909159	0
2	6005	1231.022789508556	1
2	6006	1231.87332648665	0
2	6010	1232.672779885391	1
2	6011	1232.968972118593	0
2	6015	1233.326858306656	1
2	6018	1233.99735031931	0
2	6035	1237.831705640028	1
2	6036	1237.850306866526	0
2	6065	1244.384471411169	1
2	6069	1244.885861963991	2
2	6070	1245.093968492166	1
2	6075	1245.967729684037	0
2	6081	1246.393355782921	1
2	6083	1246.399200706653	2
2	6084	1247.008100599774	1
2	6089	1247.974157782902	0
2	6095	1248.356781361519	1
2	6096	1248.836417519932	0
2	6105	1250.728487286167	1
2	6106	1250.86230055073	0
2	6115	1252.360119773109	1
2	6116	1252.679637885445	0
2	6125	1253.906185959459	1
2	6126	1254.783734469746	0
2	6132	1255.11406606766	1
2	6133	1255.616953463365	0
2	6137	1255.670603939351	1
2	6139	1256.366424487151	2
2	6140	1256.704070483406	1
2	6143	1257.618674676844	0
2	6147	1257.998066448288	1
2	6148	1258.456291872335	0
2	6152	1258.470469296511	1
2	6153	1259.605269371697	0
2	6157	1260.317142284912	1
2	6158	1260.517895236963	0
2	6162	1261.028119018895	1
2	6163	1261.33107983263	0
2	6167	1261.612434435528	1
2	6169	1262.108771015134	2
2	6170	1262.478865397608	1
2	6174	1262.855397910208	2
2	6175	1263.44404511459	1
2	6179	1264.069416495927	2
2	6180	1264.609348243734	1
2	6184	1265.116093679081	2
2	6185	1265.443388612269	1
2	6188	1266.268785778972	0
2	6194	1266.592663610435	1
2	6196	1267.043366076051	2
2	6197	1267.229527312777	1
2	6201	1267.406782590866	2
2	6202	1268.217711749653	1
2	6206	1269.033079438766	2
2	6207	1269.040472522544	1
2	6211	1269.227792159259	2
2	6212	1270.015790017581	1
2	6215	1270.937238280455	0
2	6222	1272.691226399562	1
2	6223	1273.076553220375	0
2	6232	1274.69815036291	1
2	6233	1274.968485288302	0
2	6242	1276.56483512708	1
2	6244	1276.636168572339	2
2	6245	1277.212826605401	1
2	6248	1278.057980007472	0
2	6254	1278.547637810108	1
2	6255	1279.033828261754	0
2	6259	1279.576484280304	1
2	6260	1280.190696584413	0
2	6264	1280.721419124969	1
2	6265	1281.228796260877	0
2	6281	1285.241436766778	1
2	6282	1285.595823628715	0
2	6296	1288.185326827022	1
2	6298	1288.690281515578	2
2	6299	1288.920560248828	1
2	6302	1289.812853722906	0
2	6316	1291.854991403432	1
2	6317	1292.766718518155	0
2	6326	1294.565649496629	1
2	6327	1294.81241550546	0
2	6331	1295.044812096795	1
2	6332	1295.723708253986	0
2	6341	1297.432067404794	1
2	6344	1297.754134950768	0
2	6354	1298.44940836289	1
2	6355	1298.690044694189	0
2	6362	1299.8843107537	1
2	6365	1300.699008798301	0
2	6372	1301.937222197646	1
2	6373	1302.651326914206	0
2	6380	1303.685058701455	1
2	6385	1304.508962089736	0
2	6392	1306.365603910678	1
2	6393	1306.385854379256	0
2	6408	1309.396667017752	1
2	6411	1310.253733526246	0
2	6420	1311.44598930057	1
2	6423	1312.355309231003	0
2	6430	1314.579293059077	1
2	6431	1314.690096696263	0
2	6443	1317.098058596417	1
2	6446	1317.520321207011	0
2	6463	1321.036189743647	1
2	6466	1321.657410523092	0
2	6475	1323.031040411571	1
2	6476	1323.537546433211	0
2	6480	1323.951314227913	1
2	6483	1324.629768272658	0
2	6487	1324.678757636099	1
2	6488	1325.701514623948	0
2	6492	1326.338704025499	1
2	6493	1326.510949566756	0
2	6500	1327.865967820528	1
2	6501	1328.573141516541	0
2	6505	1329.018291574864	1
2	6507	1329.441840610878	2
2	6508	1329.652344812156	1
2	6513	1330.839851650485	0
2	6517	1331.443488053094	1
2	6518	1331.86085365804	0
2	6525	1333.552563660006	1
2	6526	1333.847227366809	0
2	6532	1334.649953930569	1
2	6533	1334.833886894752	0
2	6543	1337.278028259487	1
2	6545	1337.504978958058	2
2	6546	1337.742126449645	1
2	6549	1338.906129165255	0
2	6553	1339.152067146797	1
2	6555	1339.507337892451	2
2	6556	1339.787263184675	1
2	6563	1340.734057006688	0
2	6570	1342.202208734938	1
2	6572	1342.56447036523	2
2	6573	1342.728182542027	1
2	6577	1342.91803450991	2
2	6580	1343.78254217513	1
2	6583	1344.645905110409	0
2	6587	1344.926629311546	1
2	6588	1345.449149304052	0
2	6594	1346.34948489752	1
2	6595	1346.454699542635	0
2	6602	1348.483209840801	1
2	6603	1348.611871387419	0
2	6609	1349.19373932629	1
2	6610	1349.501942608208	0
2	6614	1349.659515419132	1
2	6615	1350.391632136405	0
2	6619	1350.801460641075	1
2	6622	1351.564086964429	0
2	6629	1352.656362735235	1
2	6631	1352.922352957135	2
2	6632	1353.59914209012	1
2	6637	1354.418718158622	0
2	6653	1359.270923168825	1
2	6654	1359.485469403193	0
2	6663	1360.893350100598	1
2	6664	1361.819954778236	0
2	6673	1363.104417034547	1
2	6674	1363.693290010077	0
2	6689	1367.42857689172	1
2	6691	1367.830729942236	2
2	6692	1367.848970659246	1
2	6695	1368.708343869896	0
2	6699	1368.979893702089	1
2	6700	1369.550885418133	0
2	6704	1369.863337259312	1
2	6709	1370.667342343629	0
2	6719	1372.915879050598	1
2	6720	1373.221272529177	0
2	6732	1375.55517355987	1
2	6733	1376.155391957312	0
2	6750	1380.241853507442	1
2	6751	1380.513566345894	0
2	6769	1383.135150226534	1
2	6770	1383.443347445675	0
2	6785	1386.869250163891	1
2	6786	1387.424509148285	0
2	6790	1387.526288092089	1
2	6792	1388.32654483785	2
2	6793	1388.400664920438	1
2	6797	1388.61672917464	2
2	6798	1389.347939493585	1
2	6802	1389.38726706977	2
2	6806	1389.960413939725	3
2	6807	1390.361929445326	2
2	6811	1390.464807865625	3
2	6812	1391.373782584894	2
2	6815	1392.240649052042	1
2	6819	1392.337003823399	2
2	6820	1393.112178388036	1
2	6824	1393.924558678592	2
2	6825	1394.181385831799	1
2	6829	1394.793134640781	2
2	6830	1395.233066478263	1
2	6833	1396.240628386273	0
2	6837	1396.555777511719	1
2	6839	1396.774235688382	2
2	6842	1397.305117932039	1
2	6846	1398.12675535325	2
2	6847	1398.202406583058	1
2	6850	1399.040949843528	0
2	6860	1401.602387081862	1
2	6862	1401.652096026196	2
2	6863	1402.360392284656	1
2	6868	1403.381059660653	0
2	6900	1415.212992608621	1
2	6903	1416.174510525065	0
2	6907	1416.321253999853	1
2	6908	1417.32379855373	0
2	6912	1417.416948446185	1
2	6913	1418.360855104579	0
2	6919	1419.225524845771	1
2	6920	1419.500815329971	0
2	6924	1419.95311634835	1
2	6925	1420.471010397086	0
2	6937	1423.160980522568	1
2	6938	1423.636599417302	0
2	6945	1424.582558258667	1
2	6946	1425.400961241863	0
2	6957	1426.956243283064	1
2	6958	1427.740806531239	0
2	6967	1428.925593560622	1
2	6968	1429.750315744043	0
2	6975	1431.850617650811	1
2	6978	1431.951275237728	0
2	6987	1433.353048947619	1
2	6988	1434.110620800019	0
2	6995	1435.656511472937	1
2	7000	1436.205704267681	0
2	7004	1436.944090423133	1
2	7006	1437.146707692915	2
2	7007	1437.244753534612	1
2	7013	1437.862009379205	2
2	7014	1438.160590983168	1
2	7017	1439.165394428172	0
2	7021	1439.793939731973	1
2	7023	1439.895945115211	2
2	7024	1440.189331728392	1
2	7027	1441.145427216855	0
2	7031	1441.525064003477	1
2	7032	1442.004676042576	0
2	7050	1446.794018507652	1
2	7053	1447.438881922292	0
2	7062	1449.726465194766	1
2	7063	1449.819219979981	0
2	7067	1450.590581218459	1
2	7070	1450.849607610947	0
2	7074	1450.931911078271	1
2	7075	1451.778206055483	0
2	7079	1452.031363489139	1
2	7080	1452.938276766857	0
2	7087	1454.442566101019	1
2	7088	1454.916008199622	0
2	7092	1455.40234919824	1
2	7095	1456.032053649203	0
2	7099	1456.205839319886	1
2	7100	1457.111343583335	0
2	7104	1457.783964553524	1
2	7105	1458.140252340642	0
2	7109	1458.256801072674	1
2	7110	1459.163777957075	0
2	7114	1459.489503701984	1
2	7116	1459.629438206215	2
2	7117	1459.999290403035	1
2	7120	1460.880662686993	0
2	7127	1462.691621587062	1
2	7128	1462.715820610673	0
2	7142	1465.091561412748	1
2	7145	1465.951612503324	0
2	7149	1466.174045484396	1
2	7150	1466.902677080464	0
2	7154	1467.560159555054	1
2	7155	1467.901949388218	0
2	7159	1468.136320477555	1
2	7162	1469.067970068623	0
2	7166	1469.635955982736	1
2	7167	1470.121152731926	0
2	7171	1470.456751732148	1
2	7172	1471.073719611541	0
2	7176	1471.812592142182	1
2	7178	1471.966746035391	2
2	7179	1472.246233710796	1
2	7182	1473.229917459712	0
2	7186	1473.693973117457	1
2	7187	1474.286040900332	0
2	7191	1474.447866769832	1
2	7193	1474.587018537863	2
2	7196	1475.475334756413	1
2	7200	1475.735328599834	2
2	7201	1476.509666398039	1
2	7204	1477.579060077911	0
2	7211	1479.069205594171	1
2	7212	1479.430258231853	0
2	7219	1480.581129797258	1
2	7221	1481.06945211939	2
2	7223	1481.538757952844	3
2	7224	1481.580892967024	2
2	7230	1482.290678049198	3
2	7231	1482.51982996516	2
2	7235	1482.583353645488	3
2	7236	1483.351910153554	2
2	7239	1484.180191117582	1
2	7243	1484.448274579966	2
2	7245	1484.851609628522	3
2	7246	1485.215302543026	2
2	7249	1486.190283781253	1
2	7252	1487.141244535484	0
2	7259	1488.476002746816	1
2	7260	1489.202250147667	0
2	7264	1489.312434938146	1
2	7266	1489.536348684477	2
2	7269	1490.242033069544	1
2	7273	1490.282833867044	2
2	7274	1491.150839645192	1
2	7278	1492.292167510324	2
2	7279	1492.330106034651	1
2	7283	1492.916097690927	2
2	7285	1493.184083187911	3
2	7286	1493.524583442378	2
2	7290	1494.195215548848	3
2	7291	1494.554538969378	2
2	7297	1495.07797154251	3
2	7298	1495.649520841482	2
2	7302	1495.737088663578	3
2	7303	1496.572171882967	2
2	7306	1497.628564348219	1
2	7310	1497.814444744304	2
2	7311	1498.616793576589	1
2	7314	1499.619313919226	0
2	7318	1499.662322125336	1
2	7320	1500.559613030145	2
2	7321	1500.698580108078	1
2	7324	1501.850329943241	0
2	7328	1502.126930116008	1
2	7329	1502.983028078319	0
2	7333	1503.243630476976	1
2	7335	1503.50888534943	2
2	7336	1504.083751857614	1
2	7340	1504.807220133607	2
2	7341	1504.952793947289	1
2	7344	1505.911321028376	0
2	7348	1506.205316781061	1
2	7350	1506.432707549926	2
2	7352	1506.822971166643	3
2	7353	1506.884622354394	2
2	7356	1507.687737935463	1
2	7360	1508.50887509617	2
2	7361	1508.832820057457	1
2	7367	1509.51781081327	2
2	7369	1509.610777806693	3
2	7370	1509.661592588534	2
2	7374	1509.780651006037	3
2	7375	1510.632820644656	2
2	7379	1510.925874869209	3
2	7380	1511.489391115734	2
2	7383	1512.466794301437	1
2	7386	1513.349021009968	0
2	7390	1513.771906447224	1
2	7391	1514.445852079575	0
2	7395	1514.542686889774	1
2	7396	1515.308511830174	0
2	7417	1520.826554869325	1
2	7420	1521.362677345851	0
2	7454	1527.501717221316	1
2	7457	1528.359943299795	0
2	7467	1530.490296601703	1
2	7468	1531.368960344194	0
2	7475	1532.596804690229	1
2	7479	1533.040764615733	2
2	7480	1533.444825195948	1
2	7485	1534.469677951986	0
2	7489	1534.852234599952	1
2	7490	1535.282111535182	0
2	7494	1535.40761834612	1
2	7496	1535.471106829258	2
2	7497	1536.099595388824	1
2	7501	1536.700049056679	2
2	7502	1537.269968343766	1
2	7506	1538.142461852348	2
2	7507	1538.327120219783	1
2	7510	1539.372000914586	0
2	7514	1539.52022269248	1
2	7515	1540.52283202471	0
2	7519	1540.685283519481	1
2	7521	1540.957098233922	2
2	7523	1540.993043210465	3
2	7524	1541.403174500128	2
2	7528	1542.411810773729	3
2	7529	1542.571221965885	2
2	7532	1543.411592146436	1
2	7535	1544.49745314434	0
2	7539	1545.185858059535	1
2	7541	1545.18588830772	2
2	7542	1545.572125516141	1
2	7548	1546.615434133366	2
2	7549	1546.70967132734	1
2	7553	1547.559707858876	2
2	7554	1547.679308812934	1
2	7557	1548.554170553907	0
2	7564	1549.672190158253	1
2	7566	1549.740512533168	2
2	7568	1549.862908018794	3
2	7570	1550.094717998339	4
2	7571	1550.52869904736	3
2	7574	1551.496469130981	2
2	7580	1551.998221215982	3
2	7581	1552.428417593296	2
2	7585	1552.480098910569	3
2	7586	1553.316834046654	2
2	7590	1553.541396891624	3
2	7591	1554.131742912493	2
2	7594	1554.938522336315	1
2	7598	1555.20903419609	2
2	7599	1555.83148559058	1
2	7603	1555.865723503768	2
2	7605	1556.983713844011	3
2	7606	1557.01042611055	2
2	7610	1557.831882537861	3
2	7611	1558.015359068996	2
2	7615	1558.415565493226	3
2	7616	1559.092808476704	2
2	7619	1560.214523088894	1
2	7622	1561.314730364978	0
2	7634	1564.385650789703	1
2	7635	1564.466219409797	0
2	7639	1565.164695169639	1
2	7642	1565.515372550729	0
2	7646	1566.147742354045	1
2	7647	1566.414930960126	0
2	7651	1567.104256931775	1
2	7653	1567.444713954727	2
2	7654	1567.595808933917	1
2	7658	1567.897883133607	2
2	7660	1568.590623183084	3
2	7661	1568.781370872594	2
2	7665	1569.331096817209	3
2	7666	1569.804500760193	2
2	7669	1570.746155715789	1
2	7673	1571.571675462622	2
2	7674	1571.635501972734	1
2	7677	1572.548489400613	0
2	7681	1572.558608878043	1
2	7683	1572.989163229232	2
2	7684	1573.422031697965	1
2	7687	1574.568172246272	0
2	7691	1574.866111113382	1
2	7692	1575.526927304322	0
2	7702	1577.750689542751	1
2	7705	1578.376301764657	0
2	7712	1580.002772303057	1
2	7713	1580.212925118261	0
2	7722	1581.727099102656	1
2	7723	1582.262301325572	0
2	7734	1583.67058242617	1
2	7735	1584.228711013363	0
2	7744	1585.288477650957	1
2	7745	1586.096634359339	0
2	7754	1587.727773126032	1
2	7755	1588.166240462715	0
2	7764	1589.529602177556	1
2	7765	1590.197345551064	0
2	7774	1591.14727648737	1
2	7775	1592.164214215947	0
2	7782	1593.77072983912	1
2	7783	1594.420715057531	0
2	7792	1595.594017268926	1
2	7793	1596.613209540823	0
2	7802	1598.505208442342	1
2	7803	1598.654015304202	0
2	7809	1599.178173833006	1
2	7811	1599.187942270746	2
2	7812	1599.585028926337	1
2	7816	1600.075511671566	2
2	7818	1600.411944016797	3
2	7819	1600.462787025289	2
2	7823	1600.818855825	3
2	7825	1601.146037631955	4
2	7826	1601.483395431337	3
2	7829	1602.474660739728	2
2	7833	1602.736464609111	3
2	7835	1602.979516338799	4
2	7836	1603.542662996572	3
2	7839	1604.389913644229	2
2	7842	1605.516299604864	1
2	7846	1605.953398108206	2
2	7848	1606.302533112987	3
2	7849	1606.342453590461	2
2	7853	1606.683205857653	3
2	7855	1607.186632449267	4
2	7856	1607.454124215485	3
2	7859	1608.475805351844	2
2	7863	1608.822279810069	3
2	7864	1609.654119349511	2
2	7868	1610.01139411669	3
2	7870	1610.288739272561	4
2	7871	1610.789909137746	3
2	7875	1610.806788538557	4
2	7877	1611.156980985934	5
2	7878	1611.665203822085	4
2	7881	1612.699443259144	3
2	7885	1613.133964321738	4
2	7886	1613.529202253146	3
2	7889	1614.657335861454	2
2	7892	1615.816149171217	1
2	7895	1616.723205684832	0
2	7902	1618.082978040952	1
2	7904	1618.336821616044	2
2	7905	1618.494103173966	1
2	7911	1618.863919054653	2
2	7913	1618.924681844165	3
2	7917	1619.35483408105	4
2	7918	1619.678144712242	3
2	7922	1619.716040031816	4
2	7924	1620.055667393246	5
2	7925	1620.846770133319	4
2	7928	1621.815371878127	3
2	7932	1622.203981029875	4
2	7933	1622.933378254863	3
2	7936	1623.779183739106	2
2	7939	1624.893526119235	1
2	7942	1626.0602256985	0
2	7946	1626.664683777826	1
2	7947	1627.063028783872	0
2	7951	1627.834280576971	1
2	7953	1628.025608083443	2
2	7955	1628.09781321144	3
2	7956	1628.228635099399	2
2	7959	1629.356596861835	1
2	7962	1630.424919351153	0
2	7966	1631.221126871162	1
2	7967	1631.467117746323	0
2	7971	1631.671526289777	1
2	7972	1632.637492207866	0
2	7979	1633.926802229064	1
2	7980	1634.501000953056	0
2	7991	1635.795787374554	1
2	7992	1636.347029200811	0
2	8004	1638.627731577541	1
2	8005	1639.436986871679	0
2	8009	1639.878041122965	1
2	8010	1640.242614808083	0
2	8016	1640.760181003637	1
2	8019	1641.395712513347	0
2	8023	1641.554485127582	1
2	8025	1642.338312849063	2
2	8026	1642.385487359912	1
2	8029	1643.251450727471	0
2	8033	1643.540186212875	1
2	8035	1644.171028370302	2
2	8036	1644.275985964631	1
2	8039	1645.447149396465	0
2	8046	1647.572184544643	1
2	8047	1647.706529102159	0
2	8056	1649.106675696855	1
2	8059	1649.657503296771	0
2	8068	1650.650336445249	1
2	8069	1651.557977872864	0
2	8076	1652.85157560304	1
2	8077	1653.358137641531	0
2	8089	1655.635296970313	1
2	8092	1656.083513673358	0
2	8102	1658.303393545905	1
2	8105	1658.926061398872	0
2	8114	1660.38440898307	1
2	8115	1660.816699971223	0
2	8129	1663.296160273949	1
2	8130	1663.590896986948	0
2	8140	1666.632296247633	1
2	8141	1666.66592031723	0
2	8162	1673.771556920516	1
2	8163	1674.132928608964	0
2	8170	1675.943707567295	1
2	8173	1676.250447147294	0
2	8182	1677.225938817969	1
2	8184	1677.240301709345	2
2	8185	1678.002510225076	1
2	8190	1679.017725165237	0
2	8194	1679.074840869947	1
2	8196	1679.237224111523	2
2	8197	1680.094409943234	1
2	8202	1681.190130769044	0
2	8206	1681.231692963892	1
2	8207	1682.25136713111	0
2	8211	1682.730390262794	1
2	8212	1683.370949430439	0
2	8216	1683.552962045972	1
2	8217	1684.276136038593	0
2	8224	1685.946880799874	1
2	8225	1686.601115687611	0
2	8234	1687.668214738753	1
2	8236	1687.80405785309	2
2	8237	1688.404439015268	1
2	8242	1689.566399665224	0
2	8246	1689.767545009692	1
2	8248	1689.795052883425	2
2	8249	1690.692612459185	1
2	8253	1691.396217608965	2
2	8254	1691.706649305439	1
2	8257	1692.691753233737	0
2	8261	1693.185454643806	1
2	8262	1693.877437093156	0
2	8266	1694.670606885417	1
2	8267	1694.698809201131	0
2	8301	1701.180716896157	1
2	8303	1701.243598148058	2
2	8304	1701.782766233153	1
2	8307	1702.681262782264	0
2	8314	1703.641493486447	1
2	8315	1704.670802534885	0
2	8324	1706.483665839278	1
2	8325	1706.810211984767	0
2	8350	1714.173024782878	1
2	8355	1714.904739450632	0
2	8362	1715.905599468138	1
2	8364	1716.147830063343	2
2	8366	1716.526985599353	3
2	8367	1716.701420783779	2
2	8370	1717.555022939356	1
2	8373	1718.374888131922	0
2	8377	1718.694485586227	1
2	8378	1719.431054897016	0
2	8382	1720.258491161912	1
2	8383	1720.345426908569	0
2	8387	1721.221582616003	1
2	8388	1721.28467356727	0
2	8392	1721.433306277913	1
2	8393	1722.2061185897	0
2	8399	1722.65865897228	1
2	8400	1723.209989685719	0
2	8404	1723.423970568329	1
2	8405	1724.023404631079	0
2	8414	1725.271440416069	1
2	8415	1726.134010196072	0
2	8419	1726.383324632005	1
2	8420	1727.137014340763	0
2	8432	1729.62320986879	1
2	8435	1730.096356940424	0
2	8439	1730.431330227677	1
2	8442	1731.141008690434	0
2	8446	1732.127744948814	1
2	8447	1732.130166403266	0
2	8451	1732.395862727483	1
2	8452	1733.275844786657	0
2	8462	1735.564664445471	1
2	8465	1736.304370417042	0
2	8527	1754.444354404624	1
2	8528	1754.760393828439	0
2	8535	1756.467856314863	1
2	8536	1756.748392270139	0
2	8540	1756.871525412933	1
2	8541	1757.946908954444	0
2	8545	1758.394047461051	1
2	8546	1758.953887451446	0
2	8550	1759.229456762509	1
2	8551	1759.801689603372	0
2	8555	1760.108724415455	1
2	8556	1760.999142356689	0
2	8580	1772.120930268451	1
2	8581	1772.867731951124	0
2	8590	1774.474530332292	1
2	8591	1774.91346818967	0
2	8612	1778.822395509693	1
2	8613	1779.753643992563	0
2	8617	1780.440427897639	1
2	8618	1780.865556489323	0
2	8622	1781.195941849905	1
2	8623	1782.053229578883	0
2	8629	1782.672875635974	1
2	8630	1783.016930253078	0
2	8634	1783.19671732089	1
2	8635	1784.100575910714	0
2	8639	1784.370575365867	1
2	8640	1785.170791777988	0
2	8647	1786.576776387807	1
2	8649	1786.683516048063	2
2	8650	1787.311253907551	1
2	8653	1788.115502207559	0
2	8660	1789.445563983577	1
2	8663	1790.230788096804	0
2	8675	1792.596030054932	1
2	8678	1793.341355338339	0
2	8685	1794.906079806519	1
2	8686	1795.270371343866	0
2	8690	1796.285431530505	1
2	8691	1796.412443146035	0
2	8695	1796.416193458947	1
2	8696	1797.292774307094	0
2	8700	1797.646284510124	1
2	8701	1798.282286163251	0
2	8707	1798.448888825692	1
2	8710	1799.286330930534	0
2	8716	1799.952603916726	1
2	8717	1800.19980124358	0
2	8724	1801.903542370828	1
2	8725	1802.411825921684	0
2	8736	1803.467942602988	1
2	8737	1804.596396574582	0
2	8741	1804.836364439016	1
2	8742	1805.501677939127	0
2	8746	1805.594134185435	1
2	8747	1806.438392390142	0
2	8751	1806.870471342264	1
2	8752	1807.587501445989	0
2	8759	1809.297888720396	1
2	8760	1809.440525322891	0
2	8766	1810.028342661418	1
2	8767	1810.306484116166	0
2	8774	1811.360075453369	1
2	8776	1811.57096931236	2
2	8778	1811.738345449789	3
2	8780	1812.154524650172	4
2	8781	1812.462550527155	3
2	8784	1813.352400018945	2
2	8788	1813.540992313469	3
2	8790	1814.003322261624	4
2	8791	1814.460585671309	3
2	8794	1815.560947222001	2
2	8797	1816.646273745335	1
2	8801	1817.50903950843	2
2	8802	1817.598783214408	1
2	8805	1818.610971116106	0
2	8812	1820.415631620383	1
2	8813	1820.561113308574	0
2	8822	1821.87009402655	1
2	8824	1822.555264429317	2
2	8825	1822.5645458352	1
2	8830	1823.6874027705	0
2	8834	1824.163672304853	1
2	8835	1824.550026997383	0
2	8844	1826.352188620685	1
2	8847	1826.783152049053	0
2	8851	1827.374163387345	1
2	8853	1827.704915226745	2
2	8855	1827.758748251125	3
2	8856	1827.870554115455	2
2	8862	1828.462564258159	3
2	8863	1829.043937618397	2
2	8866	1829.946324132774	1
2	8869	1830.819453516621	0
2	8881	1833.460290695875	1
2	8884	1834.312482316531	0
2	8888	1834.553873970958	1
2	8889	1835.325895959064	0
2	8903	1838.361090713553	1
2	8904	1838.46616665108	0
2	8917	1841.77717103877	1
2	8920	1842.492225743289	0
2	8929	1843.818909976152	1
2	8930	1844.43065266583	0
2	8934	1844.675313454919	1
2	8937	1845.421856006345	0
2	8941	1845.501792021305	1
2	8943	1845.695970317338	2
2	8944	1846.451745142991	1
2	8948	1847.165767579353	2
2	8949	1847.406653803697	1
2	8953	1848.012820141301	2
2	8955	1848.306272799826	3
2	8956	1848.326332571561	2
2	8959	1849.336707544996	1
2	8963	1849.680426488407	2
2	8965	1850.106024864761	3
2	8966	1850.234178232698	2
2	8971	1851.282865628617	1
2	8974	1852.443006820807	0
2	8978	1852.864106197936	1
2	8979	1853.45138394024	0
2	8986	1855.377036405846	1
2	8987	1855.740824252477	0
2	8991	1856.19418046538	1
2	8995	1856.445969643611	2
2	8996	1856.599873424431	1
2	8999	1857.735850822849	0
2	9003	1858.585813222234	1
2	9004	1858.783825805334	0
2	9023	1862.181058152148	1
2	9025	1862.405743302088	2
2	9026	1862.481531519739	1
2	9029	1863.554705252515	0
2	9036	1864.64055534303	1
2	9038	1864.933115923429	2
2	9039	1865.618109988438	1
2	9042	1866.742468089813	0
2	9054	1868.972339220994	1
2	9057	1869.693910731391	0
2	9064	1871.463708361498	1
2	9065	1871.850629645881	0
2	9077	1874.246727674137	1
2	9078	1874.90976606609	0
2	9084	1875.138251329218	1
2	9085	1876.000884589475	0
2	9089	1876.813789483832	1
2	9090	1876.945897068005	0
2	9094	1877.271875840103	1
2	9096	1877.780302047029	2
2	9097	1878.130414648741	1
2	9101	1878.877741621443	2
2	9102	1879.095404719203	1
2	9106	1879.635571011863	2
2	9107	1880.136570395916	1
2	9110	1880.987657035343	0
2	9114	1881.7595165732	1
2	9115	1881.953099915307	0
2	9122	1883.431754179265	1
2	9124	1883.476597591932	2
2	9126	1883.52712925671	3
2	9127	1883.908365552328	2
2	9130	1884.966917413674	1
2	9134	1884.992093475734	2
2	9135	1885.958222880043	1
2	9139	1886.079534880619	2
2	9141	1886.461787237956	3
2	9142	1886.976975251563	2
2	9146	1887.197674318027	3
2	9147	1888.000905727983	2
2	9150	1888.916641664334	1
2	9154	1889.206542929546	2
2	9155	1889.783748677947	1
2	9159	1890.088537473412	2
2	9161	1890.151965232063	3
2	9163	1890.346291788155	4
2	9167	1890.474882251488	5
2	9168	1890.917776040562	4
2	9172	1891.185803447736	5
2	9174	1891.825771427443	6
2	9175	1892.108964758289	5
2	9179	1892.117449106284	6
2	9182	1893.294749129672	5
2	9185	1894.23717121055	4
2	9189	1894.557735143507	5
2	9190	1895.11161927126	4
2	9194	1895.387059052682	5
2	9196	1895.399851800185	6
2	9198	1895.950385596856	7
2	9199	1896.191483686973	6
2	9202	1897.135779873483	5
2	9206	1898.07770158028	6
2	9207	1898.255888043918	5
2	9211	1898.947236721031	6
2	9213	1899.42093974633	7
2	9214	1899.439780434795	6
2	9217	1900.437312789556	5
2	9220	1901.37129484845	4
2	9224	1901.521423825105	5
2	9226	1901.85875053222	6
2	9228	1902.038662850558	7
2	9229	1902.565263303385	6
2	9233	1902.670242030379	7
2	9234	1903.393513979872	6
2	9238	1903.613930630721	7
2	9240	1904.288001968425	8
2	9241	1904.42493788229	7
2	9245	1904.711982648625	8
2	9246	1905.307175142892	7
2	9250	1905.41016024186	8
2	9251	1906.322030749187	7
2	9255	1906.910640512068	8
2	9256	1907.142399918582	7
2	9259	1908.142593524061	6
2	9265	1908.687164025305	7
2	9267	1909.034436153423	8
2	9268	1909.339353301205	7
2	9271	1910.310038900577	6
2	9274	1911.313099060689	5
2	9278	1911.869956930128	6
2	9279	1912.205160239075	5
2	9283	1912.212153917839	6
2	9285	1913.040695733121	7
2	9286	1913.222524015714	6
2	9290	1913.284204598605	7
2	9291	1914.234033693668	6
2	9295	1914.696025567087	7
2	9296	1915.30743351841	6
2	9300	1915.361129195967	7
2	9301	1916.437114160802	6
2	9304	1917.338047550726	5
2	9307	1918.266209789939	4
2	9310	1919.226222770583	3
2	9313	1920.12886156283	2
2	9316	1921.14111604422	1
2	9320	1921.625069855626	2
2	9321	1922.193482952115	1
2	9325	1922.356048500305	2
2	9326	1923.185590995864	1
2	9329	1924.148277208877	0
2	9336	1925.304954873204	1
2	9337	1925.875303829198	0
2	9346	1927.237809872449	1
2	9347	1927.892539450635	0
2	9351	1928.100983666231	1
2	9352	1928.793559861106	0
2	9358	1929.340479841033	1
2	9359	1929.847219995425	0
2	9363	1930.469817569606	1
2	9364	1930.875511245259	0
2	9373	1932.736549146568	1
2	9375	1932.851984880625	2
2	9376	1932.89760662235	1
2	9380	1933.435298487004	2
2	9382	1933.713878084318	3
2	9383	1933.835092310623	2
2	9388	1934.983308932573	1
2	9392	1935.644291173744	2
2	9393	1936.162338461742	1
2	9397	1936.540179050335	2
2	9398	1937.19320174541	1
2	9402	1937.664590817129	2
2	9403	1938.175152780224	1
2	9407	1938.666445238458	2
2	9408	1939.255583900694	1
2	9412	1940.182080321153	2
2	9413	1940.280553756204	1
2	9416	1941.317843165078	0
2	9431	1944.908209273801	1
2	9434	1945.631575463076	0
2	9438	1945.864239988568	1
2	9440	1945.940215725353	2
2	9442	1946.380723585434	3
2	9443	1946.769699736235	2
2	9447	1946.971884481263	3
2	9450	1947.616608753165	2
2	9454	1947.966224070867	3
2	9455	1948.708696573337	2
2	9459	1949.114936754073	3
2	9461	1949.194591655108	4
2	9462	1949.609929359162	3
2	9466	1950.013351830625	4
2	9468	1950.043685223539	5
2	9470	1950.199008309865	6
2	9471	1950.531634852679	5
2	9475	1950.552256111857	6
2	9477	1950.940567413768	7
2	9479	1950.963794268662	8
2	9481	1951.130934581342	9
2	9482	1951.458066690543	8
2	9485	1952.334116310735	7
2	9490	1953.431608349566	6
2	9494	1954.179981647043	7
2	9495	1954.442589489479	6
2	9498	1955.608872047082	5
2	9502	1955.944574393414	6
2	9504	1956.230632934956	7
2	9505	1956.801098124791	6
2	9509	1956.83017962817	7
2	9511	1956.942762643861	8
2	9512	1957.60666301848	7
2	9515	1958.678401453342	6
2	9519	1958.931197988027	7
2	9520	1959.595644468084	6
2	9524	1959.77779214752	7
2	9525	1960.769653431341	6
2	9529	1960.76969310377	7
2	9531	1960.963360145445	8
2	9534	1961.8213377271	7
2	9538	1962.127750475295	8
2	9539	1962.942301153314	7
2	9542	1963.800275105347	6
2	9545	1964.712832544853	5
2	9549	1965.191852466102	6
2	9550	1965.550985202302	5
2	9553	1966.458837988988	4
2	9556	1967.491097940147	3
2	9560	1967.536227167152	4
2	9562	1968.209607264681	5
2	9563	1968.562289226815	4
2	9567	1969.48072769736	5
2	9568	1969.53344528453	4
2	9572	1970.079409444691	5
2	9574	1970.110705957521	6
2	9575	1970.598889956079	5
2	9579	1970.636977014835	6
2	9582	1971.76619685452	5
2	9585	1972.799829047094	4
2	9589	1972.903863147431	5
2	9590	1973.957047486226	4
2	9593	1974.848169518928	3
2	9597	1975.161073467541	4
2	9599	1975.54649412931	5
2	9600	1975.844179715975	4
2	9604	1976.215092931023	5
2	9605	1976.842687228056	4
2	9609	1977.009626319569	5
2	9610	1977.952500878288	4
2	9614	1978.247106631023	5
2	9615	1978.980698371133	4
2	9618	1979.785542298867	3
2	9622	1980.814870637776	4
2	9623	1980.954596128142	3
2	9627	1981.527780790079	4
2	9629	1981.673060860069	5
2	9630	1981.761334107271	4
2	9633	1982.758594008642	3
2	9637	1982.833572294011	4
2	9638	1983.779472620799	3
2	9641	1984.719294344927	2
2	9645	1985.845080664616	3
2	9646	1985.87559806799	2
2	9650	1985.973668528353	3
2	9652	1986.079468091063	4
2	9654	1986.203303808016	5
2	9656	1986.292473476536	6
2	9657	1986.898821132457	5
2	9661	1987.196413191752	6
2	9662	1988.07575923243	5
2	9666	1988.356207722138	6
2	9668	1988.58677021341	7
2	9669	1988.898388109928	6
2	9673	1988.985290335738	7
2	9674	1989.919353810245	6
2	9678	1990.32268981579	7
2	9679	1991.001957087045	6
2	9683	1991.652504117195	7
2	9685	1991.820850824051	8
2	9686	1991.939113267058	7
2	9690	1992.442035809475	8
2	9691	1992.965620436066	7
2	9694	1993.843747521484	6
2	9698	1994.883293761931	7
2	9699	1995.034321900842	6
2	9703	1995.117602041873	7
2	9705	1995.900734444301	8
2	9706	1996.143274608453	7
2	9710	1997.02494068661	8
2	9711	1997.056363535778	7
2	9714	1998.240275886574	6
2	9717	1999.432529349451	5
2	9721	1999.95224347937	6
2	9722	2000.495097347361	5
2	9725	2001.570792028227	4
2	9729	2001.767102528134	5
2	9731	2002.618303005876	6
2	9732	2002.674876226497	5
2	9736	2003.106109298113	6
2	9738	2003.303735093839	7
2	9739	2003.602317325969	6
2	9742	2004.74833290932	5
2	9746	2004.873852901411	6
2	9747	2005.754343963426	5
2	9751	2005.863796529824	6
2	9753	2006.005753366612	7
2	9754	2006.872942086973	6
2	9758	2007.458915978302	7
2	9759	2008.058528806467	6
2	9763	2008.063558644524	7
2	9764	2009.196008971997	6
2	9768	2010.027884319961	7
2	9769	2010.267737825226	6
2	9772	2011.417014885426	5
2	9776	2011.514574734139	6
2	9777	2012.458205231663	5
2	9780	2013.591953239694	4
2	9783	2014.528030639153	3
2	9786	2015.349910000816	2
2	9790	2016.278241459511	3
2	9791	2016.521623898402	2
2	9795	2017.235590104036	3
2	9796	2017.514844801288	2
2	9800	2018.492254573744	3
2	9801	2018.607567106571	2
2	9805	2018.890095956861	3
2	9806	2019.798303114727	2
2	9811	2020.969564532034	1
2	9815	2021.069854300226	2
2	9816	2022.160477492317	1
2	9819	2022.985359734959	0
2	9823	2023.311569542574	1
2	9824	2023.871402405492	0
2	9828	2023.919103321844	1
2	9830	2024.433812503075	2
2	9831	2024.924179777048	1
2	9834	2026.012904288817	0
2	9838	2026.193880267128	1
2	9839	2026.920790619787	0
2	9843	2027.595997075588	1
2	9844	2027.818110001099	0
2	9851	2029.720049375676	1
2	9852	2029.72695645626	0
2	9866	2032.684677746759	1
2	9867	2032.699104920601	0
2	9871	2033.002142164454	1
2	9872	2033.716961173633	0
2	9881	2035.511113511663	1
2	9883	2035.610678283753	2
2	9885	2035.936698894916	3
2	9886	2036.012472273329	2
2	9890	2036.502714217839	3
2	9892	2036.734660441175	4
2	9893	2036.944410565695	3
2	9896	2037.770522129735	2
2	9900	2037.860329343198	3
2	9903	2038.708498801583	2
2	9906	2039.699180728675	1
2	9910	2040.064867126682	2
2	9912	2040.522073245859	3
2	9913	2040.698487184302	2
2	9917	2040.709793672123	3
2	9918	2041.758664115251	2
2	9922	2041.785443206183	3
2	9923	2042.60136716395	2
2	9926	2043.745882157994	1
2	9930	2044.56498755807	2
2	9931	2044.913790772961	1
2	9935	2045.258125089967	2
2	9936	2045.929156309193	1
2	9940	2046.172294832322	2
2	9941	2046.944460521745	1
2	9944	2047.859874819512	0
2	9951	2049.521477550513	1
2	9953	2049.826938388422	2
2	9954	2050.163055759123	1
2	9959	2051.163345191921	0
2	9970	2053.215434887126	1
2	9971	2053.266735646794	0
2	9980	2054.474775916575	1
2	9982	2054.553641653769	2
2	9984	2054.659486694928	3
2	9985	2055.294923363453	2
2	9990	2056.123175306352	1
2	9993	2056.944702759026	0
2	9997	2057.194999189607	1
2	9998	2058.078585945363	0
2	10007	2059.824035925925	1
2	10009	2060.052856853221	2
2	10010	2060.104955197605	1
2	10013	2060.979702520012	0
2	10017	2061.37190224735	1
2	10020	2062.14795995207	0
2	10027	2063.103735557349	1
2	10028	2063.937088945149	0
2	10042	2065.982286322422	1
2	10044	2066.366328340509	2
2	10045	2066.915495746968	1
2	10051	2067.709433720067	2
2	10052	2067.857301586227	1
2	10056	2068.676137907083	2
2	10057	2068.974118278188	1
2	10061	2069.196753643022	2
2	10062	2069.782584847709	1
2	10065	2070.902022408986	0
2	10069	2071.343148462457	1
2	10070	2071.831885619754	0
2	10079	2073.264601421911	1
2	10081	2073.588274242935	2
2	10082	2073.825423889247	1
2	10088	2074.240703587853	2
2	10089	2074.994231109333	1
2	10093	2075.034621037621	2
2	10094	2076.139625365113	1
2	10097	2077.049892330741	0
2	10107	2079.048977515424	1
2	10108	2079.993198441447	0
2	10112	2080.422309465624	1
2	10113	2081.171470864595	0
2	10117	2081.285789225233	1
2	10119	2081.367507795113	2
2	10125	2081.7158735043	3
2	10126	2082.334960335598	2
2	10129	2083.218467534345	1
2	10133	2083.370454325092	2
2	10137	2083.91408887867	3
2	10138	2084.227698164259	2
2	10142	2084.592443653543	3
2	10143	2085.108933441353	2
2	10147	2085.210270113912	3
2	10148	2086.162418760278	2
2	10151	2087.154791171116	1
2	10154	2088.089542902739	0
2	10158	2088.16075647667	1
2	10159	2088.976684181498	0
2	10163	2089.190161883924	1
2	10165	2089.39498636184	2
2	10166	2089.806917701674	1
2	10170	2090.462085141163	2
2	10171	2090.929098090262	1
2	10175	2091.061649488119	2
2	10176	2091.730863142212	1
2	10179	2092.534516611707	0
2	10183	2093.004735709403	1
2	10184	2093.511908392713	0
2	10188	2094.43761811857	1
2	10190	2094.572887918793	2
2	10191	2094.688056625065	1
2	10195	2094.754924486072	2
2	10197	2094.927106534985	3
2	10198	2095.722780875315	2
2	10202	2096.526300023322	3
2	10203	2096.594519832929	2
2	10207	2097.304921928852	3
2	10208	2097.404347030738	2
2	10212	2097.445062087535	3
2	10213	2098.212596528431	2
2	10217	2098.626086781243	3
2	10218	2099.254729585735	2
2	10221	2100.161397173082	1
2	10225	2100.434244206361	2
2	10227	2100.539056733549	3
2	10228	2101.222774302693	2
2	10231	2102.034512107553	1
2	10236	2102.852274248203	0
2	10243	2104.241517199157	1
2	10246	2104.934689727159	0
2	10253	2106.185827657653	1
2	10255	2106.202548317083	2
2	10256	2106.932542348852	1
2	10259	2107.834315272247	0
2	10266	2109.80028935695	1
2	10267	2110.001478228358	0
2	10274	2111.016363617017	1
2	10276	2111.194040761875	2
2	10277	2111.773229095818	1
2	10280	2112.638475112816	0
2	10286	2112.901878061734	1
2	10287	2113.448578248186	0
2	10291	2114.220869036365	1
2	10292	2114.309049060581	0
2	10296	2114.487358787525	1
2	10297	2115.236466010021	0
2	10301	2115.283713802909	1
2	10303	2116.058484508581	2
2	10304	2116.349278427115	1
2	10308	2116.813454210766	2
2	10309	2117.305197198609	1
2	10313	2117.812218548141	2
2	10314	2118.483092255345	1
2	10317	2119.497411313573	0
2	10321	2119.750675988234	1
2	10324	2120.582862666914	0
2	10328	2121.364136294456	1
2	10329	2121.597114243185	0
2	10333	2122.12800092166	1
2	10334	2122.414651412902	0
2	10338	2122.734492937905	1
2	10339	2123.247048436211	0
2	10349	2126.061590884252	1
2	10350	2126.094836122276	0
2	10359	2127.850322776107	1
2	10360	2128.113820105804	0
2	10372	2130.799288053867	1
2	10373	2131.22777821367	0
2	10425	2142.042158670351	1
2	10428	2142.767738852383	0
2	10440	2144.702415314894	1
2	10443	2145.853323844553	0
2	10452	2147.911486295857	1
2	10453	2147.984253322346	0
2	10462	2149.146314969927	1
2	10463	2150.23413252394	0
2	10472	2151.301431062528	1
2	10473	2152.215263518517	0
2	10480	2153.512067992992	1
2	10481	2154.259121873615	0
2	10490	2155.695570466361	1
2	10491	2156.313276274049	0
2	10511	2161.05983973633	1
2	10512	2161.068203222485	0
2	10523	2162.590851387396	1
2	10524	2162.880544652337	0
2	10528	2162.951619126016	1
2	10529	2163.737744934404	0
2	10535	2163.975974574916	1
2	10536	2164.573384576117	0
2	10540	2165.047577481461	1
2	10541	2165.541749179748	0
2	10545	2165.739332973456	1
2	10546	2166.384011711006	0
2	10550	2166.84605145709	1
2	10551	2167.238128103607	0
2	10555	2168.056838054963	1
2	10556	2168.377289878216	0
2	10560	2169.442805693986	1
2	10561	2169.558837611892	0
2	10565	2169.941127849811	1
2	10566	2170.556903088105	0
2	10573	2171.743746303399	1
2	10574	2172.45845310922	0
2	10585	2173.664508814571	1
2	10586	2174.204639353149	0
2	10595	2175.745758295	1
2	10596	2176.123871982948	0
2	10600	2176.170569075822	1
2	10601	2177.061900649046	0
2	10611	2178.945320894419	1
2	10613	2179.336353594791	2
2	10616	2179.730187290267	1
2	10619	2180.655724059709	0
2	10623	2181.090642048095	1
2	10624	2181.469412064657	0
2	10641	2184.824848960001	1
2	10642	2185.524810168345	0
2	10649	2186.713101632084	1
2	10650	2187.577687190578	0
2	10657	2188.781862477015	1
2	10658	2189.492551200569	0
2	10675	2193.027915049973	1
2	10678	2193.550638482265	0
2	10685	2194.580659602854	1
2	10686	2195.248062920022	0
2	10698	2197.330071316086	1
2	10702	2197.459377476612	2
2	10705	2198.039141153647	1
2	10708	2198.860873525693	0
2	10714	2199.129544866637	1
2	10715	2199.827360768161	0
2	10722	2201.326470681577	1
2	10723	2201.65753734681	0
2	10730	2203.032344582404	1
2	10734	2203.15608162832	2
2	10735	2203.622308107384	1
2	10738	2204.743410545134	0
2	10766	2210.898995400359	1
2	10767	2211.708449330658	0
2	10776	2213.23648853824	1
2	10779	2213.89870143804	0
2	10791	2216.03151930646	1
2	10792	2216.738533687697	0
2	10802	2218.767603569666	1
2	10803	2219.562360707776	0
2	10817	2221.607307185375	1
2	10822	2222.589603589114	0
2	10834	2224.366346933442	1
2	10837	2225.267260788393	0
2	10848	2226.439034467269	1
2	10849	2227.438519575645	0
2	10856	2228.907247027387	1
2	10858	2228.988925508282	2
2	10859	2229.30807262651	1
2	10862	2230.203394584277	0
2	10866	2230.243283239233	1
2	10867	2231.400207523176	0
2	10871	2232.472314527518	1
2	10872	2232.490565519513	0
2	10876	2232.661546260673	1
2	10877	2233.500128561643	0
2	10881	2233.727698382329	1
2	10882	2234.333626365488	0
2	10886	2234.3590225599	1
2	10889	2235.415796029208	0
2	10893	2235.72635295079	1
2	10894	2236.416031915521	0
2	10901	2238.225848549827	1
2	10902	2238.329907562876	0
2	10906	2238.424702727536	1
2	10909	2239.516951849883	0
2	10913	2239.821310844543	1
2	10915	2240.271131075449	2
2	10917	2240.592908750994	3
2	10918	2240.716549810594	2
2	10922	2241.305952677648	3
2	10924	2241.758127474339	4
2	10925	2241.88390877956	3
2	10929	2242.18820273297	4
2	10930	2242.919112540422	3
2	10934	2243.766137942568	4
2	10935	2244.007717190882	3
2	10939	2244.895241118126	4
2	10940	2245.186213564699	3
2	10944	2246.100853393419	4
2	10945	2246.242967391213	3
2	10949	2247.248765591357	4
2	10950	2247.282857791254	3
2	10954	2247.287751289407	4
2	10956	2247.814424866184	5
2	10957	2248.151656786551	4
2	10961	2248.19165932826	5
2	10962	2249.22289298178	4
2	10966	2249.60409851748	5
2	10967	2250.418734532048	4
2	10971	2250.955248777305	5
2	10973	2251.140729432689	6
2	10974	2251.57356633927	5
2	10978	2251.79027033862	6
2	10979	2252.512876863976	5
2	10982	2253.668604156294	4
2	10986	2254.168252560101	5
2	10988	2254.282848460985	6
2	10989	2254.738355562755	5
2	10993	2255.882368349829	6
2	10994	2255.88410749269	5
2	10997	2256.808663598646	4
2	11001	2257.310197937675	5
2	11002	2257.837399537314	4
2	11005	2258.679235620994	3
2	11009	2259.068603319587	4
2	11010	2259.661515260871	3
2	11013	2260.714155883632	2
2	11017	2261.287695989753	3
2	11018	2261.914004428509	2
2	11022	2262.674445131539	3
2	11023	2262.714774199213	2
2	11027	2263.779380681511	3
2	11028	2263.88124606778	2
2	11031	2265.063603917147	1
2	11035	2265.798820086854	2
2	11036	2265.864565500441	1
2	11040	2266.062934624576	2
2	11041	2266.758197797566	1
2	11045	2266.785647994483	2
2	11047	2267.461400830564	3
2	11048	2267.759238445397	2
2	11052	2268.356934939789	3
2	11053	2268.699418031062	2
2	11057	2268.914875517568	3
2	11059	2269.749853514489	4
2	11060	2269.866325094747	3
2	11065	2270.965196149154	2
2	11068	2271.819521335243	1
2	11071	2272.803230816974	0
2	11078	2273.981301370614	1
2	11081	2274.893186486709	0
2	11088	2276.523426648141	1
2	11090	2276.896913439997	2
2	11091	2277.048065658576	1
2	11095	2277.529825511618	2
2	11099	2277.657357246912	3
2	11100	2277.955429866362	2
2	11104	2277.963754795282	3
2	11105	2279.123347636882	2
2	11109	2279.335370871839	3
2	11111	2279.795268666059	4
2	11112	2279.982305426813	3
2	11115	2281.086629340249	2
2	11118	2281.980409496101	1
2	11121	2282.793561737808	0
2	11130	2284.466231323997	1
2	11131	2284.646706859032	0
2	11137	2285.456653510847	1
2	11139	2285.697468502935	2
2	11140	2285.827287560152	1
2	11143	2286.998372331085	0
2	11147	2287.69616425852	1
2	11149	2288.029049610758	2
2	11150	2288.182827436095	1
2	11154	2288.463548506821	2
2	11155	2289.069047929076	1
2	11159	2289.957970601843	2
2	11160	2289.965278359418	1
2	11164	2289.985917996956	2
2	11165	2290.843212425624	1
2	11169	2290.852403992411	2
2	11171	2290.869476160018	3
2	11172	2291.710251862192	2
2	11176	2292.340209912885	3
2	11177	2292.893444285364	2
2	11180	2293.971148984329	1
2	11183	2294.803436038186	0
2	11189	2295.510589323435	1
2	11191	2295.52067304824	2
2	11192	2295.686387349953	1
2	11196	2295.966872159134	2
2	11197	2296.818316419338	1
2	11201	2297.540432426361	2
2	11202	2297.873650797186	1
2	11205	2298.959825856899	0
2	11209	2299.385359946809	1
2	11210	2299.911175353182	0
2	11217	2301.898411447443	1
2	11219	2301.927677421683	2
2	11220	2302.05832884862	1
2	11223	2302.899026187518	0
2	11227	2303.244165291904	1
2	11230	2303.82256342071	0
2	11234	2304.651855123084	1
2	11236	2304.6853524302	2
2	11237	2304.717997487363	1
2	11241	2305.183090399762	2
2	11243	2305.183994200578	3
2	11244	2305.813257444658	2
2	11247	2306.898409411319	1
2	11250	2307.958246317886	0
2	11254	2308.736218119912	1
2	11255	2309.013473731473	0
2	11262	2310.136961461936	1
2	11263	2311.068204229518	0
2	11267	2311.218795280739	1
2	11270	2311.934748405411	0
2	11274	2312.543168416368	1
2	11277	2313.072192983243	0
2	11284	2314.09384520838	1
2	11285	2314.906321856387	0
2	11289	2315.392818418113	1
2	11292	2315.888575914044	0
2	11299	2317.240894713556	1
2	11300	2317.771953341931	0
2	11304	2318.314428380374	1
2	11305	2318.848865438167	0
2	11314	2320.445898686216	1
2	11315	2320.823699732505	0
2	11319	2320.859711654429	1
2	11323	2321.584602092478	2
2	11324	2321.79319883772	1
2	11329	2322.689261633352	0
2	11333	2322.819025379777	1
2	11334	2323.718320009865	0
2	11338	2323.872484982439	1
2	11339	2324.645532686364	0
2	11345	2325.245203332402	1
2	11346	2325.571102707654	0
2	11350	2325.759452754576	1
2	11351	2326.6916994026	0
2	11355	2326.888115178116	1
2	11356	2327.779075198255	0
2	11360	2328.420327298997	1
2	11361	2328.966268789216	0
2	11365	2329.022160176355	1
2	11366	2329.909910434491	0
2	11370	2330.033620937622	1
2	11371	2330.777475937183	0
2	11375	2331.439940837074	1
2	11376	2331.588454567834	0
2	11380	2332.220639759407	1
2	11381	2332.657916706342	0
2	11385	2333.199590562553	1
2	11386	2333.774662030216	0
2	11390	2334.351007089964	1
2	11391	2334.801695273451	0
2	11395	2335.522734752751	1
2	11396	2335.86443437916	0
2	11400	2336.161225159324	1
2	11402	2336.597793651713	2
2	11404	2336.960161592655	3
2	11405	2337.051996752999	2
2	11408	2338.002126720554	1
2	11411	2339.061798075407	0
2	11418	2341.047952782507	1
2	11419	2341.075993230387	0
2	11428	2342.481464518164	1
2	11429	2343.063599504631	0
2	11438	2344.179682668708	1
2	11440	2344.881392007417	2
2	11441	2345.117299847685	1
2	11444	2346.008151637584	0
2	11448	2346.09967310094	1
2	11449	2346.839670461889	0
2	11453	2347.200137635221	1
2	11454	2347.883889301315	0
2	11461	2348.73711785529	1
2	11463	2349.112188213927	2
2	11465	2349.302429331307	3
2	11466	2349.643338978112	2
2	11469	2350.539245983314	1
2	11473	2350.767776437034	2
2	11476	2351.540698979151	1
2	11480	2351.696571775631	2
2	11482	2352.201263175391	3
2	11483	2352.650659768478	2
2	11487	2353.335474586416	3
2	11488	2353.82862026804	2
2	11491	2354.680400834334	1
2	11494	2355.500649701067	0
2	11498	2356.32407095934	1
2	11501	2356.516100564235	0
2	11507	2357.232600235415	1
2	11508	2357.548576703117	0
2	11512	2357.810200454914	1
[...]
6	117871	24121.423979764336	708.30939756498
6	117933	24133.813675883876	1847.9356215232
6	117959	24138.109194756391	558.46505439472
6	117998	24146.946153669802	423.37796742992
6	118005	24148.054409355016	1649.9402830179
6	118049	24157.829492415858	1537.1712045685
6	118072	24163.387726951388	1526.3459803948
6	118116	24173.122694541603	903.17554494392
6	118134	24177.286970694732	664.1860995304
6	118148	24179.417967812807	264.13702621985
6	118329	24214.985767323892	216.78115135334
6	118352	24220.321979073151	210.92603240001
6	118535	24254.269504873637	376.65753895942
6	118548	24257.138478943049	657.85426445083
6	118555	24258.26322943782	1155.5693326991
6	118576	24263.31943260701	782.96380296288
6	118670	24281.596593187469	516.48653970602
6	118735	24296.959321508649	1321.6156832354
6	118774	24304.15216504149	932.22810172472
6	118798	24307.899595112166	515.9489197969
6	118885	24322.483940461744	84.977467652721
6	119001	24346.338578097618	317.42569869554
6	119243	24392.619260673229	473.48618236867
6	119309	24407.973135485782	719.91746619549
6	119329	24410.012693742852	1436.0981476381
6	119334	24410.815361257366	879.70683295954
6	119342	24412.829424637652	105.47092887946
6	119388	24425.248643922435	100.68693008197
6	119395	24426.357607641445	2387.2425846654
6	119469	24440.066259148625	998.42166708439
6	119636	24470.639493760842	850.07126930515
6	119773	24497.356789855851	1009.4063462444
6	119942	24530.779687784992	252.64713589973
6	119950	24532.878270031519	346.1360695319
6	119971	24538.105144668006	603.89139243922
6	119974	24538.985924736512	595.17964118582
6	119979	24540.117920640771	440.04271644592
6	119987	24542.171370707926	1234.6392529026
6	120016	24549.069430593782	567.97738978514
6	120029	24552.028271967367	251.87781542664
6	120038	24554.86051734668	1565.9503063894
6	120086	24566.549989244536	332.3980315737
6	120131	24577.188128161718	217.07304564041
6	120147	24581.170851173539	320.79669470423
6	120197	24592.45379778399	411.38342642387
6	120516	24648.191429195658	229.38163758823
6	120571	24659.120750103344	648.88311763649
6	120643	24672.959521810629	444.0615357016
6	120731	24690.809049720049	352.61419853223
6	120737	24692.975093526032	1255.5250436484
6	120825	24708.606645122554	253.36855758305
6	120938	24731.708008250325	1983.5169941102
6	121077	24758.48110197439	2445.029783246
6	121129	24770.402372779987	458.14370772646
6	121136	24771.320112202513	99.76941955586
6	121144	24773.244609182152	646.34323891884
6	121160	24777.099099939419	533.61575927427
6	121192	24783.396253254089	340.88397386772
6	121219	24788.53656287334	1061.5278962008
6	121235	24792.205257266398	339.72075077911
6	121309	24805.936253807982	625.28881678375
6	121337	24811.517376112481	1515.4524701845
6	121344	24812.653183828862	416.700939454
6	121379	24820.16871255572	208.78811375566
6	121384	24821.282835757556	209.16200920182
6	121406	24827.693544902755	862.32322307592
6	121414	24829.806638712911	74.989040568913
6	121426	24831.829108376903	628.57091057638
6	121447	24836.342733350963	68.776183738549
6	121731	24891.495516491413	2193.2455389585
6	121776	24900.775984615005	404.76557360148
6	121810	24909.393987362937	840.5284551792
6	121870	24920.882104799907	719.50894935579
6	121877	24921.69570344166	168.26089575491
6	121894	24924.62101228769	927.22272789545
6	121938	24934.639147964689	278.40265666897
6	121957	24939.329756901516	807.03585825624
6	121992	24946.955760943528	810.98604011586
6	122014	24950.977545827079	158.89823012361
6	122082	24965.32703056141	1714.8577665446
6	122090	24967.183391191915	452.79374468429
6	122098	24969.141039429896	452.51837973548
6	122155	24980.240948333789	161.90381859055
6	122183	24986.511740485032	65.124335581011
6	122191	24988.808947897155	368.39599500486
6	122199	24990.692591160361	66.472148497478
6	122294	25007.456484247197	357.59212104053
6	122454	25039.624348778849	1018.6069833394
6	122480	25045.238918921271	593.09789864295
6	122488	25047.210385414132	450.83177256541
6	122518	25053.205858690583	326.91439039014
6	122543	25057.979647006852	532.78013524181
6	122563	25061.730062213552	2101.4359368297
6	122582	25066.717484781531	1101.0654591032
6	122677	25086.352638928509	233.41088057544
6	122867	25121.823554068721	2160.6554875618
6	122891	25127.516404183033	131.7764303415
6	122894	25128.693442762001	128.58786738212
6	122899	25129.798644548199	128.57435246179
6	122931	25135.789682340167	361.50536111485
6	122962	25143.170250500749	834.4865421166
6	122980	25147.386117197397	59.244015021655
6	122985	25148.343088777932	60.058432101271
6	123019	25156.151473881034	119.40518082504
6	123032	25159.141151843788	1323.1341090096
6	123035	25159.946156440405	461.02854124198
6	123064	25164.724995153686	461.93840689252
6	123078	25168.757562778155	1118.5105369287
6	123093	25171.332266322813	900.63063978005
6	123098	25172.170226637471	114.53092510225
6	123109	25174.902219311904	359.30690634387
6	123138	25179.806398412318	184.24587120986
6	123141	25180.689213619021	1173.0119474737
6	123184	25189.742924237914	109.66833774057
6	123192	25191.424472908873	252.70309301543
6	123207	25194.753876395347	108.27450400535
6	123332	25219.84676831766	435.5138944843
6	123357	25225.008087826623	119.68800684229
6	123413	25237.323308416932	528.41238517337
6	123451	25245.010980156354	66.976894895646
6	123459	25247.050021892611	262.91314509104
6	123481	25251.18023042205	942.5895133407
6	123536	25262.034376649106	231.84806392061
6	123647	25283.056523952555	833.24000587342
6	123932	25339.555653314494	1031.114054829
6	124059	25363.82318935349	78.064939940806
6	124184	25388.841430358227	489.52894529054
6	124209	25393.363605050009	475.80838869904
6	124343	25419.329644936521	555.19036889051
6	124358	25422.481217446655	261.97736906652
6	124387	25429.243326907522	48.49451397354
6	124489	25446.312344585369	202.61314055673
6	124517	25453.002964454434	1254.8181816219
6	124520	25454.068106152686	839.58942927447
6	124546	25460.000815018835	260.64419966311
6	124723	25496.20061476325	702.01914871019
6	124758	25503.174988623907	65.369978341538
6	124776	25507.361899932672	66.541512913507
6	124868	25526.193944673808	1150.811998212
6	124989	25550.730666868677	358.29933874743
6	125004	25553.826250589649	143.9608753509
6	125061	25567.318675386637	403.41302571333
6	125067	25569.535203095071	521.42126519801
6	125070	25570.69980563746	864.21808448599
6	125083	25573.526060406968	134.11733289992
6	125086	25574.534652272996	55.627652331418
6	125109	25577.792798876309	187.31367314715
6	125147	25585.60027811305	268.47047013962
6	125169	25591.625046422066	326.05485003981
6	125177	25593.679556432565	736.84966320323
6	125210	25600.584428300721	109.56532703629
6	125250	25609.111699601368	174.49886099815
6	125284	25615.137199031294	164.98885149676
6	125297	25618.022231245798	216.61711369454
6	125306	25620.572246613365	68.610619820428
6	125312	25622.405949471902	771.75638758791
6	125317	25623.35411879738	760.56073958347
6	125606	25680.663592163018	390.59126768893
6	125650	25690.754643092967	533.8465569151
6	125655	25691.655810401786	419.92404347018
6	125665	25693.434858398523	1449.2557818191
6	125670	25694.335421593685	338.02345789973
6	125712	25704.981404210919	2770.3895140128
6	125726	25706.753651278199	157.64134324401
6	125773	25715.938389283431	43.96044700762
6	125811	25724.182148059748	278.10055417396
6	125819	25726.46051278609	41.45321957973
6	125841	25730.249548435222	1913.993894235
6	125865	25736.140511547318	495.7810931448
6	125895	25742.688382604355	54.014104868788
6	125903	25744.719938128451	730.91824242879
6	125908	25745.596234642631	16.56134755738
6	125928	25749.472556067454	186.5759835474
6	126006	25765.552601194577	1032.8530655529
6	126074	25779.116988208433	501.29906352511
6	126114	25787.020944720051	58.56744055557
6	126402	25842.551918189147	76.536941982956
6	126415	25845.771766166774	72.584877295761
6	126500	25862.513343923459	180.09069136211
6	126520	25866.560208588852	458.66772641084
6	126737	25909.110008430493	96.014142396605
6	126755	25912.833097545257	57.077106229284
6	126869	25934.664722362731	29.739813966628
6	126899	25940.295936365065	21.524135373877
6	127119	25982.202708194601	47.57529418867
6	127130	25985.463280929449	388.36812933441
6	127219	26006.6915165444	61.919970303173
6	127242	26011.865796141895	9.429014880649
6	127245	26012.901348123802	7.570224550274
6	127262	26016.32252307442	113.29131713962
6	127287	26021.490840345165	190.83497475079
6	127299	26023.380687993029	185.55857748892
6	127322	26028.382627673084	78.796517372792
6	127409	26045.222573109539	261.7063085486
6	127431	26049.285195567095	165.63459603859
6	127486	26060.623209940558	134.41142501722
6	127516	26066.331836110643	6.657964967309
6	127529	26067.206257926776	112.80647829561
6	127564	26074.823436724219	856.77232970665
6	127582	26078.642802126995	65.013362173124
6	127609	26085.869310881859	45.790548819005
6	127651	26094.058919781736	1218.240299528
6	127662	26097.070070330902	74.979512995582
6	127709	26106.804062147171	135.04795308872
6	127729	26110.823099512898	93.733925772016
6	127734	26111.694636365876	12.208612805515
6	127745	26114.460668708024	161.97816909457
6	127769	26120.060787586229	54.209459670021
6	127808	26127.860358867487	81.611419960739
6	127818	26129.939803365124	4.396363234847
6	127859	26138.943993817892	247.17558046192
6	127976	26162.919617701925	8.870385216047
6	128031	26173.574885151114	4.394062552971
6	128050	26176.460947380725	6.298059114567
6	128060	26178.424262395359	16.105073202704
6	128110	26188.025562352357	21.426557612969
6	128284	26222.499747396862	28.10202340211
6	128299	26225.277232189892	249.28632673893
6	128381	26242.241102577696	35.977709124299
6	128394	26245.039105954157	92.144598176428
6	128455	26256.042567384286	67.477427262496
6	128508	26267.544252807967	36.601745141472
6	128545	26276.133588869258	72.29920924078
6	128630	26292.575188214002	63.737594123952
6	128677	26301.600925192463	85.74679487787
6	128684	26302.708246933895	17.868389978813
6	128690	26304.472959074046	200.16052030269
6	128697	26305.546419831685	49.630538823787
6	128941	26353.509632808661	107.17824162348
6	128946	26354.409993847685	64.456970743007
6	128962	26358.297556623111	125.06566832281
6	129022	26370.369176195601	38.961684873821
6	129125	26391.025070802255	82.552989484177
6	129196	26406.592396976	91.751200619697
6	129199	26407.473249248827	88.68707916612
6	129202	26408.340105565583	170.31405809184
6	129210	26415.862190123329	110.43720184725
6	129267	26431.722889012581	10.740922701519
6	129411	26461.058205578634	17.335496175272
6	129428	26464.255421460857	39.962456220716
6	129464	26472.673205584631	24.725922822394
6	129647	26509.548585818868	7.044277990298
6	129680	26517.190968287186	54.217943182275
6	129779	26541.415519230443	6.766993473117
6	129792	26546.306382482719	8.904621042679
6	129805	26551.234785697613	20.561012343109
6	129895	26588.221439795709	0.952336698864
6	129910	26596.155265601567	2.573303653615
6	130181	26661.298190093889	37.770008526097
6	130209	26667.584426494233	30.617487301824
6	130312	26691.365147118512	37.390149510031
6	130409	26714.870993378512	18.911904117753
6	130586	26749.972502656311	35.801776361868
6	131042	26840.850329747547	15.685185402343
6	131263	26885.367088191707	169.74717434251
6	131282	26888.018858970266	15.200868054938
6	131366	26904.052598998354	70.027892050516
6	131396	26909.865925631889	124.41832888625
6	131422	26915.814279584804	103.57958363089
6	131926	27015.810623375636	120.48035091914
6	131937	27019.067048840628	131.08856754898
6	131959	27023.394398595889	137.18862679161
6	131992	27030.367694098347	111.75722584653
6	132001	27033.890334675212	105.99874147788
6	132063	27044.309694885307	23.425553061704
6	132206	27071.376094972093	36.044959702732
6	132241	27078.379937479861	150.86144104406
6	132296	27089.023356009398	97.304160467542
6	132336	27096.986255954423	39.555211657117
6	132344	27098.764029685346	40.7364026854
6	132433	27118.364152624489	24.45329323126
6	132440	27119.219174801589	126.24667624125
6	132553	27142.745070598771	75.712728662843
6	132680	27168.259307345778	451.653764891
6	132685	27169.318049410016	89.376038712407
6	132709	27175.512337112178	185.46445415335
6	132737	27181.620756047156	36.879475215331
6	132752	27184.323285263715	21.778790668247
6	132804	27196.451303877339	149.50705806457
6	132856	27207.504615201189	31.042041136257
6	132863	27208.394137563969	148.54135911122
6	133132	27260.494478345891	16.645784033711
6	133144	27262.83253994905	189.10866212969
6	133340	27299.339310688568	41.721010864944
6	133348	27301.442166388078	62.750070562458
6	133401	27312.948479409372	48.483912859266
6	134107	27449.927133344437	153.57659994457
6	134581	27542.234421805895	221.3291309734
6	135192	27660.366049294402	388.08550891378
6	135315	27686.176898142457	448.59720975427
6	135365	27696.140966782946	414.61144619898
6	135373	27697.961155002325	403.4669661437
6	135387	27699.80666900812	394.39378129726
6	135632	27746.234336485291	176.55767880477
6	135673	27755.330713020588	153.359610682
6	136152	27849.656186941592	407.9072413157
6	136167	27852.743533824431	409.19284647403
6	136535	27925.877609281009	466.92715616409
6	136581	27935.562971605687	439.80092293899
6	136720	27962.525733063135	1063.4697200579
6	136730	27964.599377759963	731.7376926281
6	136735	27965.755009073063	780.44476981152
6	136783	27975.970177199272	327.78133237731
6	136877	27994.425260484265	214.35615020708
6	136907	28000.213316838211	575.89427483251
6	136990	28016.338839225149	179.77554137267
6	137645	28142.389535792775	658.87216478851
6	137670	28147.527731406546	650.85848655143
6	137720	28157.775049759677	428.15130791853
6	137750	28163.62610461828	932.07907580007
6	137788	28171.276481469112	212.3139765912
6	137814	28177.161911955799	601.4629426225
6	137825	28179.931565965943	910.28843992863
6	137838	28183.066916908555	416.90086310344
6	137905	28196.100206154163	766.21357859274
6	137908	28197.156164855461	959.80502409938
6	137949	28204.523574004181	353.29417463921
6	138021	28218.486490918369	335.13818811562
6	138033	28222.197594169201	136.94959140165
6	138069	28230.377822544844	315.00491017744
6	138072	28231.554553173714	101.48853136392
6	138163	28248.67561270385	721.50801546613
6	138176	28251.957288921206	295.61314291761
6	138265	28269.050053833285	695.47247534415
6	138300	28276.079211660987	683.16455806162
6	138318	28280.30527475425	633.90401022508
6	138331	28283.103087168884	630.19745465727
6	138339	28285.094800279707	890.50077922224
6	138365	28290.890999724854	301.83081362411
6	138368	28291.740033339009	627.21784332157
6	138371	28292.68353188834	874.33425000704
6	138397	28298.459639210578	1068.7660059041
6	138404	28299.267546754654	293.86995215761
6	138696	28355.921916434211	651.36322386043
6	139040	28422.324811691184	440.03800627442
6	139099	28436.441585402235	130.09718674429
6	139172	28451.719343077438	113.43337459697
6	139221	28458.764520201693	108.33944409142
6	139224	28459.717334483052	373.37765314757
6	139250	28465.933885906963	548.53790606649
6	139255	28466.966829160368	755.47253953759
6	139322	28480.118807448774	318.5919751612
6	139337	28482.623975645333	534.52518625652
6	139342	28483.603372191034	234.47225196097
6	139350	28485.568495594386	1518.9134404786
6	139355	28486.728742641073	1157.5719172195
6	139440	28503.759331915482	101.51130570937
6	139446	28505.657844924602	235.83743468712
6	139529	28521.065869931086	102.16973577803
6	140472	28705.314335276697	710.60306612383
6	140480	28707.566294288587	507.96170889388
6	140501	28712.843982851084	1756.4530095963
6	140516	28715.762178983304	401.01009833967
6	140892	28789.634283559808	931.59847989409
6	140902	28791.495758143199	462.4906228179
6	140958	28803.456510579905	895.85707788614
6	140961	28804.397066002751	729.47867991106
6	141103	28830.408650324346	1117.708454481
6	141111	28832.744067436961	1571.3117578209
6	141317	28874.619688421151	714.76424338004
6	141362	28883.895492431651	392.85502192442
6	141376	28887.642653178367	1148.6483924422
6	141393	28890.175519798826	1306.6881268468
6	141440	28899.030863136556	361.90685238375
6	141513	28913.656174877696	358.15008463631
6	141593	28929.301265124454	1520.5357837194
6	141632	28936.172601656746	1680.9815380646
6	141683	28946.536250558906	223.69176822561
6	141714	28953.208263901567	504.87036875294
6	141729	28955.924505977652	1260.0608426228
6	141747	28959.901044874399	629.59590487233
6	142151	29036.495582382332	197.32675906575
6	142159	29038.445378039822	891.206109818
6	142175	29042.275630410247	1314.7680150195
6	142180	29043.178707834937	568.67490057673
6	142231	29054.044184953671	1535.8710889703
6	142236	29054.920201917317	807.89660718856
6	142311	29070.04009039453	179.04122823843
6	142319	29072.172702513214	554.91344446528
6	142417	29092.38834779891	553.5193744657
6	142594	29127.31941839703	446.03322509447
6	142610	29131.20245403214	937.2984581156
6	142635	29136.17982790344	200.10977233451
6	142712	29151.766914830772	834.20267354705
6	142757	29161.005799080569	1135.0165473574
6	142760	29161.992238896291	1712.2571023855
6	142886	29186.359859764154	378.23142193798
6	142996	29209.169043205535	386.31995458719
6	143051	29220.333038845233	751.42463418444
6	143343	29276.349404544984	1541.1961037862
6	143387	29286.266339885671	1321.3153153581
6	143390	29287.44181735231	768.31049303569
6	143400	29289.403531133425	1102.8625030024
6	143464	29306.172413379553	697.16436132652
6	143496	29312.463131836563	1890.6154608591
6	143509	29315.418182045727	378.0352002511
6	143524	29318.355656146763	599.87712861979
6	143553	29323.557615814957	878.50060945249
6	143577	29329.396899107232	165.23912176614
6	143596	29334.384250575251	159.79205554322
6	143692	29356.403404436487	2042.1256743237
6	143697	29357.292497501469	117.88812017033
6	143709	29359.157997560448	329.27942761084
6	143721	29361.08301446386	112.60933123264
6	143734	29363.824352141417	1420.204022804
6	143763	29370.761024018604	2009.366799203
6	143778	29374.057321501378	1615.777625569
6	143817	29381.048393539659	279.51949381982
6	143825	29383.00494490186	831.24130452437
6	143862	29388.273780955229	800.08707823036
6	143885	29393.243783620507	285.58336528955
6	144030	29422.263952142043	1618.3891804772
6	144209	29456.4001557074	718.26548000695
6	144463	29507.446693281967	1805.3993094377
6	144488	29512.218507212165	536.76789969096
6	144500	29514.148754555496	709.10908492564
6	144547	29523.878849594618	340.12415449947
6	144786	29572.540659877892	760.40926812052
6	144806	29576.333074466933	216.70773962703
6	144988	29612.131255675341	2109.2305904197
6	145020	29620.450574308029	1246.4529449272
6	145023	29621.423854051112	566.40978757806
6	145098	29636.134720420792	1084.4106047556
6	145123	29641.581590396213	241.20228923611
6	145140	29646.291151195719	227.64570565123
6	145280	29673.16507404861	181.45645287899
6	145379	29693.689769104541	177.54333938797
6	145410	29698.813672622712	891.65496425327
6	145425	29701.791948814178	893.52309788385
6	145450	29706.862830904265	143.85276218131
6	145619	29740.542577824228	147.74494609172
6	145634	29743.514400201522	510.340397878
6	145642	29745.546967284519	736.04256228136
6	145672	29751.84105188581	141.5094206195
6	145688	29756.350403819558	724.95853622837
6	145701	29759.305975967692	1596.3238852083
6	145709	29761.343027023738	134.50604653482
6	145744	29768.263134884042	384.05800890768
6	145786	29778.18467261414	1141.6760568547
6	145816	29784.511021706787	463.47054031147
6	145840	29788.680408424372	641.46983954985
6	145852	29790.830642430903	1974.9555557142
6	145855	29791.722145714657	633.25024223229
6	145880	29796.841576007892	638.24156583877
6	145885	29798.026702585862	1469.7651294106
6	145972	29815.593047198979	1730.0709642484
6	146032	29827.68476180001	1365.4379234149
6	146110	29843.397955461823	138.40282746927
6	146113	29844.507126015656	1746.0809648382
6	146168	29855.508216336414	139.13270202918
6	146219	29866.68101458647	1400.5916958028
6	146239	29870.379047378848	1759.4881755316
6	146264	29875.416967028609	132.73959907971
6	146275	29878.071883649143	851.44192801555
6	146561	29933.122516461228	1254.6769092174
6	146564	29933.951947278109	1639.3494739741
6	146601	29941.151469116982	277.55613446407

