version 2
run Second_exit_8-16-20191114-11:42:48-8966
attr configname Second_exit_8
attr datetime 20191114-11:42:48
attr experiment Second_exit_8
attr inifile omnetpp.ini
attr iterationvars ""
attr iterationvarsf ""
attr measurement ""
attr network ResponseTimeNetwork
attr processid 8966
attr repetition 16
attr replication #16
attr resultdir results
attr runnumber 16
attr seedset 16
param **.Source.interArrivalTime exponential(5s)
param **.jobPriority bernoulli(0.6)
param **.PS.serviceTimeU1 "uniform(0.8s, 1.2s)"
param **.PS.serviceTimeU2 "uniform(1.8s, 2.2s)"
param **.SS1.serviceTime exponential(1s)
param **.SS2.serviceTime exponential(1.2s)
param **.PS.exitProbability bernoulli(0.8)

vector 0 ResponseTimeNetwork.QueueU1 queueLength:vector ETV
attr interpolationmode sample-hold
attr title "queue length, vector"
vector 1 ResponseTimeNetwork.SS1 queueLength:vector ETV
attr interpolationmode sample-hold
attr title "queue length, vector"
vector 2 ResponseTimeNetwork.QueueU2 queueLength:vector ETV
attr interpolationmode sample-hold
attr title "queue length, vector"
vector 3 ResponseTimeNetwork.sink lifeTimeU1:vector ETV
attr interpolationmode none
attr title "lifetime of arrived jobs U1, vector"
attr unit s
vector 4 ResponseTimeNetwork.sink totalServiceTimeU1:vector ETV
attr interpolationmode none
attr title "the total time spent  by arrived jobs U1, vector"
attr unit s
vector 5 ResponseTimeNetwork.sink lifeTime:vector ETV
attr interpolationmode none
attr title "lifetime of arrived jobs, vector"
attr unit s
vector 6 ResponseTimeNetwork.sink totalServiceTime:vector ETV
attr interpolationmode none
attr title "the total time spent  by arrived jobs, vector"
attr unit s
vector 7 ResponseTimeNetwork.sink lifeTimeU2:vector ETV
attr interpolationmode none
attr title "lifetime of arrived jobs U2, vector"
attr unit s
vector 8 ResponseTimeNetwork.sink totalServiceTimeU2:vector ETV
attr interpolationmode none
attr title "the total time spent  by arrived jobs U2, vector"
attr unit s
vector 9 ResponseTimeNetwork.SS2 queueLength:vector ETV
attr interpolationmode sample-hold
attr title "queue length, vector"
0	47545	10000.413123940362	0
0	47549	10001.002611580449	1
0	47551	10001.260248191249	2
0	47552	10001.499469189963	1
0	47556	10002.201504771508	2
0	47557	10002.385958846344	1
0	47560	10003.19042681359	0
0	47564	10003.228915369763	1
0	47566	10003.719199140928	2
0	47568	10004.125236294825	3
0	47569	10004.273913666478	2
0	47575	10004.629851549108	3
0	47576	10005.146604987851	2
0	47580	10005.148946488722	3
0	47581	10006.211889819207	2
0	47584	10007.254551699909	1
0	47588	10007.658654457466	2
0	47590	10007.695453314785	3
0	47591	10008.319183489552	2
0	47595	10008.402442056412	3
0	47596	10009.415044818318	2
0	47600	10009.999132698733	3
0	47601	10010.306820164586	2
0	47605	10010.420690238667	3
0	47606	10011.112467153242	2
0	47610	10011.728707046014	3
0	47611	10012.074596022407	2
0	47615	10012.548345319399	3
0	47616	10013.161359887721	2
0	47620	10013.510351330746	3
0	47621	10014.284746862354	2
0	47626	10015.475109802431	1
0	47630	10015.747065943534	2
0	47631	10016.472125603503	1
0	47635	10017.394432523268	2
0	47636	10017.500681909604	1
0	47640	10017.842052085662	2
0	47642	10018.376105709761	3
0	47643	10018.519456834869	2
0	47646	10019.550686416646	1
0	47650	10020.403022374313	2
0	47651	10020.732112855242	1
0	47656	10021.804731668868	0
0	47663	10023.270675746715	1
0	47664	10023.691462343243	0
0	47671	10025.52310687974	1
0	47673	10025.565147965034	2
0	47675	10025.583671898449	3
0	47676	10025.6660688141	2
0	47680	10026.271590031149	3
0	47683	10026.546084802189	2
0	47687	10026.685176754781	3
0	47689	10026.93173218262	4
0	47690	10027.614374789746	3
0	47693	10028.535982292203	2
0	47697	10028.682306180066	3
0	47699	10029.447640475031	4
0	47700	10029.616250553971	3
0	47703	10030.653280141728	2
0	47707	10030.688583628762	3
0	47708	10031.833460143173	2
0	47711	10032.988443262374	1
0	47715	10033.126688540823	2
0	47716	10033.877440162154	1
0	47721	10035.059676890971	0
0	47725	10035.639167731295	1
0	47726	10036.217128397209	0
0	47735	10037.965392921599	1
0	47737	10038.308122237843	2
0	47738	10038.515831646846	1
0	47742	10038.780369086265	2
0	47743	10039.327732115389	1
0	47748	10040.131695680936	0
0	47755	10041.321296696918	1
0	47757	10042.003098362448	2
0	47758	10042.410219484252	1
0	47763	10043.494734238518	0
0	47783	10048.236692534694	1
0	47786	10048.838744568603	0
0	47800	10051.511381388683	1
0	47801	10051.753384836635	0
0	47805	10051.757497914535	1
0	47808	10052.59921836328	0
0	47812	10053.513530631732	1
0	47813	10053.76716308702	0
0	47823	10056.080061244697	1
0	47826	10056.418680061458	0
0	47830	10056.664000238768	1
0	47831	10057.520883604104	0
0	47835	10058.060264171278	1
0	47836	10058.391154665558	0
0	47842	10059.239955607187	1
0	47843	10059.567697482242	0
0	47847	10060.275925928113	1
0	47849	10060.304399887431	2
0	47851	10060.364445887751	3
0	47852	10060.457604531164	2
0	47857	10061.282050187013	1
0	47860	10062.221653549804	0
0	47864	10062.973953609956	1
0	47865	10063.031356140564	0
0	47869	10063.749505699809	1
0	47871	10063.83063045849	2
0	47872	10063.921358314401	1
0	47876	10064.455935175158	2
0	47877	10064.886770465935	1
0	47881	10065.353740845852	2
0	47882	10065.784554033505	1
0	47886	10065.843984718622	2
0	47887	10066.956896434875	1
0	47891	10067.838276794668	2
0	47892	10068.1177417589	1
0	47896	10068.236746724503	2
0	47897	10069.172372042353	1
0	47901	10069.190604352714	2
0	47902	10070.012975452899	1
0	47906	10070.646348893485	2
0	47907	10071.187309646293	1
0	47910	10072.173969791516	0
0	47920	10074.207083445809	1
0	47922	10074.755263802777	2
0	47923	10075.293651878613	1
0	47926	10076.405373971037	0
0	47930	10076.896660339028	1
0	47931	10077.389358350507	0
0	47938	10079.205678600767	1
0	47939	10079.531721463299	0
0	47943	10079.919793983405	1
0	47946	10080.509390420804	0
0	47950	10080.917259460323	1
0	47951	10081.341752415767	0
0	47958	10082.160744924842	1
0	47960	10082.407926200006	2
0	47961	10083.025249642284	1
0	47964	10083.975459107534	0
0	47968	10084.10772106473	1
0	47969	10084.99622598054	0
0	47976	10086.431721732874	1
0	47978	10086.456803053629	2
0	47979	10086.972544265968	1
0	47982	10087.888976158818	0
0	47997	10091.00943453372	1
0	47999	10091.298382364004	2
0	48001	10091.333653426208	3
0	48002	10091.937040264962	2
0	48007	10092.985751419479	1
0	48011	10093.257901881521	2
0	48012	10093.961290314013	1
0	48015	10094.944549520092	0
0	48021	10095.443226340382	1
0	48025	10095.922267428019	2
0	48027	10095.969076531041	3
0	48028	10096.026392481627	2
0	48031	10097.139840945566	1
0	48034	10098.018749786133	0
0	48038	10098.481096018814	1
0	48039	10099.207018142996	0
0	48043	10099.59148424767	1
0	48044	10100.186788552219	0
0	48054	10102.416064832336	1
0	48056	10102.650880765313	2
0	48057	10102.963609635515	1
0	48061	10103.071678303442	2
0	48066	10103.976840208808	1
0	48069	10104.796831362659	0
0	48073	10105.050949457527	1
0	48076	10105.60669823006	0
0	48080	10106.452287005227	1
0	48081	10106.777766395511	0
0	48085	10107.185979357176	1
0	48086	10107.929729921056	0
0	48093	10109.5498112809	1
0	48094	10109.951154996046	0
0	48098	10110.872584978376	1
0	48102	10111.081042013784	2
0	48103	10111.111037019138	1
0	48107	10111.417081096148	2
0	48108	10112.132349562795	1
0	48112	10112.322723866318	2
0	48113	10113.199132034612	1
0	48116	10114.105804564954	0
0	48120	10114.275864862605	1
0	48121	10115.088049858866	0
0	48125	10115.836307421147	1
0	48126	10116.113455906009	0
0	48130	10116.456544710282	1
0	48131	10117.202090321539	0
0	48138	10118.870852380689	1
0	48139	10118.928220509702	0
0	48152	10120.657880689434	1
0	48153	10121.246966469438	0
0	48274	10146.957462729408	1
0	48275	10147.185835226682	0
0	48282	10149.04395789991	1
0	48283	10149.192536598501	0
0	48290	10150.471709918852	1
0	48291	10151.198172026743	0
0	48323	10158.252726454921	1
0	48324	10158.695342075882	0
0	48340	10160.675692099742	1
0	48341	10161.446498766785	0
0	48345	10161.486400809843	1
0	48346	10162.605561633093	0
0	48355	10163.955769016175	1
0	48356	10164.650596732983	0
0	48365	10165.986258847281	1
0	48366	10166.554226276149	0
0	48370	10167.0425327347	1
0	48373	10167.583554775883	0
0	48382	10168.633057103153	1
0	48384	10168.787363015962	2
0	48385	10169.316880855487	1
0	48388	10170.162039131542	0
0	48395	10171.936488058071	1
0	48396	10171.957355374248	0
0	48400	10172.86083167607	1
0	48403	10173.138904134241	0
0	48445	10181.582590570278	1
0	48448	10182.068719686904	0
0	48455	10184.222156467361	1
0	48456	10184.298279927821	0
0	48507	10194.793819352642	1
0	48510	10195.793408857155	0
0	48538	10202.331583259205	1
0	48539	10202.662814918494	0
0	48549	10205.060014035856	1
0	48552	10205.513073827474	0
0	48556	10205.649799598838	1
0	48561	10206.638139266855	0
0	48568	10207.809693674514	1
0	48570	10208.08359626855	2
0	48571	10208.690050502922	1
0	48576	10209.724246962983	0
0	48594	10213.825195146447	1
0	48595	10214.479138200879	0
0	48602	10215.347801801507	1
0	48608	10216.143742587263	2
0	48609	10216.162767041809	1
0	48612	10217.141211635954	0
0	48619	10218.832353620199	1
0	48620	10219.043329595643	0
0	48629	10220.373990900561	1
0	48630	10221.037666042483	0
0	48642	10223.511729824494	1
0	48643	10224.015880060623	0
0	48647	10224.480085095985	1
0	48650	10224.858185447714	0
0	48668	10227.163221237255	1
0	48670	10227.727974445774	2
0	48671	10227.860890204793	1
0	48674	10228.688162544796	0
0	48681	10229.624455450351	1
0	48682	10230.636828915456	0
0	48704	10235.09387796917	1
0	48705	10235.339621216672	0
0	48712	10236.403753879059	1
0	48717	10237.186070120669	0
0	48726	10238.967810691246	1
0	48727	10239.129378321263	0
0	48733	10239.735335090284	1
0	48734	10240.176101020965	0
0	48741	10241.537477010223	1
0	48742	10241.942173301391	0
0	48751	10244.139479909169	1
0	48752	10244.206323655285	0
0	48759	10245.824749357058	1
0	48760	10246.183401725497	0
0	48769	10248.017542358554	1
0	48770	10248.222042555791	0
0	48784	10250.246430831277	1
0	48785	10251.384238949102	0
0	48799	10253.90022707771	1
0	48800	10254.575661918577	0
0	48815	10258.030566122394	1
0	48816	10258.073189138771	0
0	48827	10259.597581513432	1
0	48828	10260.143541173467	0
0	48851	10263.143215573171	1
0	48852	10263.632995006086	0
0	48861	10264.708705990734	1
0	48862	10265.265686673315	0
0	48869	10266.332466343968	1
0	48870	10267.272851253783	0
0	48959	10287.106744054947	1
0	48960	10287.24861984888	0
0	48995	10297.061438508636	1
0	48996	10297.869700377329	0
0	49004	10298.698824260393	1
0	49005	10298.964968714851	0
0	49009	10299.631310026361	1
0	49010	10299.79886629692	0
0	49019	10301.22487892	1
0	49020	10301.765921838197	0
0	49024	10301.882745813953	1
0	49025	10302.913624843105	0
0	49029	10303.806290058499	1
0	49031	10303.970094878451	2
0	49032	10304.091269053041	1
0	49037	10304.892999603867	0
0	49041	10305.062025687919	1
0	49044	10305.919742385473	0
0	49048	10306.767582262974	1
0	49049	10307.029693617288	0
0	49063	10309.992084462295	1
0	49064	10310.132232386886	0
0	49071	10311.392095267836	1
0	49075	10312.285877918961	2
0	49076	10312.457914296805	1
0	49081	10313.430381039611	0
0	49088	10314.586067231645	1
0	49090	10314.714202307082	2
0	49091	10315.482877388678	1
0	49094	10316.513471512392	0
0	49098	10316.764960116854	1
0	49099	10317.535417181894	0
0	49103	10317.710133138314	1
0	49105	10317.843964418712	2
0	49106	10318.544409502566	1
0	49109	10319.382333237015	0
0	49113	10319.651717608345	1
0	49115	10319.963993649329	2
0	49116	10320.310663176317	1
0	49119	10321.207704714954	0
0	49123	10321.357941379732	1
0	49124	10322.307387277473	0
0	49152	10328.782948876947	1
0	49153	10329.026718899412	0
0	49162	10330.30179923113	1
0	49165	10331.081791672846	0
0	49169	10331.42224968889	1
0	49172	10332.264120085621	0
0	49179	10334.015709573028	1
0	49180	10334.510635730614	0
0	49187	10335.548580244541	1
0	49189	10336.239823601703	2
0	49190	10336.25002116709	1
0	49193	10337.370707283532	0
0	49201	10338.443891828595	1
0	49202	10338.48152347411	0
0	49209	10339.651641170179	1
0	49210	10340.655133058587	0
0	49219	10342.075175452118	1
0	49220	10342.601607319424	0
0	49227	10344.156143060195	1
0	49228	10344.698738818233	0
0	49235	10346.4647546844	1
0	49237	10346.667598924058	2
0	49238	10346.694190843766	1
0	49243	10347.817756901765	0
0	49247	10348.202615854367	1
0	49250	10348.80112885925	0
0	49254	10349.034965775721	1
0	49255	10349.703743917113	0
0	49264	10350.742357148235	1
0	49266	10350.768240240973	2
0	49267	10351.387221895242	1
0	49271	10351.730106634211	2
0	49272	10352.29819040251	1
0	49276	10352.453165426738	2
0	49277	10353.216660599681	1
0	49281	10353.493162292529	2
0	49284	10354.373984013396	1
0	49287	10355.379996056101	0
0	49294	10357.034149150501	1
0	49295	10357.146905865046	0
0	49299	10357.40006592813	1
0	49300	10357.987199063311	0
0	49304	10358.218995544529	1
0	49305	10358.802252122844	0
0	49309	10359.671704994806	1
0	49310	10359.929074063981	0
0	49320	10362.726887055855	1
0	49321	10362.857673283097	0
0	49334	10364.4909219295	1
0	49335	10364.953130343918	0
0	49342	10366.069971110431	1
0	49345	10367.212784187392	0
0	49349	10367.411340675106	1
0	49352	10368.113068820619	0
0	49382	10379.669057387252	1
0	49383	10379.795081663891	0
0	49390	10381.094045046718	1
0	49392	10381.414530734404	2
0	49395	10381.976978849354	1
0	49399	10382.083848502185	2
0	49402	10382.880546495332	1
0	49406	10383.02020207664	2
0	49407	10383.713258525463	1
0	49411	10383.731599873213	2
0	49412	10384.782705269674	1
0	49415	10385.764948166175	0
0	49419	10385.879387543747	1
0	49421	10386.018861293003	2
0	49423	10386.716127175692	3
0	49424	10386.89115348888	2
0	49427	10387.898636454077	1
0	49433	10388.543309361286	2
0	49435	10388.697860003799	3
0	49436	10389.062866495003	2
0	49440	10389.351656042768	3
0	49441	10389.872423594364	2
0	49445	10390.961484379987	3
0	49446	10391.066227356357	2
0	49449	10392.102088614752	1
0	49452	10393.282736921882	0
0	49459	10395.014060872095	1
0	49460	10395.442830051215	0
0	49464	10395.516550480121	1
0	49465	10396.353144464282	0
0	49474	10397.604044565156	1
0	49476	10398.025809128723	2
0	49477	10398.348788677448	1
0	49482	10399.508186757391	0
0	49486	10399.581195812997	1
0	49491	10400.602639841953	0
0	49495	10400.924730457127	1
0	49496	10401.48697030648	0
0	49500	10402.305112176829	1
0	49501	10402.653253379943	0
0	49508	10404.485825574436	1
0	49509	10404.648451485685	0
0	49518	10405.75975027529	1
0	49519	10406.528749074987	0
0	49529	10408.450326794352	1
0	49532	10409.31419460095	0
0	49536	10409.8487303871	1
0	49537	10410.141049391697	0
0	49544	10411.533352594162	1
0	49545	10412.065467104796	0
0	49549	10412.780164083861	1
0	49552	10413.179038776565	0
0	49556	10413.693836066792	1
0	49557	10414.322869727216	0
0	49564	10416.315907240882	1
0	49565	10416.407106270004	0
0	49569	10417.14674729705	1
0	49570	10417.413654937144	0
0	49574	10417.529255661317	1
0	49575	10418.573330152049	0
0	49579	10419.181102493041	1
0	49580	10419.75319775959	0
0	49584	10419.931402419508	1
0	49585	10420.947693146034	0
0	49589	10420.959346687033	1
0	49590	10421.835511317677	0
0	49594	10421.932417621823	1
0	49595	10422.723747693761	0
0	49599	10422.778862913798	1
0	49600	10423.899759658812	0
0	49607	10425.321802291472	1
0	49609	10425.788614867855	2
0	49610	10426.102993664625	1
0	49613	10427.15754561556	0
0	49617	10427.422856277517	1
0	49618	10428.249197223051	0
0	49622	10428.432874585778	1
0	49625	10429.237011350612	0
0	49629	10429.727056102383	1
0	49630	10430.108356637521	0
0	49634	10430.437860616233	1
0	49635	10431.005812535262	0
0	49639	10431.754816337845	1
0	49640	10431.862855015429	0
0	49644	10432.33181174182	1
0	49645	10432.737940479642	0
0	49649	10432.8689514313	1
0	49650	10433.894792650281	0
0	49654	10434.413241595317	1
0	49655	10434.997118947762	0
0	49659	10435.781014876229	1
0	49660	10435.912668524138	0
0	49672	10439.116070873089	1
0	49673	10439.274624298434	0
0	49677	10439.326992134589	1
0	49681	10440.226254473242	2
0	49682	10440.300879398841	1
0	49688	10440.742354715765	2
0	49689	10441.3618723808	1
0	49693	10441.875655961109	2
0	49694	10442.170425361689	1
0	49697	10443.011532565687	0
0	49701	10443.121104797608	1
0	49703	10443.490735769694	2
0	49704	10444.064424911715	1
0	49707	10445.00703162124	0
0	49711	10445.486521302671	1
0	49713	10445.741087321281	2
0	49714	10445.895131457146	1
0	49717	10446.70838893402	0
0	49727	10448.909360553902	1
0	49728	10449.625335421522	0
0	49732	10450.08945466969	1
0	49734	10450.380042661009	2
0	49736	10450.602078154384	3
0	49737	10450.688307771847	2
0	49742	10451.607867259175	1
0	49745	10452.516535288204	0
0	49749	10452.528880240248	1
0	49750	10453.420127339025	0
0	49840	10512.550500881165	1
0	49841	10513.199489610144	0
0	49850	10514.666151044812	1
0	49851	10514.913775742767	0
0	49860	10516.432758751325	1
0	49861	10517.22064412586	0
0	49875	10519.637639726201	1
0	49876	10520.416186104807	0
0	49880	10520.8036785017	1
0	49883	10521.265308891329	0
0	49887	10522.074275814409	1
0	49888	10522.313301095086	0
0	49902	10525.357013858458	1
0	49903	10525.942586467031	0
0	49910	10527.080333587295	1
0	49912	10527.191768619663	2
0	49914	10527.594057831908	3
0	49915	10527.935012255318	2
0	49918	10528.915135995939	1
0	49921	10529.719747337408	0
0	49925	10530.521351479771	1
0	49926	10530.744720492221	0
0	49932	10531.028015648985	1
0	49933	10531.825145133294	0
0	49937	10531.953403678708	1
0	49938	10532.673559018865	0
0	49945	10533.945685871402	1
0	49947	10534.04364092117	2
0	49948	10534.857875976049	1
0	49952	10535.653413367305	2
0	49953	10535.786440116622	1
0	49957	10536.454439317123	2
0	49958	10536.740108736501	1
0	49962	10537.484831344735	2
0	49963	10537.869977317088	1
0	49967	10538.825402397644	2
0	49968	10539.056683598448	1
0	49972	10539.103663019482	2
0	49973	10540.027530079231	1
0	49976	10541.066868848343	0
0	49980	10541.153376873976	1
0	49981	10541.888687346027	0
0	49990	10543.684918309044	1
0	49992	10543.73918841441	2
0	49993	10544.515354081086	1
0	49996	10545.450190428487	0
0	50005	10548.689333616515	1
0	50006	10548.923506948434	0
0	50010	10548.941956962462	1
0	50011	10549.943025637873	0
0	50060	10577.633681732062	1
0	50061	10578.04695657351	0
0	50065	10578.571006092993	1
0	50066	10579.001544988891	0
0	50070	10579.064606460002	1
0	50071	10580.000326829767	0
0	50080	10580.958931342862	1
0	50082	10581.100016779048	2
0	50084	10581.214980236871	3
0	50085	10581.720344418897	2
0	50088	10582.631217160592	1
0	50093	10583.433775131269	0
0	50097	10583.692936745585	1
0	50098	10584.249582301504	0
0	50107	10585.766940990416	1
0	50108	10586.236884033545	0
0	50117	10587.762425013635	1
0	50118	10588.415535532641	0
0	50127	10590.10496148612	1
0	50128	10590.578084495063	0
0	50142	10593.442483085867	1
0	50143	10593.498325078893	0
0	50147	10594.331012005439	1
0	50148	10594.662626942113	0
0	50154	10594.978697538053	1
0	50155	10595.517525049537	0
0	50162	10596.61308360654	1
0	50164	10597.294123633329	2
0	50165	10597.40544701289	1
0	50169	10597.603848448221	2
0	50170	10598.392966358323	1
0	50176	10599.348479410256	2
0	50177	10599.497847829346	1
0	50180	10600.525540789828	0
0	50187	10601.376103049466	1
0	50188	10602.272282479662	0
0	50205	10605.216466383614	1
0	50208	10605.998788734018	0
0	50212	10606.214423294549	1
0	50217	10607.101215425744	0
0	50221	10607.37864230579	1
0	50222	10608.161720398586	0
0	50226	10609.044626525472	1
0	50227	10609.14440319385	0
0	50231	10609.707525526194	1
0	50232	10609.984891548432	0
0	50254	10614.185879177393	1
0	50255	10614.817282727878	0
0	50262	10616.367749181748	1
0	50263	10616.756690083868	0
0	50272	10618.498412574413	1
0	50273	10618.835824573557	0
0	50290	10622.498088873916	1
0	50291	10622.769201679113	0
0	50315	10627.50243152332	1
0	50316	10628.232596529467	0
0	50330	10630.870118668467	1
0	50331	10631.471760110769	0
0	50340	10632.726509982981	1
0	50341	10633.476549385421	0
0	50355	10635.844080307439	1
0	50356	10636.769903566024	0
0	50365	10639.001646567557	1
0	50366	10639.815320378031	0
0	50375	10640.752276206106	1
0	50378	10641.579817783405	0
0	50385	10643.227724351136	1
0	50386	10643.706518186947	0
0	50395	10646.039284862608	1
0	50396	10646.250903118027	0
0	50400	10646.801417349902	1
0	50401	10647.249451926255	0
0	50405	10647.377019480845	1
0	50408	10648.31334240753	0
0	50417	10649.428831893879	1
0	50419	10649.682898135105	2
0	50421	10649.781018167696	3
0	50423	10649.959458462974	4
0	50424	10650.308288350234	3
0	50427	10651.393984928819	2
0	50430	10652.251274620554	1
0	50434	10652.731780250973	2
0	50435	10653.329370669554	1
0	50439	10653.345217197092	2
0	50442	10654.290746838785	1
0	50445	10655.190852972864	0
0	50449	10655.359697434999	1
0	50451	10655.773785781734	2
0	50453	10655.813680583034	3
0	50454	10656.035636922809	2
0	50458	10656.800651594357	3
0	50459	10657.06965918308	2
0	50462	10658.255204651783	1
0	50466	10658.345547456814	2
0	50467	10659.196816879789	1
0	50471	10659.509090966677	2
0	50473	10659.919305521501	3
0	50474	10660.2359715268	2
0	50477	10661.060451794787	1
0	50481	10661.91427747005	2
0	50482	10661.934916284959	1
0	50485	10663.0511037576	0
0	50497	10665.337570609298	1
0	50500	10666.031874092761	0
0	50509	10667.405284519609	1
0	50511	10667.430494683507	2
0	50512	10668.103926482982	1
0	50517	10668.923607965278	0
0	50521	10669.621827932839	1
0	50523	10669.883224160424	2
0	50524	10669.994217914807	1
0	50528	10670.053389628494	2
0	50530	10670.740862500485	3
0	50531	10670.876161419506	2
0	50534	10671.932141408416	1
0	50538	10672.896389483305	2
0	50539	10672.902813100627	1
0	50543	10673.174099144725	2
0	50545	10673.730554415881	3
0	50546	10673.758749494234	2
0	50550	10674.571724257918	3
0	50551	10674.627206775544	2
0	50554	10675.466989585103	1
0	50557	10676.503507295342	0
0	50561	10677.212720614094	1
0	50562	10677.530527001804	0
0	50566	10677.784812655356	1
0	50568	10678.160865829117	2
0	50569	10678.636500130127	1
0	50572	10679.608066441863	0
0	50584	10681.549385301212	1
0	50586	10681.594334787976	2
0	50588	10681.677918557451	3
0	50590	10682.284221583183	4
0	50591	10682.4169862804	3
0	50597	10682.799717850269	4
0	50598	10683.419850354735	3
0	50602	10684.181793070854	4
0	50603	10684.478603460733	3
0	50607	10685.468921867819	4
0	50608	10685.481321168598	3
0	50612	10685.561876631636	4
0	50613	10686.483971993532	3
0	50616	10687.499568889569	2
0	50619	10688.595211775507	1
0	50622	10689.638440491351	0
0	50626	10689.85339670576	1
0	50628	10690.200697355019	2
0	50629	10690.689821759144	1
0	50633	10691.238894061868	2
0	50635	10691.46629556002	3
0	50636	10691.624793223104	2
0	50640	10692.15445950644	3
0	50641	10692.635420133731	2
0	50644	10693.697816792222	1
0	50648	10694.348859854831	2
0	50649	10694.765549982058	1
0	50653	10694.857352073017	2
0	50655	10695.162435839725	3
0	50657	10695.373708130989	4
0	50659	10695.66586701815	5
0	50660	10695.680789868252	4
0	50664	10696.131237002555	5
0	50665	10696.718189343528	4
0	50669	10697.557423032251	5
0	50670	10697.71556408135	4
0	50674	10698.025187631159	5
0	50675	10698.643854384774	4
0	50679	10699.031952781178	5
0	50680	10699.789684976542	4
0	50684	10700.573301970338	5
0	50686	10700.633837554215	6
0	50687	10700.771934464478	5
0	50692	10701.667225103916	4
0	50696	10702.738517923584	5
0	50697	10702.819594051966	4
0	50701	10702.89032379066	5
0	50703	10703.249187484068	6
0	50704	10703.867829720487	5
0	50708	10704.567804172395	6
0	50710	10704.741847810447	7
0	50712	10704.796441888035	8
0	50713	10704.886702394576	7
0	50717	10704.978999825205	8
0	50718	10705.695615445075	7
0	50722	10706.518023394224	8
0	50723	10706.844446486791	7
0	50727	10706.852038690403	8
0	50728	10707.900869738681	7
0	50732	10707.954982873735	8
0	50734	10708.061830094334	9
0	50736	10708.187905191062	10
0	50737	10708.859737011043	9
0	50741	10709.070420459531	10
0	50742	10709.871034175621	9
0	50746	10710.638370543496	10
0	50747	10710.940077576598	9
0	50750	10711.88810126893	8
0	50753	10712.955675553156	7
0	50759	10713.662697391529	8
0	50760	10714.060425445063	7
0	50764	10714.335666580841	8
0	50765	10715.180472450795	7
0	50770	10716.235440707578	6
0	50774	10717.036226712948	7
0	50775	10717.123633150848	6
0	50778	10718.039046214147	5
0	50782	10718.05826058707	6
0	50784	10718.347583227244	7
0	50786	10718.542269541703	8
0	50788	10718.861841830639	9
0	50789	10719.123254428803	8
0	50793	10719.143901359958	9
0	50794	10720.119878371711	8
0	50797	10721.296101159508	7
0	50800	10722.339992225076	6
0	50803	10723.510401687211	5
0	50806	10724.594204074609	4
0	50810	10724.60885290604	5
0	50811	10725.66798742907	4
0	50814	10726.491421641874	3
0	50818	10727.116220742403	4
0	50819	10727.364984396565	3
0	50822	10728.546356835029	2
0	50825	10729.696699798572	1
0	50828	10730.610934111382	0
0	50832	10730.624661674429	1
0	50834	10731.252335906955	2
0	50836	10731.325575858269	3
0	50837	10731.614128086156	2
0	50841	10731.664336777512	3
0	50843	10732.448149168792	4
0	50844	10732.529066368471	3
0	50848	10733.158989949756	4
0	50849	10733.581961862649	3
0	50852	10734.73812933769	2
0	50856	10734.835497068178	3
0	50858	10734.952025455055	4
0	50859	10735.548673610109	3
0	50862	10736.613410533684	2
0	50866	10737.321189835118	3
0	50867	10737.640706291794	2
0	50870	10738.448293878044	1
0	50875	10739.430114635265	0
0	50879	10739.846412013856	1
0	50881	10740.134558682037	2
0	50883	10740.493901092756	3
0	50884	10740.563484239577	2
0	50888	10740.851884309463	3
0	50890	10740.901539513417	4
0	50892	10740.93098401774	5
0	50894	10741.083539324275	6
0	50895	10741.696657478249	5
0	50899	10741.974242934958	6
0	50901	10742.441878128277	7
0	50902	10742.740883622596	6
0	50906	10743.231454907422	7
0	50907	10743.593766472114	6
0	50911	10744.22532294529	7
0	50913	10744.439759668155	8
0	50914	10744.634370562805	7
0	50918	10745.310638803724	8
0	50919	10745.745647317914	7
0	50922	10746.913349979555	6
0	50926	10747.24227967676	7
0	50928	10747.363001568353	8
0	50929	10748.110360706782	7
0	50932	10748.965750610082	6
0	50936	10749.076602923912	7
0	50937	10749.779478867444	6
0	50941	10749.874320134853	7
0	50943	10749.988238980751	8
0	50945	10750.222380504602	9
0	50946	10750.735184247511	8
0	50950	10751.137755216344	9
0	50951	10751.725470966006	8
0	50955	10752.155201477467	9
0	50957	10752.244802153939	10
0	50958	10752.593277888557	9
0	50961	10753.487874735052	8
0	50965	10754.261315978595	9
0	50966	10754.34043325316	8
0	50970	10755.132315874722	9
0	50971	10755.320750146171	8
0	50975	10755.407197696303	9
0	50976	10756.445213306228	8
0	50980	10757.355067409429	9
0	50981	10757.480474403033	8
0	50985	10757.842323343777	9
0	50986	10758.672560197672	8
0	50990	10759.027789993456	9
0	50991	10759.830654674394	8
0	50995	10760.306829275831	9
0	50996	10760.951580207607	8
0	50999	10761.958560296798	7
0	51002	10763.157760660255	6
0	51006	10763.196090968593	7
0	51008	10763.639471262002	8
0	51009	10764.090601597072	7
0	51013	10764.091672385295	8
0	51014	10765.041629135699	7
0	51019	10766.040508463231	6
0	51023	10766.068924634715	7
0	51027	10766.863538830703	8
0	51028	10766.973337134623	7
0	51031	10767.911568490692	6
0	51035	10768.052146076152	7
0	51036	10768.844933128167	6
0	51039	10769.7539779067	5
0	51043	10770.159689273858	6
0	51045	10770.607356452446	7
0	51046	10770.743567371458	6
0	51049	10771.690305154395	5
0	51053	10772.074729101748	6
0	51054	10772.733734380544	5
0	51058	10772.797788684505	6
0	51059	10773.79843013249	5
0	51064	10774.646189852428	4
0	51067	10775.553873527792	3
0	51071	10776.094212709161	4
0	51072	10776.598506517519	3
0	51076	10776.693010059202	4
0	51077	10777.473337107801	3
0	51080	10778.404555973501	2
0	51084	10778.625019027872	3
0	51087	10779.486541858778	2
0	51091	10779.657818451129	3
0	51093	10780.2904456776	4
0	51094	10780.327996138014	3
0	51098	10780.623705338552	4
0	51099	10781.336355838548	3
0	51103	10781.909432100925	4
0	51105	10782.062039547816	5
0	51106	10782.409082135181	4
0	51109	10783.289977012384	3
0	51113	10783.407017262209	4
0	51115	10783.48319511642	5
0	51116	10784.219545855182	4
0	51120	10784.553163576822	5
0	51121	10785.047285496904	4
0	51125	10785.237595601308	5
0	51128	10785.935999539117	4
0	51132	10785.981279505657	5
0	51133	10787.118591041858	4
0	51136	10788.137402106537	3
0	51139	10789.019510794798	2
0	51142	10789.831040798588	1
0	51145	10790.807972987736	0
0	51149	10791.106074066247	1
0	51151	10791.266007521309	2
0	51152	10791.819684063172	1
0	51155	10792.725779360248	0
0	51159	10793.552546469635	1
0	51161	10793.683391176418	2
0	51162	10793.842212880956	1
0	51166	10794.104090781527	2
0	51167	10795.039530592965	1
0	51171	10795.231938422384	2
0	51172	10796.084391606873	1
0	51175	10796.986640329747	0
0	51179	10797.076772024604	1
0	51180	10798.081221652585	0
0	51190	10800.328514784009	1
0	51192	10800.934247284724	2
0	51193	10801.28544711349	1
0	51197	10802.102000244952	2
0	51198	10802.155505704502	1
0	51203	10803.22099255714	0
0	51207	10803.765063262024	1
0	51209	10804.076157526673	2
0	51210	10804.310595225071	1
0	51214	10805.162755332205	2
0	51215	10805.280825997417	1
0	51219	10806.013552836525	2
0	51220	10806.289707352773	1
0	51223	10807.13521746564	0
0	51230	10808.638422834654	1
0	51231	10809.030729060707	0
0	51238	10810.159329786798	1
0	51239	10811.123439756216	0
0	51248	10812.244871263879	1
0	51249	10812.943197669827	0
0	51266	10816.367060757201	1
0	51267	10817.026871842977	0
0	51276	10818.188179234541	1
0	51277	10818.721567124774	0
0	51305	10825.37022039571	1
0	51306	10825.622347876424	0
0	51313	10827.221024677616	1
0	51314	10827.641246261349	0
0	51321	10828.589127496551	1
0	51323	10829.251840889423	2
0	51324	10829.571297051193	1
0	51329	10830.770466041932	0
0	51339	10832.707328178326	1
0	51340	10833.731789663614	0
0	51352	10836.104744247805	1
0	51354	10836.161786478783	2
0	51356	10836.55286275654	3
0	51358	10836.634676067561	4
0	51361	10837.223577858874	3
0	51366	10838.115400152834	2
0	51370	10838.157051717776	3
0	51371	10839.280638529541	2
0	51375	10839.433645792855	3
0	51377	10839.743581664027	4
0	51378	10840.273966711288	3
0	51381	10841.155523726152	2
0	51384	10842.102040805848	1
0	51388	10842.407300364513	2
0	51389	10843.087660122471	1
0	51393	10843.851617538378	2
0	51394	10844.252873154352	1
0	51397	10845.079151383596	0
0	51404	10846.019726603006	1
0	51405	10846.888865239262	0
0	51411	10847.106991183724	1
0	51413	10847.107126885932	2
0	51415	10847.376825143046	3
0	51417	10847.402263985639	4
0	51420	10847.789414061695	3
0	51423	10848.760994337309	2
0	51427	10848.819051286181	3
0	51428	10849.656612731419	2
0	51431	10850.771407226096	1
0	51434	10851.934919164325	0
0	51438	10852.15161457501	1
0	51440	10852.204218121493	2
0	51442	10852.341203511068	3
0	51443	10852.765911991796	2
0	51447	10852.827732124345	3
0	51448	10853.908887336025	2
0	51452	10854.434289332952	3
0	51453	10854.714162256563	2
0	51456	10855.555216738949	1
0	51460	10855.961125024056	2
0	51465	10856.643137020613	1
0	51468	10857.754223950948	0
0	51478	10860.235286026486	1
0	51480	10860.755245194792	2
0	51483	10860.831255503274	1
0	51488	10861.655720827538	0
0	51492	10862.105826004346	1
0	51495	10862.723205298833	0
0	51499	10863.550506177381	1
0	51500	10863.70301784677	0
0	51504	10863.769077050159	1
0	51506	10863.801853219147	2
0	51508	10863.958994688816	3
0	51509	10864.798768803194	2
0	51512	10865.793215519745	1
0	51515	10866.757203343041	0
0	51519	10866.91563786109	1
0	51521	10867.235702743321	2
0	51523	10867.750881377113	3
0	51524	10867.930330874581	2
0	51527	10868.784537711457	1
0	51530	10869.679251305942	0
0	51537	10871.425391220102	1
0	51540	10871.978270223268	0
0	51544	10872.020640282458	1
0	51545	10872.812853499499	0
0	51552	10874.122470578126	1
0	51553	10874.802638006673	0
0	51557	10875.38117118628	1
0	51560	10875.870489469726	0
0	51572	10877.791463086079	1
0	51573	10878.703481619336	0
0	51577	10878.891334939066	1
0	51582	10879.745079237033	0
0	51601	10883.601583860014	1
0	51602	10883.747761033472	0
0	51606	10883.810473635713	1
0	51609	10884.923269997441	0
0	51616	10886.08325406235	1
0	51618	10886.454711277311	2
0	51619	10886.957477307782	1
0	51624	10888.001700485588	0
0	51628	10888.35530981731	1
0	51630	10888.641413764264	2
0	51631	10889.18985300427	1
0	51634	10890.043369814378	0
0	51638	10890.152492965307	1
0	51639	10890.849887085796	0
0	51643	10890.927526482964	1
0	51644	10891.75649514198	0
0	51648	10892.441030313305	1
0	51649	10892.903613737781	0
0	51653	10893.132207812702	1
0	51654	10893.90905333012	0
0	51661	10895.747198690111	1
0	51662	10895.878592704047	0
0	51671	10897.750993118671	1
0	51672	10898.133376444686	0
0	51679	10899.518878066102	1
0	51682	10900.486383925933	0
0	51704	10905.005559048519	1
0	51707	10905.92082853289	0
0	51718	10907.357289066898	1
0	51719	10908.049946831163	0
0	51738	10912.260765509312	1
0	51739	10912.555411445439	0
0	51753	10914.849425805802	1
0	51754	10915.549723354724	0
0	51763	10916.704173953219	1
0	51764	10917.793328372572	0
0	51773	10919.490961191043	1
0	51774	10919.750244729869	0
0	51778	10920.118166858059	1
0	51781	10920.594004192199	0
0	51790	10921.690257048843	1
0	51791	10922.504513871199	0
0	51800	10923.689472436528	1
0	51803	10924.535331359501	0
0	51823	10929.208551995769	1
0	51824	10929.643409018214	0
0	51835	10930.911265667817	1
0	51836	10931.328040858912	0
0	51849	10932.412290972377	1
0	51850	10933.131278427127	0
0	51856	10933.914678468436	1
0	51857	10934.241472058646	0
0	51866	10935.9385893738	1
0	51868	10935.966889773901	2
0	51869	10936.212092992846	1
0	51874	10937.070119880416	0
0	51881	10938.974597635548	1
0	51882	10939.222721367047	0
0	51891	10940.616483424878	1
0	51893	10940.921670020155	2
0	51894	10941.220135943309	1
0	51897	10942.096415280734	0
0	51908	10943.694334798608	1
0	51910	10944.04922773352	2
0	51911	10944.276110352945	1
0	51914	10945.295365083121	0
0	51918	10945.462894438966	1
0	51922	10946.282194399007	2
0	51923	10946.466713942304	1
0	51927	10946.897849187275	2
0	51928	10947.542483709283	1
0	51932	10947.68027147997	2
0	51935	10948.543917633217	1
0	51938	10949.667304658327	0
0	51942	10950.621636287386	1
0	51943	10950.831568116039	0
0	51947	10951.067863706087	1
0	51948	10951.757810638376	0
0	51955	10953.15070421453	1
0	51957	10953.215189920145	2
0	51958	10953.810032875274	1
0	51963	10954.958148641509	0
0	51967	10955.729753405499	1
0	51968	10955.793252786991	0
0	51972	10956.287940519341	1
0	51973	10956.782604071122	0
0	51977	10957.586564951858	1
0	51978	10957.893992837422	0
0	51982	10958.065966444484	1
0	51983	10958.795279089824	0
0	51987	10959.598724377035	1
0	51988	10959.936282837947	0
0	51992	10960.093650513156	1
0	51993	10960.938654328228	0
0	51997	10961.772845597372	1
0	51998	10961.918262874891	0
0	52008	10964.61179328169	1
0	52011	10964.801366444209	0
0	52047	10973.170281502937	1
0	52048	10973.624010201263	0
0	52062	10975.993189171625	1
0	52064	10976.124107743506	2
0	52067	10976.613274579588	1
0	52072	10977.798713453766	0
0	52076	10978.077321313562	1
0	52079	10978.776645772345	0
0	52088	10980.478688992621	1
0	52089	10980.944663136638	0
0	52095	10981.116430515228	1
0	52096	10981.749665548931	0
0	52100	10982.767228233769	1
0	52101	10982.806072910967	0
0	52105	10983.182511935987	1
0	52106	10983.961279202345	0
0	52116	10985.672254698433	1
0	52118	10985.780583665942	2
0	52119	10986.810328311193	1
0	52124	10987.860532110836	0
0	52128	10987.864762176755	1
0	52129	10989.019299384951	0
0	52137	10989.690789960667	1
0	52138	10990.135806372761	0
0	52150	10993.316958151902	1
0	52151	10993.503202645666	0
0	52155	10993.895145156897	1
0	52156	10994.582996667362	0
0	52165	10996.143752832063	1
0	52166	10996.778358795959	0
0	52170	10996.891365567576	1
0	52173	10997.74524787534	0
0	52177	10998.353720307042	1
0	52179	10998.377264007883	2
0	52180	10998.675325446762	1
0	52184	10998.713252555945	2
0	52185	10999.692996368278	1
0	52188	11000.729276898224	0
0	52195	11001.92465956519	1
0	52196	11002.533527314104	0
0	52207	11004.337548119749	1
0	52208	11004.555765065551	0
0	52217	11005.998704586551	1
0	52218	11006.564432908129	0
0	52222	11006.920451594662	1
0	52223	11007.412990343757	0
0	52227	11007.439508111509	1
0	52230	11008.540716160368	0
0	52237	11010.429518213595	1
0	52238	11010.568854122609	0
0	52242	11010.580135835876	1
0	52244	11010.917583072554	2
0	52245	11011.671650716569	1
0	52248	11012.737040377594	0
0	52252	11013.644106352219	1
0	52253	11013.687392770964	0
0	52257	11014.377057952257	1
0	52258	11014.619576479866	0
0	52262	11014.826622333614	1
0	52265	11015.656143328733	0
0	52269	11016.444453005641	1
0	52270	11016.564254484046	0
0	52277	11017.928769914443	1
0	52278	11018.264777448121	0
0	52282	11018.319042875235	1
0	52284	11018.321653124201	2
0	52289	11019.127620022278	1
0	52293	11019.146373791599	2
0	52294	11020.302690824587	1
0	52297	11021.32625898486	0
0	52304	11022.827570671654	1
0	52306	11023.105067883546	2
0	52308	11023.238028020437	3
0	52309	11023.372731589247	2
0	52315	11023.935532122593	3
0	52317	11024.171049888871	4
0	52318	11024.274421843701	3
0	52321	11025.122553072964	2
0	52325	11025.984264618995	3
0	52326	11026.067054213585	2
0	52330	11026.554699198083	3
0	52331	11026.945580753034	2
0	52334	11027.74889729107	1
0	52338	11028.408043719444	2
0	52339	11028.664081204219	1
0	52342	11029.639575642163	0
0	52349	11030.634237445844	1
0	52351	11030.824478126716	2
0	52352	11031.679924026972	1
0	52357	11032.711198764483	0
0	52364	11034.086178394123	1
0	52365	11034.413069309018	0
0	52374	11035.980068819251	1
0	52375	11036.305816171415	0
0	52417	11045.103175800374	1
0	52420	11045.396809564999	0
0	52429	11046.709013957618	1
0	52432	11047.501448416061	0
0	52436	11047.862028953207	1
0	52437	11048.321521368905	0
0	52441	11048.770757394086	1
0	52443	11048.782127279267	2
0	52444	11049.47175484896	1
0	52448	11050.271761632416	2
0	52449	11050.45803781953	1
0	52453	11050.518254080285	2
0	52454	11051.624047643601	1
0	52459	11052.480048139769	0
0	52471	11054.888768696052	1
0	52473	11054.911407856097	2
0	52476	11055.744328518122	1
0	52480	11055.865076303369	2
0	52481	11056.640290586467	1
0	52487	11056.791484547015	2
0	52488	11057.742229281462	1
0	52492	11058.754077541502	2
0	52493	11058.772324822846	1
0	52497	11058.998962597308	2
0	52498	11059.655575459733	1
0	52502	11060.442964829823	2
0	52503	11060.682251280642	1
0	52507	11061.411918507022	2
0	52508	11061.787242052707	1
0	52511	11062.616671094115	0
0	52518	11064.402895865248	1
0	52519	11064.455323669317	0
0	52523	11064.84486296766	1
0	52526	11065.359075333367	0
0	52530	11065.568585227856	1
0	52531	11066.525151137265	0
0	52535	11066.603653442775	1
0	52536	11067.690247770215	0
0	52543	11069.128360049122	1
0	52544	11069.573004792726	0
0	52554	11072.130425017151	1
0	52555	11072.303313632032	0
0	52559	11072.442776517777	1
0	52565	11072.98322940494	2
0	52566	11073.304488913158	1
0	52570	11073.45701807826	2
0	52573	11074.275748092124	1
0	52578	11075.364659005871	0
0	52582	11075.684009992228	1
0	52583	11076.545779157339	0
0	52590	11078.029332576879	1
0	52592	11078.406937648555	2
0	52593	11078.688035167849	1
0	52598	11079.648750285341	0
0	52602	11080.419487404447	1
0	52603	11080.500234445187	0
0	52610	11082.021049649234	1
0	52611	11082.384399054482	0
0	52617	11083.027078627155	1
0	52618	11083.511169625729	0
0	52622	11083.680846246582	1
0	52623	11084.608849699147	0
0	52632	11086.221760546586	1
0	52633	11086.798814268693	0
0	52637	11087.114202909569	1
0	52642	11087.970255557079	0
0	52646	11088.084458393253	1
0	52647	11088.925678778816	0
0	52651	11088.980774543656	1
0	52653	11089.124735144682	2
0	52655	11089.234332908305	3
0	52657	11089.462483424233	4
0	52659	11089.608346994831	5
0	52660	11090.026148006976	4
0	52664	11090.78006274062	5
0	52665	11090.957652147491	4
0	52668	11092.156568800197	3
0	52673	11093.290457152766	2
0	52677	11093.337293162126	3
0	52678	11094.212274277867	2
0	52682	11094.262075878526	3
0	52683	11095.325941247684	2
0	52686	11096.182744472665	1
0	52690	11096.248249251903	2
0	52692	11096.807554717801	3
0	52693	11097.012270237231	2
0	52697	11097.826509444333	3
0	52698	11098.018709821073	2
0	52702	11098.095416134761	3
0	52704	11098.959963597635	4
0	52705	11099.157684883853	3
0	52710	11099.968529238371	2
0	52714	11100.218981869891	3
0	52715	11101.07240200481	2
0	52719	11101.596160486414	3
0	52720	11101.958681829372	2
0	52724	11102.544475440863	3
0	52725	11103.097186395624	2
0	52729	11103.602653786184	3
0	52730	11104.227100101211	2
0	52733	11105.291772693959	1
0	52736	11106.341411484037	0
0	52754	11110.732314502978	1
0	52755	11111.113348403391	0
0	52773	11113.493989595228	1
0	52774	11114.402969237887	0
0	52781	11115.962036956586	1
0	52782	11116.065890365192	0
0	52789	11117.341146781563	1
0	52790	11117.807110461877	0
0	52799	11119.465216798908	1
0	52802	11119.865652584848	0
0	52813	11120.822430443272	1
0	52814	11121.754449252882	0
0	52821	11122.878469836978	1
0	52828	11123.866661657212	0
0	52845	11126.974062851117	1
0	52846	11127.720692126924	0
0	52861	11131.7350812081	1
0	52864	11132.14043166936	0
0	52875	11133.788211722329	1
0	52878	11134.309338628879	0
0	52896	11136.66092760427	1
0	52897	11137.181156312308	0
0	52909	11139.613680106569	1
0	52910	11140.152260754822	0
0	52921	11142.070810445015	1
0	52922	11142.084940343914	0
0	52926	11142.654971825557	1
0	52929	11143.249670446855	0
0	52933	11143.434899446871	1
0	52934	11144.246817708299	0
0	52941	11145.726859278612	1
0	52943	11146.067992550963	2
0	52944	11146.069042248655	1
0	52948	11146.935836704511	2
0	52950	11147.009684257275	3
0	52951	11147.166501333848	2
0	52960	11148.098789499425	1
0	52964	11148.107275414898	2
0	52965	11149.125065666441	1
0	52969	11149.19321930187	2
0	52970	11150.146146699045	1
0	52973	11150.973655519266	0
0	52983	11153.972784662632	1
0	52984	11154.203947252039	0
0	52988	11154.241440632922	1
0	52990	11154.251107790503	2
0	52992	11154.297517381161	3
0	52993	11155.131469561536	2
0	52996	11155.95305800252	1
0	52999	11157.056786290001	0
0	53006	11158.316137334003	1
0	53008	11158.899746564505	2
0	53010	11159.146566215346	3
0	53011	11159.316839167479	2
0	53015	11159.36133366632	3
0	53016	11160.429470411971	2
0	53019	11161.364661669548	1
0	53023	11161.983378730988	2
0	53026	11162.252347567122	1
0	53033	11163.356687628015	0
0	53037	11164.242997340831	1
0	53039	11164.287567647519	2
0	53040	11164.488692252061	1
0	53044	11164.666549092894	2
0	53046	11165.056873491603	3
0	53048	11165.06358044102	4
0	53049	11165.315843521899	3
0	53053	11165.600159781104	4
0	53054	11166.281226160845	3
0	53057	11167.436458681805	2
0	53061	11167.846589289196	3
0	53062	11168.6237644895	2
0	53066	11169.66776439219	3
0	53067	11169.768566876745	2
0	53071	11169.864025117515	3
0	53072	11170.934321442994	2
0	53076	11171.991111441874	3
0	53077	11172.109412253092	2
0	53081	11172.743480350208	3
0	53082	11173.261206459536	2
0	53086	11173.408633058029	3
0	53088	11173.590525204794	4
0	53090	11174.011150417357	5
0	53091	11174.169802583664	4
0	53095	11174.481967912218	5
0	53096	11175.214108547758	4
0	53099	11176.053076646015	3
0	53102	11177.085922923502	2
0	53105	11177.969632981815	1
0	53109	11178.137615372116	2
0	53112	11178.82229966531	1
0	53116	11179.110516665701	2
0	53118	11179.473029777602	3
0	53119	11179.998684670594	2
0	53122	11181.069072989192	1
0	53125	11182.10611660574	0
0	53129	11182.384411353726	1
0	53131	11182.909596080791	2
0	53133	11183.041354736705	3
0	53134	11183.289448595889	2
0	53138	11183.915440404198	3
0	53139	11184.304557157219	2
0	53143	11184.669975231701	3
0	53145	11185.408822716108	4
0	53146	11185.456681311694	3
0	53150	11186.385362010829	4
0	53151	11186.645932491221	3
0	53155	11187.441591991923	4
0	53156	11187.811656183847	3
0	53160	11188.126229220782	4
0	53161	11188.939684399315	3
0	53165	11189.761593674184	4
0	53166	11189.991611211193	3
0	53170	11190.228694068093	4
0	53173	11191.0963130815	3
0	53177	11191.985990603977	4
0	53178	11192.190778284431	3
0	53182	11192.556470836536	4
0	53184	11192.576683399072	5
0	53185	11193.310003011957	4
0	53190	11194.469041085154	3
0	53194	11194.494023242218	4
0	53195	11195.465861768186	3
0	53199	11195.575401846095	4
0	53200	11196.279861058392	3
0	53204	11196.495786068511	4
0	53205	11197.313146392726	3
0	53209	11197.463983545883	4
0	53210	11198.118266439815	3
0	53214	11198.150514429308	4
0	53216	11198.373468012878	5
0	53217	11199.1462501213	4
0	53220	11200.150362640903	3
0	53224	11200.467608489343	4
0	53225	11200.95404225849	3
0	53229	11201.665065982123	4
0	53230	11201.920627175834	3
0	53233	11202.855682466648	2
0	53237	11203.563832650341	3
0	53238	11203.663312925215	2
0	53242	11203.716307236911	3
0	53244	11203.818254533514	4
0	53246	11204.075276750384	5
0	53247	11204.828352804671	4
0	53250	11205.989223290424	3
0	53254	11206.985877528162	4
0	53255	11207.066061603747	3
0	53259	11207.48887974182	4
0	53260	11208.064683642987	3
0	53264	11208.249068977175	4
0	53265	11209.217549903974	3
0	53269	11209.421378952442	4
0	53271	11209.638689933644	5
0	53272	11210.019625648022	4
0	53275	11211.161567515325	3
0	53278	11212.344541512992	2
0	53283	11213.481171206295	1
0	53287	11213.934170365367	2
0	53289	11214.159478909456	3
0	53290	11214.329570308424	2
0	53294	11214.807265568048	3
0	53295	11215.462097800992	2
0	53299	11215.994881481704	3
0	53301	11216.027613097202	4
0	53302	11216.327111512985	3
0	53306	11217.142380990758	4
0	53307	11217.462664604656	3
0	53310	11218.602615463644	2
0	53314	11218.777505660245	3
0	53315	11219.583079871166	2
0	53321	11220.056501852103	3
0	53323	11220.38137501893	4
0	53324	11220.595737202189	3
0	53328	11220.995304213183	4
0	53329	11221.585125739037	3
0	53332	11222.422611305027	2
0	53336	11222.50014630572	3
0	53338	11222.663776797233	4
0	53339	11223.564762148264	3
0	53342	11224.391196458697	2
0	53345	11225.232392024811	1
0	53349	11225.471486188387	2
0	53351	11225.905511606803	3
0	53352	11226.367447786875	2
0	53356	11227.220659107636	3
0	53357	11227.422452460419	2
0	53361	11227.820916227583	3
0	53362	11228.547707323826	2
0	53366	11229.213335346617	3
0	53367	11229.665015535618	2
0	53371	11229.703110251967	3
0	53372	11230.634525327666	2
0	53375	11231.555282804	1
0	53379	11232.002734216015	2
0	53380	11232.681555694717	1
0	53384	11232.862520904248	2
0	53386	11233.717675302096	3
0	53387	11233.720160230066	2
0	53390	11234.58075096533	1
0	53394	11235.469991257546	2
0	53395	11235.526492070596	1
0	53398	11236.527385846342	0
0	53413	11239.918129295795	1
0	53415	11240.359222114678	2
0	53416	11240.58962300001	1
0	53419	11241.673856711204	0
0	53423	11242.208813427876	1
0	53424	11242.861954499691	0
0	53431	11243.894294942446	1
0	53433	11244.168227777213	2
0	53434	11244.948290269173	1
0	53437	11246.068081541083	0
0	53444	11247.501946989378	1
0	53446	11247.634101795279	2
0	53447	11248.158645157984	1
0	53452	11248.975423138218	0
0	53456	11249.209997268695	1
0	53457	11250.130597124251	0
0	53464	11251.450451670105	1
0	53466	11251.749171994429	2
0	53467	11252.035625281373	1
0	53472	11253.162513358334	0
0	53479	11254.736128591869	1
0	53480	11254.972263151316	0
0	53484	11255.462862299779	1
0	53487	11255.812378157957	0
0	53491	11256.14977627837	1
0	53492	11256.803017743214	0
0	53496	11256.811606053298	1
0	53497	11257.612376811172	0
0	53501	11258.330382468805	1
0	53502	11258.666401545613	0
0	53512	11261.092740031728	1
0	53513	11261.402717500462	0
0	53530	11264.848847560892	1
0	53535	11265.623539830933	0
0	53545	11268.04589650283	1
0	53546	11268.644876596985	0
0	53594	11277.166434840997	1
0	53597	11277.41184853716	0
0	53606	11278.786540159897	1
0	53608	11278.976174822848	2
0	53609	11279.29332687231	1
0	53612	11280.119264057653	0
0	53621	11281.370094740489	1
0	53624	11282.509485971092	0
0	53628	11282.576389400483	1
0	53633	11283.575959038085	0
0	53643	11285.714527452866	1
0	53645	11286.048555971533	2
0	53646	11286.235939880463	1
0	53651	11287.349165207429	0
0	53658	11288.675743464999	1
0	53660	11289.341296752925	2
0	53661	11289.49747177847	1
0	53664	11290.503709273602	0
0	53668	11290.910991298561	1
0	53669	11291.643956860251	0
0	53673	11291.854612699605	1
0	53674	11292.488698738351	0
0	53678	11292.537048029318	1
0	53679	11293.555851660952	0
0	53683	11293.657251567271	1
0	53684	11294.635298227243	0
0	53690	11295.230096289265	1
0	53691	11295.786771958791	0
0	53695	11296.335173803485	1
0	53696	11296.853420788706	0
0	53700	11297.17847129616	1
0	53701	11298.035982391895	0
0	53705	11298.581376917875	1
0	53706	11299.111168402252	0
0	53713	11300.695293611077	1
0	53714	11301.461094501899	0
0	53762	11311.387730083776	1
0	53763	11312.170395436236	0
0	53775	11314.720310494484	1
0	53776	11314.968978209426	0
0	53793	11318.160740607246	1
0	53794	11319.226263702852	0
0	53805	11320.95891610636	1
0	53806	11321.214261339517	0
0	53817	11322.297799271775	1
0	53818	11323.218292126438	0
0	53825	11325.021811827266	1
0	53826	11325.346191035683	0
0	53885	11336.032863568589	1
0	53886	11336.691636826942	0
0	53893	11337.936318747418	1
0	53895	11337.996338704199	2
0	53898	11338.750101933634	1
0	53901	11339.855355146999	0
0	53907	11340.361299356038	1
0	53908	11340.819083169481	0
0	53914	11340.964594628449	1
0	53916	11341.190355229049	2
0	53917	11341.68804337178	1
0	53920	11342.700409455417	0
0	53924	11343.475037848668	1
0	53925	11343.693469240522	0
0	53929	11344.303832148755	1
0	53930	11344.641081316961	0
0	53945	11347.998594266919	1
0	53947	11348.348051685509	2
0	53948	11348.609647948766	1
0	53951	11349.618653890496	0
0	53955	11349.79563481544	1
0	53956	11350.728439018136	0
0	53960	11350.845101952712	1
0	53963	11351.660439124616	0
0	53967	11352.472368226683	1
0	53968	11352.806132083206	0
0	53972	11353.732336418508	1
0	53974	11353.889501533815	2
0	53975	11353.942685933697	1
0	53980	11354.818274704373	0
0	53992	11357.874824576343	1
0	53993	11357.903945738549	0
0	53997	11357.950014901772	1
0	54000	11358.981576446357	0
0	54004	11359.565255151431	1
0	54005	11360.169673288527	0
0	54016	11361.875059490883	1
0	54018	11361.929438594836	2
0	54019	11362.011454266688	1
0	54022	11362.932298232621	0
0	54029	11364.363235184496	1
0	54030	11365.20379813938	0
0	54047	11368.769218013723	1
0	54048	11369.674704564554	0
0	54067	11373.133499652466	1
0	54070	11374.08011432542	0
0	54080	11376.100059116801	1
0	54081	11376.96781780031	0
0	54092	11378.241614967219	1
0	54093	11379.168412314173	0
0	54099	11380.150319207946	1
0	54100	11380.357813252606	0
0	54104	11380.747767670932	1
0	54106	11380.886437807683	2
0	54107	11381.234641190716	1
0	54111	11381.340410526297	2
0	54116	11382.261823003278	1
0	54120	11382.377035537694	2
0	54121	11383.268284961679	1
0	54125	11383.948835766834	2
0	54126	11384.425975827505	1
0	54130	11384.900137946971	2
0	54131	11385.394786528037	1
0	54134	11386.481021665135	0
0	54144	11389.517688375395	1
0	54145	11389.554676038125	0
0	54175	11395.441778986067	1
0	54178	11396.561381766949	0
0	54190	11398.890956323155	1
0	54193	11399.528662901003	0
0	54202	11400.844480817038	1
0	54205	11401.656796967708	0
0	54212	11403.009794554002	1
0	54213	11403.856899902136	0
0	54225	11406.123063104011	1
0	54226	11406.710261387475	0
0	54237	11408.414930235443	1
0	54238	11408.715813837111	0
0	54242	11409.546473646668	1
0	54245	11409.810154874254	0
0	54249	11410.268412845552	1
0	54250	11410.62540735966	0
0	54257	11412.574326528722	1
0	54258	11412.791554476418	0
0	54267	11414.11606434191	1
0	54268	11414.878154659834	0
0	54272	11415.116252848292	1
0	54273	11415.686673991293	0
0	54277	11415.722709096533	1
0	54278	11416.486748440847	0
0	54282	11416.83410508165	1
0	54283	11417.28839009833	0
0	54297	11419.941694364115	1
0	54298	11420.511167652071	0
0	54325	11425.773167009051	1
0	54326	11426.517898310818	0
0	54340	11429.041752986315	1
0	54341	11429.521960195531	0
0	54353	11432.006524677431	1
0	54358	11432.578582989057	0
0	54370	11435.138045333033	1
0	54371	11435.437589564738	0
0	54378	11436.368224079914	1
0	54379	11437.329962940053	0
0	54386	11439.227325635711	1
0	54387	11439.543517391481	0
0	54391	11440.07863485032	1
0	54394	11440.643251771577	0
0	54401	11442.098113344733	1
0	54403	11442.276018719859	2
0	54404	11442.493962237709	1
0	54409	11443.668766465788	0
0	54415	11444.816648009568	1
0	54416	11444.857564621889	0
0	54420	11445.158143156485	1
0	54426	11445.855415234501	2
0	54427	11445.939208578789	1
0	54431	11446.730961888046	2
0	54432	11446.88915498043	1
0	54436	11447.08082950438	2
0	54437	11447.784171686234	1
0	54440	11448.869263549527	0
0	54447	11450.611538908727	1
0	54448	11450.798776232643	0
0	54452	11451.5733795945	1
0	54454	11451.574927212396	2
0	54455	11451.972417543461	1
0	54459	11452.07664611423	2
0	54461	11452.130718428929	3
0	54464	11453.00950912694	2
0	54467	11453.887263657809	1
0	54471	11454.676909973962	2
0	54472	11454.796722089317	1
0	54476	11455.156535579689	2
0	54477	11455.845973358959	1
0	54481	11456.659488594527	2
0	54482	11456.944065855261	1
0	54486	11457.402554716558	2
0	54487	11457.979657640498	1
0	54490	11458.791385485049	0
0	54494	11458.991246694473	1
0	54497	11459.9175616378	0
0	54501	11460.060717489963	1
0	54502	11461.111967588872	0
0	54509	11462.011166389388	1
0	54511	11462.07892567728	2
0	54512	11462.770452481978	1
0	54517	11463.640142600708	0
0	54521	11464.234085389658	1
0	54523	11464.447783106541	2
0	54524	11464.55309719332	1
0	54528	11464.656651420768	2
0	54529	11465.602642656215	1
0	54532	11466.70193671389	0
0	54544	11469.635847539772	1
0	54545	11469.860946980403	0
0	54549	11469.868018749458	1
0	54552	11470.980129850381	0
0	54558	11471.938371662631	1
0	54559	11472.012302706116	0
0	54563	11472.681388969874	1
0	54564	11472.904100915236	0
0	54568	11473.189542413575	1
0	54570	11473.442428778229	2
0	54571	11473.765844293782	1
0	54574	11474.749226143216	0
0	54578	11474.749436507693	1
0	54579	11475.56742164549	0
0	54583	11475.764184880361	1
0	54585	11475.810548251515	2
0	54586	11476.582446557102	1
0	54589	11477.532601678656	0
0	54596	11478.642239772065	1
0	54597	11479.461932070744	0
0	54609	11481.775284657386	1
0	54610	11482.408692411151	0
0	54627	11485.989152385843	1
0	54632	11486.618992246412	0
0	54639	11487.879145662323	1
0	54640	11488.801896380264	0
0	54704	11503.068577107186	1
0	54705	11503.500535309783	0
0	54712	11504.676169568734	1
0	54716	11504.935075645598	2
0	54717	11505.197531682628	1
0	54720	11506.205451782423	0
0	54727	11507.863319798513	1
0	54728	11508.330687392599	0
0	54737	11510.039610424825	1
0	54738	11510.504898347895	0
0	54742	11510.943403869578	1
0	54743	11511.657448735929	0
0	54747	11512.396625146463	1
0	54748	11512.808655421345	0
0	54755	11513.710864457123	1
0	54758	11514.769608499578	0
0	54764	11515.652366235815	1
0	54765	11515.888595404944	0
0	54769	11516.136438611704	1
0	54771	11516.310794388869	2
0	54772	11517.033768244835	1
0	54775	11517.974816549758	0
0	54782	11519.207965773461	1
0	54783	11520.182356477996	0
0	54787	11520.722677396606	1
0	54790	11521.31812355416	0
0	54800	11524.082815831134	1
0	54801	11524.146526763682	0
0	54805	11524.686967103616	1
0	54807	11524.739329548325	2
0	54808	11524.962246509921	1
0	54812	11525.279219633092	2
0	54815	11526.061575649586	1
0	54819	11526.126943255562	2
0	54820	11527.125334939268	1
0	54824	11528.016020938883	2
0	54825	11528.065096015297	1
0	54829	11528.952537642952	2
0	54830	11529.077027047705	1
0	54834	11529.900608003217	2
0	54835	11530.06942892503	1
0	54839	11530.144148207195	2
0	54840	11531.258926607668	1
0	54844	11531.83936676216	2
0	54845	11532.35646410929	1
0	54849	11532.406354338334	2
0	54850	11533.180898509826	1
0	54854	11533.8487907726	2
0	54855	11534.148722735699	1
0	54860	11535.056635162048	0
0	54867	11535.888667248738	1
0	54868	11536.983575166203	0
0	54874	11537.370862038446	1
0	54875	11538.105587065499	0
0	54922	11549.675149953496	1
0	54923	11550.119475421402	0
0	54946	11555.198060017731	1
0	54948	11555.21817875923	2
0	54951	11556.227106183208	1
0	54954	11557.101352322567	0
0	54958	11557.114969195885	1
0	54961	11557.982022257428	0
0	54965	11558.069217888078	1
0	54968	11558.879081825632	0
0	54972	11558.912213282941	1
0	54973	11559.734949754644	0
0	54982	11560.579524993688	1
0	54986	11561.280557336788	2
0	54987	11561.421082687284	1
0	54992	11562.390138076524	0
0	55076	11580.57120539845	1
0	55077	11581.086463736557	0
0	55086	11582.576977665027	1
0	55089	11583.063265172393	0
0	55096	11584.271604898769	1
0	55100	11584.989692616307	2
0	55101	11585.081635001116	1
0	55104	11585.987741482258	0
0	55118	11588.347519200607	1
0	55121	11588.842762436718	0
0	55130	11590.355901138442	1
0	55132	11590.735505852861	2
0	55133	11590.883272611723	1
0	55136	11591.809364310373	0
0	55145	11593.408715126895	1
0	55147	11593.787191438679	2
0	55148	11593.936615287234	1
0	55153	11595.007719053236	0
0	55160	11596.668072284356	1
0	55161	11597.032795800456	0
0	55168	11598.474647008147	1
0	55171	11598.772342164071	0
0	55178	11600.032867726176	1
0	55179	11600.636182022469	0
0	55183	11600.688918489748	1
0	55185	11601.101387609704	2
0	55187	11601.16254763571	3
0	55188	11601.452132085154	2
0	55193	11602.378741008232	1
0	55197	11603.191762151666	2
0	55198	11603.326429938248	1
0	55201	11604.218604987117	0
0	55205	11604.901763421285	1
0	55206	11605.0574072212	0
0	55210	11605.165885392533	1
0	55212	11605.467032007447	2
0	55214	11605.507695453068	3
0	55216	11605.585678142379	4
0	55217	11606.128009840103	3
0	55221	11606.463810444166	4
0	55222	11606.999494729007	3
0	55226	11607.375990993611	4
0	55228	11607.903813906567	5
0	55229	11607.922132186314	4
0	55233	11608.777598470839	5
0	55234	11608.969580136521	4
0	55237	11609.778587132136	3
0	55240	11610.657545840556	2
0	55244	11610.761278172011	3
0	55246	11611.343346661647	4
0	55247	11611.712081833465	3
0	55250	11612.578295437342	2
0	55254	11612.799396060063	3
0	55256	11613.495553603738	4
0	55257	11613.728363734207	3
0	55260	11614.734937711435	2
0	55264	11615.011786896382	3
0	55265	11615.61282895813	2
0	55268	11616.611777218247	1
0	55271	11617.534286293017	0
0	55275	11617.976579152255	1
0	55276	11618.343884138393	0
0	55280	11618.621865263281	1
0	55281	11619.428514655961	0
0	55285	11619.608524416441	1
0	55286	11620.517379643863	0
0	55293	11621.569989702874	1
0	55294	11622.505262456277	0
0	55300	11622.978606481313	1
0	55302	11623.039520029494	2
0	55303	11623.467242916302	1
0	55307	11623.695346365833	2
0	55308	11624.619541048353	1
0	55312	11624.975583103204	2
0	55313	11625.565148478748	1
0	55317	11625.911674506116	2
0	55318	11626.693651833107	1
0	55322	11627.133816095345	2
0	55323	11627.758534991556	1
0	55329	11628.043099874386	2
0	55330	11628.686672516168	1
0	55336	11629.750277600736	2
0	55337	11629.840040519741	1
0	55340	11631.026296798606	0
0	55344	11631.114761982981	1
0	55345	11631.937923308276	0
0	55349	11632.816102449736	1
0	55350	11632.831048026681	0
0	55354	11633.174466772102	1
0	55355	11633.676000267174	0
0	55359	11633.79797601343	1
0	55360	11634.648031008337	0
0	55369	11635.87865129708	1
0	55373	11636.032563268387	2
0	55374	11636.837120871618	1
0	55377	11637.767264958005	0
0	55384	11638.802580073034	1
0	55386	11638.94947369968	2
0	55389	11639.737622611597	1
0	55394	11640.60353396656	0
0	55398	11640.708403306251	1
0	55399	11641.443727893662	0
0	55403	11641.686113433222	1
0	55404	11642.337836752739	0
0	55408	11642.411547108581	1
0	55409	11643.285273630358	0
0	55416	11644.787292319463	1
0	55418	11644.796951623814	2
0	55419	11645.596066326834	1
0	55424	11646.432922344468	0
0	55428	11647.021592884499	1
0	55430	11647.184814512449	2
0	55431	11647.308200911246	1
0	55435	11647.39857077299	2
0	55436	11648.159437311161	1
0	55440	11649.23288744342	2
0	55441	11649.275803383998	1
0	55445	11649.754134981872	2
0	55446	11650.201429507322	1
0	55450	11651.087107160761	2
0	55451	11651.088352079968	1
0	55455	11651.116032648132	2
0	55456	11651.9449555777	1
0	55460	11652.341635767332	2
0	55462	11652.988526432899	3
0	55463	11653.018836163449	2
0	55467	11653.13319159466	3
0	55468	11653.902025336492	2
0	55471	11654.917379777412	1
0	55475	11655.56902168448	2
0	55476	11656.018379589821	1
0	55480	11656.272698019919	2
0	55481	11657.116130585874	1
0	55484	11658.143543865903	0
0	55521	11665.252523533697	1
0	55522	11665.947012918627	0
0	55586	11680.781999627983	1
0	55587	11681.120695643406	0
0	55596	11682.617912478896	1
0	55597	11683.173419645335	0
0	55653	11695.546421653228	1
0	55654	11695.702459234277	0
0	55679	11699.384025922447	1
0	55682	11699.835073111949	0
0	55691	11700.981036758687	1
0	55692	11701.843247801156	0
0	55699	11703.007975790027	1
0	55702	11703.962146923782	0
0	55716	11706.683168446385	1
0	55717	11706.897802851347	0
0	55721	11706.986138726187	1
0	55724	11707.855967709606	0
0	55728	11708.063442420939	1
0	55729	11708.790051263755	0
0	55758	11716.564308791591	1
0	55759	11716.985246559696	0
0	55770	11718.317589413179	1
0	55772	11718.66476917165	2
0	55773	11719.202928097265	1
0	55776	11720.397855289092	0
0	55780	11721.159958572445	1
0	55782	11721.192079450485	2
0	55783	11721.23416860923	1
0	55786	11722.141756955905	0
0	55790	11722.145332176397	1
0	55793	11723.068683636466	0
0	55800	11724.344094285707	1
0	55802	11724.414827101128	2
0	55805	11724.974136088507	1
0	55812	11725.884820553379	0
0	55816	11726.037380709573	1
0	55821	11727.067844856994	0
0	55828	11728.405874273552	1
0	55829	11729.046457556913	0
0	55838	11730.185233221382	1
0	55839	11730.86527932016	0
0	55846	11732.733241359496	1
0	55847	11732.884224741438	0
0	55854	11734.361595831449	1
0	55857	11735.106152361908	0
0	55861	11735.503795036989	1
0	55862	11736.154508750231	0
0	55871	11738.062697988705	1
0	55872	11738.119006305931	0
0	55878	11738.840666336319	1
0	55879	11739.027795513904	0
0	55883	11739.152850521796	1
0	55884	11739.977651529385	0
0	55893	11741.246680309835	1
0	55895	11741.365373562437	2
0	55896	11741.840800130738	1
0	55901	11742.765400496589	0
0	55910	11743.971242189496	1
0	55911	11744.758280866032	0
0	55918	11746.35405748187	1
0	55919	11746.782132683226	0
0	55923	11746.926458829061	1
0	55928	11747.587101193887	0
0	55935	11748.48062262788	1
0	55939	11748.840991913069	2
0	55940	11749.422329166901	1
0	55945	11750.301964037583	0
0	55949	11750.674637665874	1
0	55950	11751.402058775161	0
0	55954	11751.753214322288	1
0	55955	11752.378427944702	0
0	55959	11752.725701228385	1
0	55960	11753.382815975041	0
0	55964	11753.393384176129	1
0	55965	11754.188728805163	0
0	55972	11755.617786763416	1
0	55973	11756.382515020386	0
0	55980	11757.894218276523	1
0	55982	11758.08495276668	2
0	55983	11758.482766139597	1
0	55989	11759.158048259601	2
0	55990	11759.559148298294	1
0	55994	11760.002104390802	2
0	55995	11760.505757604816	1
0	55999	11761.246646922993	2
0	56000	11761.696573131342	1
0	56004	11761.722668872212	2
0	56005	11762.700828940698	1
0	56009	11763.535047149841	2
0	56010	11763.712789350559	1
0	56014	11764.507246416224	2
0	56015	11764.673488297404	1
0	56018	11765.58941013878	0
0	56025	11767.070768777361	1
0	56027	11767.236355704047	2
0	56029	11767.246437007571	3
0	56030	11767.41974512981	2
0	56035	11768.435745786314	1
0	56039	11768.644717616798	2
0	56040	11769.578914265798	1
0	56044	11769.841162438076	2
0	56045	11770.598591992536	1
0	56048	11771.753867899531	0
0	56055	11772.776325181926	1
0	56057	11773.43698746087	2
0	56058	11773.537473417258	1
0	56062	11773.636077230437	2
0	56063	11774.616755455358	1
0	56066	11775.539994120969	0
0	56070	11776.008347324414	1
0	56071	11776.532097908481	0
0	56075	11776.717846338518	1
0	56076	11777.677807611412	0
0	56086	11779.531641067822	1
0	56087	11780.540725213474	0
0	56099	11782.798777918845	1
0	56100	11783.896091597898	0
0	56109	11785.076224849808	1
0	56110	11785.747802960684	0
0	56116	11786.289731533904	1
0	56117	11786.929699649753	0
0	56121	11787.394266735395	1
0	56122	11787.76131535936	0
0	56126	11787.887998386401	1
0	56127	11788.811538462712	0
0	56137	11791.184978550103	1
0	56138	11792.10327599747	0
0	56147	11793.432090811115	1
0	56148	11794.240848214271	0
0	56223	11810.328477109843	1
0	56225	11810.731366405957	2
0	56226	11810.751274476851	1
0	56233	11811.718760521988	0
0	56242	11812.940421814488	1
0	56243	11813.765133771299	0
0	56249	11813.977137001388	1
0	56252	11814.679132636356	0
0	56256	11814.942333481474	1
0	56257	11815.869903847574	0
0	56261	11816.079053236283	1
0	56264	11816.696062977145	0
0	56268	11817.100321693684	1
0	56269	11817.551990427634	0
0	56273	11818.145661712858	1
0	56274	11818.594723288341	0
0	56278	11819.280710627738	1
0	56279	11819.71472973069	0
0	56283	11820.857589201945	1
0	56284	11820.910592093783	0
0	56291	11822.219340561547	1
0	56292	11822.967296013514	0
0	56307	11826.418828467054	1
0	56310	11827.295812777708	0
0	56320	11829.20211342848	1
0	56323	11830.137834626621	0
0	56332	11831.803284816857	1
0	56333	11832.290125638245	0
0	56363	11839.071225342888	1
0	56365	11839.956221939522	2
0	56366	11840.122374835235	1
0	56371	11841.067741805126	0
0	56375	11841.471412986096	1
0	56376	11841.955195069124	0
0	56380	11842.345448641656	1
0	56381	11843.1453234449	0
0	56385	11843.2772320035	1
0	56386	11844.282994892073	0
0	56398	11846.581620851709	1
0	56400	11846.791956092905	2
0	56404	11847.299269181844	3
0	56405	11847.368747125004	2
0	56410	11848.348521444105	1
0	56413	11849.197625757378	0
0	56417	11849.628745618645	1
0	56419	11849.988313233369	2
0	56420	11850.123972647634	1
0	56423	11851.300880687401	0
0	56430	11853.275558435824	1
0	56431	11853.32838765876	0
0	56445	11856.61204715901	1
0	56446	11856.629281701423	0
0	56458	11859.377597905205	1
0	56461	11859.825073361579	0
0	56473	11862.106728517778	1
0	56476	11862.998286359474	0
0	56483	11864.33781969108	1
0	56486	11864.76753897145	0
0	56495	11866.620489284059	1
0	56496	11866.898617236778	0
0	56513	11870.869399906856	1
0	56514	11871.227852919228	0
0	56531	11874.755883632047	1
0	56532	11875.326771715838	0
0	56541	11876.390028398423	1
0	56543	11876.592907398167	2
0	56546	11877.024384609327	1
0	56549	11878.17608214039	0
0	56553	11878.540131675866	1
0	56554	11879.28625531755	0
0	56558	11879.891947111359	1
0	56559	11880.466762204371	0
0	56563	11880.679197762939	1
0	56565	11880.875360911395	2
0	56566	11881.604003249012	1
0	56569	11882.679885853171	0
0	56583	11885.100678892472	1
0	56585	11885.117459681478	2
0	56586	11885.737162193652	1
0	56591	11886.581174801659	0
0	56595	11886.627925024946	1
0	56596	11887.493185928367	0
0	56600	11887.531736780077	1
0	56601	11888.383440322239	0
0	56605	11889.287397188387	1
0	56606	11889.372706189375	0
0	56613	11891.068085292574	1
0	56614	11891.465823330633	0
0	56713	11912.422372722977	1
0	56714	11913.486038919906	0
0	56770	11926.294911078669	1
0	56771	11926.937078746961	0
0	56780	11928.07243129277	1
0	56783	11929.055843658181	0
0	56794	11931.117323860796	1
0	56795	11931.143113574752	0
0	56804	11932.887205514934	1
0	56807	11933.046159957623	0
0	56822	11936.237014110346	1
0	56824	11936.26073749821	2
0	56825	11937.123178978911	1
0	56828	11938.239610868687	0
0	56834	11938.434124289209	1
0	56839	11939.344699022075	0
0	56850	11940.837159818166	1
0	56852	11940.925703491961	2
0	56853	11941.493068894924	1
0	56858	11942.528421150607	0
0	56871	11945.959591083033	1
0	56873	11946.314905822265	2
0	56874	11946.670315530517	1
0	56877	11947.576849037868	0
0	56881	11947.791959712809	1
0	56884	11948.451723044173	0
0	56888	11949.257044754074	1
0	56889	11949.557720162899	0
0	56899	11951.749778369992	1
0	56900	11952.466243536577	0
0	56909	11953.822042368477	1
0	56912	11954.469935011577	0
0	56924	11956.286681198379	1
0	56925	11957.209109460741	0
0	56931	11957.446472025659	1
0	56932	11958.154597592439	0
0	56936	11958.321712990254	1
0	56937	11959.156545939382	0
0	56946	11960.747412544032	1
0	56947	11960.978072935429	0
0	56951	11961.468079747618	1
0	56954	11962.020313994393	0
0	56958	11962.063325508442	1
0	56959	11963.069090590898	0
0	56963	11963.623945121482	1
0	56964	11963.922954255894	0
0	56968	11964.119890575763	1
0	56969	11964.823851379093	0
0	56973	11965.075573772582	1
0	56974	11965.647525325503	0
0	56978	11966.084124937085	1
0	56979	11966.487317502864	0
0	56983	11966.507364393067	1
0	56984	11967.440630439103	0
0	56988	11968.103461569787	1
0	56991	11968.333290434156	0
0	56995	11968.872962636086	1
0	56996	11969.347353374672	0
0	57000	11969.357730674904	1
0	57001	11970.29194888714	0
0	57005	11970.89501940977	1
0	57006	11971.377370268379	0
0	57013	11972.767888515404	1
0	57015	11973.206437684956	2
0	57016	11973.437851185531	1
0	57020	11973.616684921424	2
0	57021	11974.30564944613	1
0	57024	11975.452955061376	0
0	57036	11978.161013508442	1
0	57037	11978.300805122678	0
0	57041	11978.725676648104	1
0	57042	11979.280868769617	0
0	57053	11980.89791828363	1
0	57055	11980.926230329507	2
0	57056	11981.362223842733	1
0	57061	11982.419576541979	0
0	57065	11982.437325477279	1
0	57066	11983.532710410275	0
0	57076	11985.815611202466	1
0	57081	11986.461699306213	0
0	57085	11987.495493396034	1
0	57086	11987.550226138991	0
0	57093	11989.403866985092	1
0	57094	11989.565545351331	0
0	57126	11995.935580686045	1
0	57127	11996.076473921437	0
0	57144	11999.606778664104	1
0	57147	12000.600374703847	0
0	57158	12002.462074748312	1
0	57163	12002.817094301332	0
0	57170	12004.192644056472	1
0	57175	12004.871446341641	0
0	57191	12007.541533433143	1
0	57192	12007.820311773747	0
0	57199	12009.003774920368	1
0	57200	12009.809983884256	0
0	57213	12011.239896740258	1
0	57214	12011.787479560815	0
0	57226	12014.295081414159	1
0	57229	12014.999240320448	0
0	57236	12016.064705013758	1
0	57239	12016.905532971297	0
0	57248	12018.356085945087	1
0	57249	12018.86606369586	0
0	57253	12019.456417546802	1
0	57254	12019.919130834744	0
0	57258	12020.046642924986	1
0	57261	12020.960372256946	0
0	57265	12021.003566224562	1
0	57266	12021.913546110776	0
0	57276	12023.855675972253	1
0	57277	12024.795928526197	0
0	57281	12024.886394614683	1
0	57283	12025.219899778772	2
0	57285	12025.668673010228	3
0	57288	12025.946638249878	2
0	57291	12026.877207165949	1
0	57296	12027.814211776473	0
0	57300	12028.752821995315	1
0	57301	12028.985545493469	0
0	57305	12029.29107013419	1
0	57306	12030.14763070307	0
0	57313	12031.539582188043	1
0	57314	12031.920469222957	0
0	57321	12033.325567302231	1
0	57323	12033.470531447938	2
0	57325	12033.53696893242	3
0	57326	12033.677492952899	2
0	57330	12034.412261609241	3
0	57331	12034.598321102646	2
0	57337	12035.283854559743	3
0	57339	12035.380241140331	4
0	57340	12035.757095160142	3
0	57345	12036.658257853978	2
0	57349	12036.886883314923	3
0	57351	12037.349666285127	4
0	57352	12037.555056071461	3
0	57356	12037.927769602397	4
0	57357	12038.452573839661	3
0	57361	12038.610696863111	4
0	57362	12039.596166115433	3
0	57365	12040.689520490441	2
0	57369	12041.03904634781	3
0	57370	12041.718656249616	2
0	57374	12041.84404394304	3
0	57376	12042.467514780895	4
0	57378	12042.62657192492	5
0	57379	12042.78566693756	4
0	57383	12043.362036916509	5
0	57384	12043.93419768614	4
0	57387	12045.039128186826	3
0	57391	12045.431011934174	4
0	57392	12045.863697675143	3
0	57396	12046.297115093605	4
0	57397	12046.950446936854	3
0	57400	12048.094979931314	2
0	57404	12048.456465709737	3
0	57406	12049.018950825499	4
0	57407	12049.205650652193	3
0	57410	12050.274274763737	2
0	57414	12050.541983558416	3
0	57416	12050.685686081798	4
0	57417	12051.177314835221	3
0	57421	12051.304930442109	4
0	57422	12052.157596539513	3
0	57426	12052.214376773687	4
0	57427	12052.973386165307	3
0	57431	12053.753922957367	4
0	57432	12054.123817361512	3
0	57435	12054.962668841046	2
0	57439	12054.966024532068	3
0	57441	12055.972628039541	4
0	57443	12056.008050168076	5
0	57444	12056.061796625231	4
0	57450	12056.811964876809	5
0	57452	12056.833334852863	6
0	57453	12057.085586932201	5
0	57457	12057.105250713183	6
0	57458	12058.27851376896	5
0	57462	12058.461763159814	6
0	57463	12059.458819395576	5
0	57467	12059.490392333077	6
0	57468	12060.337382345639	5
0	57472	12060.634482725146	6
0	57475	12061.421918009307	5
0	57479	12061.477121429123	6
0	57481	12062.220041570771	7
0	57482	12062.458992946047	6
0	57486	12063.143180818261	7
0	57487	12063.263358955916	6
0	57490	12064.249845778469	5
0	57494	12064.282261504207	6
0	57495	12065.136541882057	5
0	57499	12065.777003361771	6
0	57500	12066.154918363776	5
0	57503	12067.264277507823	4
0	57506	12068.42435393044	3
0	57510	12069.053321010354	4
0	57511	12069.411388103936	3
0	57515	12069.47461340359	4
0	57517	12069.782449441392	5
0	57518	12070.432431641027	4
0	57521	12071.466553723525	3
0	57524	12072.62586279194	2
0	57528	12073.277811778907	3
0	57529	12073.701757973611	2
0	57533	12074.274524127167	3
0	57534	12074.849638979222	2
0	57538	12075.188154894389	3
0	57540	12075.566154358747	4
0	57541	12076.011022561501	3
0	57545	12076.285248753926	4
0	57546	12076.936986426442	3
0	57549	12077.869439507268	2
0	57556	12078.833335697457	1
0	57560	12079.008019127743	2
0	57561	12079.864045522075	1
0	57565	12080.455447098432	2
0	57567	12080.673619826711	3
0	57568	12080.850280946579	2
0	57572	12081.149788430057	3
0	57574	12081.315806669748	4
0	57575	12081.89482845356	3
0	57579	12081.935429487148	4
0	57580	12083.02103670425	3
0	57583	12084.147874052722	2
0	57587	12084.771135924927	3
0	57588	12085.042994340409	2
0	57592	12085.796545842817	3
0	57593	12086.21733632385	2
0	57597	12086.857877124308	3
0	57598	12087.352251470454	2
0	57602	12087.893412024379	3
0	57603	12088.404827744227	2
0	57607	12088.757672058797	3
0	57608	12089.209097952016	2
0	57612	12089.680313741293	3
0	57613	12090.276911260739	2
0	57616	12091.346554553129	1
0	57620	12091.65279974866	2
0	57621	12092.426270034902	1
0	57625	12092.785044100518	2
0	57627	12092.894617071466	3
0	57628	12093.420766412366	2
0	57632	12094.068976460484	3
0	57633	12094.504329305135	2
0	57639	12095.30034046953	3
0	57641	12095.443719769172	4
0	57642	12095.551595333118	3
0	57646	12096.045775771744	4
0	57647	12096.432542579614	3
0	57651	12096.73411784534	4
0	57652	12097.317754835721	3
0	57656	12097.55740260616	4
0	57657	12098.451007968366	3
0	57661	12098.721165565252	4
0	57662	12099.380210196312	3
0	57666	12100.233098391529	4
0	57667	12100.400233937047	3
0	57671	12100.663387202797	4
0	57672	12101.403009281113	3
0	57675	12102.341613343909	2
0	57679	12102.73463388947	3
0	57680	12103.359109084859	2
0	57683	12104.361167400788	1
0	57686	12105.436999006655	0
0	57690	12105.499374389606	1
0	57692	12105.596195350711	2
0	57694	12105.85252928706	3
0	57697	12106.38681475063	2
0	57700	12107.210576381154	1
0	57704	12107.220677474751	2
0	57706	12107.34216032943	3
0	57707	12108.11030390653	2
0	57710	12109.130829420119	1
0	57713	12110.192150438941	0
0	57717	12110.243524198327	1
0	57721	12110.644587878364	2
0	57722	12111.026748382105	1
0	57726	12111.4629420134	2
0	57728	12111.869564021149	3
0	57729	12111.980918947692	2
0	57733	12112.46101873431	3
0	57734	12113.108293991714	2
0	57737	12114.233313153955	1
0	57740	12115.237046975541	0
0	57752	12117.507527794863	1
0	57753	12118.082440346285	0
0	57759	12118.476395596484	1
0	57761	12118.554056246674	2
0	57765	12118.838255740376	3
0	57766	12119.262512872919	2
0	57770	12120.04897305613	3
0	57772	12120.099178551066	4
0	57773	12120.279365371439	3
0	57776	12121.322939609635	2
0	57780	12122.010340851301	3
0	57781	12122.352957136921	2
0	57785	12122.759214997981	3
0	57786	12123.267997289441	2
0	57790	12124.098385543542	3
0	57791	12124.236775027673	2
0	57795	12124.655996324861	3
0	57796	12125.278652849413	2
0	57799	12126.304435112971	1
0	57803	12126.489276744505	2
0	57804	12127.345657846323	1
0	57807	12128.185742316293	0
0	57816	12129.831797234268	1
0	57817	12130.138965990386	0
0	57821	12130.489364373325	1
0	57822	12131.258735807325	0
0	57826	12131.347712817566	1
0	57828	12131.855772221193	2
0	57829	12132.074858035418	1
0	57833	12132.619700621907	2
0	57834	12133.232327979329	1
0	57838	12133.769141827487	2
0	57839	12134.160678754087	1
0	57843	12134.693570243372	2
0	57844	12135.150977997753	1
0	57848	12135.822799658405	2
0	57849	12136.212773386846	1
0	57853	12136.523497054596	2
0	57854	12137.087601347073	1
0	57862	12137.408518007858	2
0	57863	12137.978962388906	1
0	57866	12138.958587187521	0
0	57870	12139.146580532597	1
0	57872	12139.698766875487	2
0	57873	12140.151548405543	1
0	57877	12140.191914654554	2
0	57878	12141.044529519223	1
0	57882	12141.982834727469	2
0	57883	12142.212230570328	1
0	57887	12142.239532776019	2
0	57888	12143.306852137942	1
0	57892	12143.330489335593	2
0	57893	12144.165972051669	1
0	57896	12145.349206628643	0
0	57900	12146.422889875467	1
0	57901	12146.450150155176	0
0	57905	12146.45241959238	1
0	57908	12147.499299073119	0
0	57931	12152.777106809618	1
0	57934	12153.476074805663	0
0	57945	12154.557125434595	1
0	57947	12154.908461397743	2
0	57948	12155.292740157613	1
0	57951	12156.211836026417	0
0	57971	12159.890955355441	1
0	57972	12160.694609561651	0
0	57988	12163.22336413248	1
0	57989	12163.412950602076	0
0	57998	12164.722324460418	1
0	57999	12165.374521443429	0
0	58010	12166.556582414411	1
0	58011	12167.329337548553	0
0	58020	12168.858602027478	1
0	58021	12169.57864796435	0
0	58028	12171.244973895629	1
0	58029	12171.874900529342	0
0	58036	12173.07387683406	1
0	58039	12174.009728199424	0
0	58048	12175.501918091633	1
0	58049	12176.015965811157	0
0	58058	12177.478128765495	1
0	58059	12178.041804402688	0
0	58068	12179.68255395115	1
0	58069	12180.110061905155	0
0	58081	12182.307002729896	1
0	58082	12183.274037549546	0
0	58097	12187.429867251184	1
0	58098	12187.565625933367	0
0	58107	12188.616909176261	1
0	58112	12189.557537267167	0
0	58137	12194.748135659004	1
0	58138	12195.591620263267	0
0	58152	12198.216641234604	1
0	58153	12198.821579788808	0
0	58165	12201.499357911384	1
0	58166	12201.55113104302	0
0	58175	12202.682920367275	1
0	58176	12203.585409193761	0
0	58183	12204.466061406356	1
0	58185	12205.177602352996	2
0	58186	12205.310541646643	1
0	58189	12206.463795786532	0
0	58201	12208.446386573851	1
0	58202	12209.370915561351	0
0	58206	12209.535405964747	1
0	58208	12210.208748421155	2
0	58209	12210.423320886395	1
0	58216	12211.610514173652	0
0	58220	12211.657247088008	1
0	58221	12212.53612137455	0
0	58227	12213.143550073521	1
0	58228	12213.477423339891	0
0	58234	12213.750841536542	1
0	58235	12214.301374519425	0
0	58239	12215.088370916062	1
0	58240	12215.401248542959	0
0	58244	12215.939146837116	1
0	58245	12216.479919815337	0
0	58249	12217.230274381604	1
0	58250	12217.647015045484	0
0	58260	12219.886834728318	1
0	58261	12220.503955309739	0
0	58265	12220.621638113386	1
0	58267	12220.691151107925	2
0	58270	12221.672018625674	1
0	58277	12222.824894792115	0
0	58281	12223.071168531676	1
0	58283	12223.586214894886	2
0	58284	12223.711964589258	1
0	58288	12223.798891513165	2
0	58289	12224.545794657332	1
0	58292	12225.39593505719	0
0	58299	12226.750122844121	1
0	58300	12227.463598634203	0
0	58350	12237.592317719957	1
0	58355	12238.463122314302	0
0	58369	12240.56830078109	1
0	58371	12241.243778133101	2
0	58372	12241.470262227015	1
0	58376	12241.897947619052	2
0	58379	12242.417064422549	1
0	58385	12242.80819655479	2
0	58388	12243.387208602199	1
0	58392	12243.931270697607	2
0	58393	12244.540306853404	1
0	58397	12244.963773481275	2
0	58398	12245.431201442698	1
0	58402	12245.50323373953	2
0	58403	12246.375160864735	1
0	58407	12247.040138366993	2
0	58408	12247.530376763543	1
0	58412	12248.352770748987	2
0	58413	12248.704527671164	1
0	58417	12249.431730225433	2
0	58418	12249.888518676249	1
0	58422	12250.311844419388	2
0	58423	12250.946800688089	1
0	58426	12252.036478402459	0
0	58433	12253.346545189652	1
0	58434	12254.06688253199	0
0	58438	12254.321112898114	1
0	58439	12255.061218882345	0
0	58451	12257.996943630599	1
0	58452	12258.077426603708	0
0	58458	12259.098587593976	1
0	58459	12259.112310421831	0
0	58463	12259.277214628572	1
0	58466	12260.079150263025	0
0	58473	12261.634629999213	1
0	58475	12262.069165662301	2
0	58476	12262.316660681916	1
0	58480	12262.566328163932	2
0	58482	12262.990741684315	3
0	58483	12263.174974322682	2
0	58486	12264.366502094632	1
0	58490	12264.859782023785	2
0	58492	12264.973261043444	3
0	58493	12265.243001469681	2
0	58497	12265.335655555844	3
0	58498	12266.331598489629	2
0	58502	12266.56933921645	3
0	58503	12267.3659207696	2
0	58507	12267.56001806495	3
0	58508	12268.23928687497	2
0	58511	12269.355762802055	1
0	58515	12269.853647312094	2
0	58517	12270.122624680601	3
0	58518	12270.191874844944	2
0	58521	12271.011957621286	1
0	58524	12271.856979920054	0
0	58528	12272.101119441597	1
0	58530	12272.471833578495	2
0	58531	12272.962523644315	1
0	58535	12273.224528779329	2
0	58536	12274.032914626961	1
0	58540	12274.150143024999	2
0	58542	12274.381277118695	3
0	58543	12275.13280244003	2
0	58546	12276.12226323028	1
0	58550	12276.762571110738	2
0	58551	12277.023936022249	1
0	58554	12277.945950264008	0
0	58561	12279.017772282791	1
0	58562	12279.976404747636	0
0	58573	12282.081598689467	1
0	58575	12282.159314483647	2
0	58576	12282.193097914279	1
0	58581	12283.137914623496	0
[...]
9	136600	27940.56967488029	3
9	136602	27940.865872832307	2
9	136610	27942.497792388824	3
9	136612	27942.596979803718	2
9	136624	27944.735746331186	3
9	136626	27945.279513767965	2
9	136635	27947.443134620458	3
9	136637	27947.59767336242	2
9	136644	27948.306549303744	3
9	136646	27948.353389648823	2
9	136655	27949.706395555554	1
9	136660	27950.173757013111	0
9	136710	27960.591054170716	1
9	136713	27961.614849211879	2
9	136717	27962.513705227797	1
9	136722	27962.638666078416	0
9	136741	27967.735858909271	1
9	136743	27968.821115982548	0
9	136746	27968.851912903178	1
9	136748	27969.321839246746	0
9	136751	27969.884544353511	1
9	136755	27970.367490552938	0
9	136758	27970.716100670442	1
9	136760	27971.005176957998	0
9	136813	27981.821059046731	1
9	136815	27981.84738112854	0
9	136843	27987.862503322913	1
9	136852	27989.510228800947	0
9	136857	27990.158455234254	1
9	136864	27991.370785774556	0
9	137013	28021.385813415381	1
9	137017	28021.795489036517	0
9	137742	28161.582790476127	1
9	137752	28163.805137722937	0
9	137755	28164.451908035154	1
9	137759	28165.157527653858	0
9	137762	28165.514413496523	1
9	137769	28166.901457683847	0
9	137772	28167.447627541746	1
9	137779	28168.848711070221	0
9	137782	28169.548678585931	1
9	137791	28172.331242959897	2
9	137794	28173.476345962702	3
9	137796	28173.691498422867	2
9	137799	28174.332777893773	3
9	137802	28175.252733945518	4
9	137804	28175.278805552637	3
9	137806	28176.09930070795	2
9	137809	28176.172789793319	3
9	137811	28176.925696216942	2
9	137817	28178.27401566277	3
9	137820	28179.10920398128	4
9	137822	28179.668161188345	3
9	137828	28181.035125448879	4
9	137830	28181.139049886228	3
9	137833	28182.223817616932	4
9	137835	28182.35258199258	3
9	137841	28184.072685379673	4
9	137843	28184.447997610585	3
9	137846	28185.13326444649	4
9	137849	28186.038465061922	5
9	137851	28186.082581646398	4
9	137853	28186.332659792281	3
9	137855	28186.391552264723	2
9	137859	28186.630621229098	1
9	137861	28186.808041969057	0
9	137864	28187.015812571019	1
9	137866	28187.105045311705	0
9	137874	28189.060487585559	1
9	137877	28190.199280493844	2
9	137879	28190.709765129393	1
9	137882	28191.314225675955	2
9	137884	28191.855498450958	1
9	137887	28192.140349054846	2
9	137889	28192.68713465438	1
9	137892	28193.094881505284	2
9	137894	28193.102398312245	1
9	137899	28194.241745080005	2
9	137902	28195.158008504144	3
9	137911	28198.24574384107	4
9	137913	28198.327135230136	3
9	137916	28199.270499951716	4
9	137921	28200.149798093967	5
9	137923	28200.752652063856	4
9	137928	28201.286827867802	5
9	137930	28201.651022598066	4
9	137932	28202.048746865178	3
9	137934	28202.210748644977	2
9	137939	28203.025346827822	1
9	137942	28203.412868923366	2
9	137944	28204.004048710439	1
9	137951	28204.90862427728	0
9	137999	28214.585344962076	1
9	138001	28214.86198713475	0
9	138030	28221.104262163443	1
9	138035	28222.592198623542	0
9	138038	28223.356221168255	1
9	138043	28224.455431345151	2
9	138051	28226.517893689917	3
9	138056	28228.014106799415	2
9	138059	28228.472823043027	3
9	138061	28228.548439370885	2
9	138063	28229.2196605971	1
9	138066	28229.413444076431	2
9	138074	28232.100124986788	1
9	138076	28232.328894516147	0
9	138079	28232.702361039863	1
9	138081	28232.785298389586	0
9	138084	28233.867742625949	1
9	138086	28234.542814264091	0
9	138094	28236.101105728047	1
9	138096	28236.25778033411	0
9	138114	28239.555901230825	1
9	138116	28239.645512780347	0
9	138139	28244.538233343372	1
9	138141	28244.621227845769	0
9	138144	28245.460802737856	1
9	138146	28245.517730369766	0
9	138171	28250.836516833259	1
9	138178	28252.070311902571	0
9	138183	28253.103409142467	1
9	138188	28254.176059528995	0
9	138203	28256.804134845501	1
9	138208	28257.763975394607	0
9	138384	28295.632504772347	1
9	138387	28296.52746482971	2
9	138390	28297.539125558872	3
9	138392	28298.045350222334	2
9	138394	28298.449446264436	1
9	138399	28298.715863845635	0
9	138562	28329.401150907246	1
9	138564	28329.585963375287	0
9	138569	28330.280987421745	1
9	138577	28330.804739601767	0
9	138633	28342.59495787243	1
9	138638	28344.359038207346	0
9	138641	28344.835012270273	1
9	138643	28345.505317540652	0
9	138646	28345.775079712221	1
9	138648	28346.398104793284	0
9	138651	28346.578055457813	1
9	138653	28346.776508960288	0
9	138668	28349.697856102182	1
9	138672	28350.675164213901	0
9	138680	28351.80481953085	1
9	138682	28352.404929439084	0
9	138688	28353.798117732485	1
9	138691	28354.751484476351	2
9	138693	28355.608539480637	1
9	138700	28356.239811826259	0
9	138703	28357.02155071762	1
9	138707	28357.925677302225	0
9	138727	28361.14408049327	1
9	138729	28361.950914296915	0
9	138772	28369.969130612953	1
9	138784	28373.007007885634	0
9	138834	28381.988804556193	1
9	138839	28383.485117393573	0
9	138842	28384.046126828013	1
9	138844	28384.551740981583	0
9	138956	28406.117476851071	1
9	138963	28407.59097821349	0
9	138966	28407.920611117079	1
9	138973	28409.188723732434	0
9	139079	28430.879624938544	1
9	139082	28431.732659915786	2
9	139085	28432.546378507323	3
9	139087	28432.901787156688	2
9	139090	28433.576913422297	3
9	139093	28434.764486350536	4
9	139096	28435.572208353921	5
9	139102	28437.405474419843	6
9	139104	28438.315569038417	5
9	139107	28438.527620586611	6
9	139109	28438.864716244185	5
9	139111	28439.54876547327	4
9	139114	28439.670385472148	5
9	139117	28440.783349548976	6
9	139119	28441.266479833796	5
9	139122	28441.749864894196	6
9	139124	28442.119926605848	5
9	139126	28442.207299116199	4
9	139129	28442.858587843783	5
9	139131	28443.221799003995	4
9	139134	28444.013119307298	5
9	139136	28444.856305433524	4
9	139138	28444.949389157208	3
9	139143	28445.060196997549	4
9	139145	28445.517182373128	3
9	139148	28446.088173486989	4
9	139151	28447.075285127897	5
9	139154	28447.889093497534	6
9	139158	28448.545912678006	5
9	139161	28448.788442871486	6
9	139166	28449.851823738543	7
9	139174	28451.820855769046	6
9	139176	28451.930483966315	5
9	139178	28452.200963451347	4
9	139180	28452.289613945217	3
9	139182	28452.385479579265	2
9	139185	28452.543455991289	3
9	139188	28453.591697194754	4
9	139192	28453.892268964911	3
9	139194	28454.400460498564	2
9	139197	28454.778650583281	3
9	139202	28455.762606983692	2
9	139204	28455.824505230163	1
9	139207	28456.845525077312	2
9	139209	28456.925110851508	1
9	139211	28457.42117537824	0
9	139230	28461.498077079049	1
9	139235	28462.644886006555	2
9	139237	28463.157825106076	1
9	139240	28463.683691061987	2
9	139242	28464.28920828929	1
9	139245	28464.803505566018	2
9	139247	28465.917559158429	1
9	139257	28467.958631057896	0
9	139260	28468.069314744184	1
9	139266	28468.992161844793	0
9	139269	28469.152152015222	1
9	139271	28469.4860137354	0
9	139277	28470.973229521653	1
9	139279	28471.403540983222	0
9	139282	28472.032294901228	1
9	139285	28473.21654048157	2
9	139287	28473.349739075976	1
9	139289	28474.119259668599	0
9	139292	28474.143473254098	1
9	139294	28474.311797059917	0
9	139299	28475.079025746836	1
9	139301	28475.180178728456	0
9	139304	28476.122145963601	1
9	139306	28476.13779746892	0
9	139309	28476.929580966617	1
9	139311	28477.582996246064	0
9	139314	28478.060779703549	1
9	139317	28479.255314745243	2
9	139319	28479.858616401314	1
9	139324	28480.163358568933	0
9	139327	28480.931770926576	1
9	139329	28480.945500044298	0
9	139406	28497.5635225466	1
9	139410	28498.325810595322	0
9	139413	28498.610264978326	1
9	139429	28501.342851021368	0
9	139518	28519.867328761193	1
9	139522	28520.055890819443	0
9	140504	28713.861438681043	1
9	140506	28714.409841988589	0
9	140938	28799.420677013827	1
9	140940	28800.175303259467	0
9	140948	28801.375635710025	1
9	140953	28802.6251161479	0
9	141002	28811.547451223658	1
9	141004	28811.556732800548	0
9	141125	28836.670251194426	1
9	141127	28837.107212887609	0
9	141130	28837.701120763031	1
9	141133	28838.808680641876	2
9	141142	28839.646030877476	3
9	141144	28839.752123181648	2
9	141146	28840.442851545862	1
9	141153	28841.454359791747	0
9	141322	28875.785237892846	1
9	141324	28875.803878916929	0
9	141373	28886.76225935094	1
9	141379	28888.483934128228	2
9	141381	28888.653735738847	1
9	141383	28889.013101886986	0
9	141401	28892.021404926795	1
9	141405	28892.906685889436	0
9	141408	28893.123529288489	1
9	141410	28893.900844818027	0
9	141542	28920.496143143475	1
9	141544	28921.115187874061	0
9	141547	28921.506798725612	1
9	141552	28922.612124724816	2
9	141554	28923.355806811126	1
9	141560	28924.358415038361	2
9	141562	28924.709946504661	1
9	141569	28925.301735324262	2
9	141571	28925.443648283846	1
9	141580	28926.953486525439	0
9	141583	28927.191191333568	1
9	141585	28927.794144497309	0
9	141599	28931.133734719957	1
9	141601	28931.221423107253	0
9	141691	28948.554226029423	1
9	141693	28949.101744944351	0
9	141709	28952.276291743146	1
9	141711	28952.770012589138	0
9	141719	28954.121626135653	1
9	141721	28954.499025905543	0
9	141793	28969.28776172506	1
9	141796	28970.377863711438	2
9	141800	28970.71590705167	1
9	141805	28971.368338654603	2
9	141807	28971.504116258092	1
9	141812	28972.675529255545	0
9	141820	28974.207234015263	1
9	141836	28977.000355362538	0
9	141859	28981.447567620635	1
9	141864	28982.249811043352	2
9	141866	28982.671123427385	1
9	141871	28983.96926394384	0
9	141874	28984.167089913361	1
9	141878	28984.475105696937	0
9	141978	29004.422911884864	1
9	141983	29005.568510044929	0
9	142196	29047.063374314409	1
9	142198	29047.234671896388	0
9	142249	29057.851688985105	1
9	142251	29058.081974854766	0
9	142332	29075.023999544744	1
9	142334	29075.766252808597	0
9	142438	29097.209869441808	1
9	142443	29098.414817333313	0
9	142448	29099.070419378252	1
9	142450	29099.676141472661	0
9	142468	29102.876568154292	1
9	142470	29103.20922918465	0
9	142473	29103.941161574842	1
9	142477	29104.834336266248	0
9	142480	29105.035011525498	1
9	142487	29106.789999757729	0
9	142497	29107.74523443547	1
9	142499	29107.780974935226	0
9	142602	29129.039716312798	1
9	142612	29131.305370841491	0
9	142668	29143.17061182302	1
9	142673	29144.506628457573	0
9	142676	29145.369471676596	1
9	142678	29145.392881776507	0
9	142785	29167.072067031867	1
9	142793	29169.15846412419	2
9	142798	29170.226293713177	3
9	142807	29171.830383679545	2
9	142809	29172.175334155821	1
9	142812	29172.271006123113	2
9	142820	29174.446833606325	1
9	142831	29175.577680615938	2
9	142836	29176.62406022524	1
9	142841	29178.467802045535	0
9	142969	29204.071006951152	1
9	142971	29204.418168547759	0
9	143126	29235.321271076093	1
9	143130	29235.741844693519	0
9	143287	29266.739886316232	1
9	143292	29267.74069662005	2
9	143300	29268.283650210038	1
9	143307	29269.365717485256	0
9	143367	29282.580641793594	1
9	143369	29282.671959694169	0
9	143414	29293.619118239306	1
9	143416	29294.367723510781	0
9	143419	29294.563176692318	1
9	143422	29295.685745131638	2
9	143425	29296.859590355907	3
9	143430	29298.036789280124	4
9	143432	29298.838674684806	3
9	143438	29299.921249708853	4
9	143440	29300.774486247203	3
9	143443	29300.903182695288	4
9	143446	29301.850828778226	5
9	143451	29303.013171715703	6
9	143456	29304.475315717444	5
9	143459	29305.022595828626	6
9	143461	29305.146404725532	5
9	143467	29307.139956812508	6
9	143469	29307.204181501974	5
9	143471	29307.992745255158	4
9	143474	29308.31477699377	5
9	143476	29309.031413771789	4
9	143479	29309.485639658984	5
9	143481	29310.15283310288	4
9	143484	29310.432388861705	5
9	143486	29310.78698957055	4
9	143489	29311.336762701109	5
9	143491	29311.86045910643	4
9	143493	29311.999131963719	3
9	143498	29313.187597975955	2
9	143501	29313.574553120456	3
9	143504	29314.375854931626	4
9	143506	29315.182308400417	3
9	143512	29316.374015911336	4
9	143514	29316.431967312737	3
9	143516	29316.441811637388	2
9	143519	29317.295705510995	3
9	143521	29318.228994049366	2
9	143526	29318.476284508366	1
9	143529	29319.493165872099	2
9	143531	29319.54067216209	1
9	143534	29320.316252250357	2
9	143536	29320.512115822552	1
9	143538	29320.528400738824	0
9	143543	29321.330579194187	1
9	143546	29322.407565114501	2
9	143548	29322.82025347363	1
9	143550	29323.341504187964	0
9	143556	29324.59911796138	1
9	143559	29325.432913071796	2
9	143561	29325.940793445096	1
9	143564	29326.235929626174	2
9	143566	29327.234379462764	1
9	143569	29327.332910505537	2
9	143572	29328.319764725439	3
9	143574	29329.029839711268	2
9	143580	29330.546049839205	3
9	143582	29331.261336080857	2
9	143585	29331.377445897966	3
9	143588	29332.491543475672	4
9	143591	29333.388285500317	5
9	143593	29333.902859932497	4
9	143598	29335.317294306494	3
9	143601	29335.55235006478	4
9	143604	29336.740809057973	5
9	143607	29337.863443439588	6
9	143610	29338.843034743372	7
9	143612	29339.709262956322	6
9	143615	29340.006753484666	7
9	143618	29340.880127376172	8
9	143621	29341.764910072874	9
9	143624	29342.584215810936	10
9	143626	29342.878319229004	9
9	143629	29343.46516814059	10
9	143631	29343.471079319371	9
9	143634	29344.286312115699	10
9	143636	29345.38993122096	9
9	143639	29345.424561739474	10
9	143642	29346.352282550226	11
9	143645	29347.501187862589	12
9	143648	29348.349745825811	13
9	143651	29349.396883004757	14
9	143656	29350.270673528446	15
9	143662	29352.367109697445	16
9	143664	29352.652544789212	15
9	143666	29353.003964368522	14
9	143669	29353.274912013898	15
9	143673	29353.650254501543	14
9	143675	29353.793299618272	13
9	143678	29354.157224421429	14
9	143680	29354.310118193188	13
9	143685	29355.825861052161	12
9	143687	29356.144714026806	11
9	143689	29356.195205638467	10
9	143694	29357.243999477591	9
9	143699	29357.62071565757	8
9	143701	29357.768872761215	7
9	143704	29358.274996057193	8
9	143706	29358.695137177584	7
9	143711	29359.621923194332	6
9	143716	29360.055315802007	7
9	143718	29360.732874422825	6
9	143723	29361.644689642246	5
9	143726	29362.207222813036	6
9	143729	29363.018636998016	7
9	143731	29363.113939291631	6
9	143736	29363.83179170852	5
9	143739	29364.734335286769	6
9	143742	29365.732951108872	7
9	143745	29366.75130987516	8
9	143747	29367.419600948174	7
9	143749	29367.782716972605	6
9	143752	29367.814141017146	7
9	143755	29368.64390098438	8
9	143757	29369.038391283881	7
9	143760	29369.780833291955	8
9	143765	29371.36196052473	7
9	143767	29371.558423831984	6
9	143770	29371.919034094777	7
9	143772	29372.346183501011	6
9	143775	29373.117160442513	7
9	143780	29374.421429497179	6
9	143782	29374.665758414293	5
9	143784	29374.840178731872	4
9	143787	29375.196745388344	5
9	143790	29376.19606808307	6
9	143795	29377.202444125566	7
9	143800	29378.914648686345	6
9	143802	29379.106619442566	5
9	143805	29379.311770707782	6
9	143808	29380.215120993688	7
9	143810	29380.246069847144	6
9	143812	29380.442237571592	5
9	143819	29381.087804085126	4
9	143827	29383.172882930785	3
9	143829	29383.196594479044	2
9	143834	29383.944227927684	3
9	143838	29384.221907001171	2
9	143843	29385.526362159103	1
9	143848	29386.212349332444	2
9	143850	29386.492596401028	1
9	143852	29387.110020091036	0
9	143998	29416.143902986446	1
9	144001	29417.323439218333	2
9	144007	29418.314829484391	1
9	144010	29418.489253045568	2
9	144014	29418.972879844545	1
9	144019	29419.962254337968	0
9	144033	29423.16232715896	1
9	144038	29424.006549267142	2
9	144042	29424.691292209873	1
9	144047	29424.928528328815	0
9	144057	29427.007232455673	1
9	144059	29427.477756765191	0
9	144611	29538.349098918539	1
9	144615	29538.605765538491	0
9	144640	29543.304877862287	1
9	144644	29544.247693443855	0
9	144830	29582.212504498709	1
9	144836	29582.753791423777	0
9	144839	29583.234263768282	1
9	144843	29583.565283013159	0
9	144954	29606.566814148008	1
9	144956	29606.743477528893	0
9	145017	29619.411207017443	1
9	145027	29622.149321220134	0
9	145030	29622.447872339236	1
9	145032	29622.737246558272	0
9	145038	29624.479498784198	1
9	145043	29625.454062098312	2
9	145050	29626.390828445039	1
9	145052	29626.508131525029	0
9	145057	29627.266276694137	1
9	145059	29627.687711745138	0
9	145065	29629.131412936143	1
9	145067	29629.359564705763	0
9	145070	29630.072174659885	1
9	145072	29630.144446374978	0
9	145079	29630.974392105314	1
9	145081	29631.511232595095	0
9	145095	29635.056584874402	1
9	145101	29637.253518888681	2
9	145104	29638.43040366429	3
9	145106	29638.695612623647	2
9	145108	29639.237936904076	1
9	145111	29639.284096998955	2
9	145113	29639.748687739087	1
9	145116	29640.411473929929	2
9	145120	29641.475952630803	1
9	145128	29642.853455261338	0
9	145131	29643.36614562613	1
9	145134	29644.240837101127	2
9	145137	29645.305632894906	3
9	145142	29646.519858928754	2
9	145144	29646.816083199903	1
9	145146	29647.226527083828	0
9	145149	29647.448789148918	1
9	145151	29648.363196665495	0
9	145169	29651.83265705374	1
9	145172	29652.730229754978	2
9	145177	29653.569570726947	3
9	145179	29653.829802470064	2
9	145187	29655.859411188261	3
9	145192	29657.671521404349	2
9	145195	29657.965242994436	3
9	145199	29657.980550025079	2
9	145202	29658.79252766515	3
9	145217	29662.23068161006	4
9	145219	29662.286167743351	3
9	145226	29663.363834802909	2
9	145230	29663.637377951867	1
9	145237	29664.493181147602	0
9	145240	29665.358273085905	1
9	145242	29665.877098655346	0
9	145270	29670.938342300383	1
9	145272	29671.056534817824	0
9	145293	29676.342520230402	1
9	145300	29677.256157308901	0
9	145366	29690.704014939581	1
9	145369	29691.59580155569	2
9	145373	29692.527730081159	1
9	145376	29692.706420389049	2
9	145382	29694.731884385691	3
9	145384	29694.81985616809	2
9	145386	29695.545646039475	1
9	145389	29695.782963777007	2
9	145391	29696.283205030127	1
9	145395	29696.522927811009	0
9	145398	29696.926979379309	1
9	145400	29697.197482657654	0
9	145403	29697.903975526662	1
9	145405	29697.999073656953	0
9	145537	29724.538753158924	1
9	145545	29726.46138422559	2
9	145553	29728.433448785776	3
9	145555	29728.91830568557	2
9	145559	29729.189109493979	1
9	145568	29730.118721001771	0
9	145722	29764.435068402485	1
9	145724	29764.553849826911	0
9	145747	29769.186683104699	1
9	145750	29770.26438515461	2
9	145753	29771.11006642119	3
9	145755	29771.806036494674	2
9	145758	29772.020960465399	3
9	145760	29772.154609275706	2
9	145763	29772.995213727792	3
9	145765	29773.346769822278	2
9	145768	29773.903716216748	3
9	145771	29774.988326771603	4
9	145776	29776.184836136502	5
9	145778	29776.374588881129	4
9	145781	29777.030425028828	5
9	145783	29777.681194143523	4
9	145788	29778.372106299736	3
9	145790	29779.315561340764	2
9	145793	29779.372519177151	3
9	145796	29780.556318207783	4
9	145798	29781.236277308066	3
9	145800	29781.646463102654	2
9	145803	29781.711799515923	3
9	145806	29782.603964812727	4
9	145808	29783.349837139708	3
9	145811	29783.634535576728	4
9	145813	29783.857970065357	3
9	145818	29784.956902255068	2
9	145823	29785.66821368006	3
9	145825	29786.404397858352	2
9	145828	29786.770326556498	3
9	145830	29787.226623704444	2
9	145832	29787.295081498065	1
9	145835	29787.600252000382	2
9	145837	29788.228656442606	1
9	145842	29788.732523188111	0
9	145894	29801.232392408093	1
9	145896	29802.134073852317	0
9	145901	29802.350168907688	1
9	145903	29802.661551649341	0
9	145921	29805.687797088688	1
9	145923	29806.673311813859	0
9	145926	29806.795228701038	1
9	145931	29807.838126388052	2
9	145935	29808.180763868132	1
9	145945	29810.236511766496	0
9	146196	29861.706414366558	1
9	146209	29865.032249465163	2
9	146211	29865.394186280154	1
9	146227	29868.620994183465	2
9	146232	29869.637588748456	1
9	146236	29870.167182776702	0
9	146244	29871.47055521798	1
9	146246	29871.909933149292	0
9	146254	29873.301902118648	1
9	146261	29874.987398880735	0
9	146280	29879.078878511997	1
9	146284	29879.568729154815	0
9	146289	29880.149139173092	1
9	146291	29880.634312197322	0
9	146386	29898.928475828977	1
9	146388	29899.059978471978	0
9	146442	29910.221597341864	1
9	146444	29910.822387582367	0
9	146447	29911.182727596114	1
9	146449	29911.527527206901	0
9	146452	29912.234535273208	1
9	146455	29913.237533866285	2
9	146460	29914.107688884015	3
9	146462	29914.454681076988	2
9	146469	29915.521936596896	1
9	146471	29915.83481631507	0
9	146533	29927.077147914608	1
9	146535	29927.494193750215	0
9	146572	29935.875926064745	1
9	146574	29936.497626668235	0
9	146577	29936.738755581201	1
9	146579	29937.252331769483	0

