version 2
run Second_exit_9-12-20191017-13:44:12-1988
attr configname Second_exit_9
attr datetime 20191017-13:44:12
attr experiment Second_exit_9
attr inifile omnetpp.ini
attr iterationvars ""
attr iterationvarsf ""
attr measurement ""
attr network ResponseTimeNetwork
attr processid 1988
attr repetition 12
attr replication #12
attr resultdir results
attr runnumber 12
attr seedset 12
param **.Source.interArrivalTime exponential(5s)
param **.jobPriority bernoulli(0.6)
param **.PS.serviceTimeU1 "uniform(0.8s, 1.2s)"
param **.PS.serviceTimeU2 "uniform(1.8s, 2.2s)"
param **.SS1.serviceTime exponential(1s)
param **.SS2.serviceTime exponential(1.2s)
param **.PS.exitProbability bernoulli(0.9)

vector 0 ResponseTimeNetwork.SS1 queueLength:vector ETV
attr interpolationmode sample-hold
attr title "queue length, vector"
vector 1 ResponseTimeNetwork.SS2 queueLength:vector ETV
attr interpolationmode sample-hold
attr title "queue length, vector"
vector 2 ResponseTimeNetwork.QueueU1 queueLength:vector ETV
attr interpolationmode sample-hold
attr title "queue length, vector"
vector 3 ResponseTimeNetwork.QueueU2 queueLength:vector ETV
attr interpolationmode sample-hold
attr title "queue length, vector"
vector 4 ResponseTimeNetwork.sink lifeTimeU2:vector ETV
attr interpolationmode none
attr title "lifetime of arrived jobs U2, vector"
attr unit s
vector 5 ResponseTimeNetwork.sink lifeTime:vector ETV
attr interpolationmode none
attr title "lifetime of arrived jobs, vector"
attr unit s
vector 6 ResponseTimeNetwork.sink lifeTimeU1:vector ETV
attr interpolationmode none
attr title "lifetime of arrived jobs U1, vector"
attr unit s
2	0	0	0
2	15	3.792096783956	1
2	16	4.066282652154	0
2	45	30.786504073658	1
2	47	31.587194509038	2
2	48	31.783685509286	1
2	51	32.966777002796	0
2	55	33.245281821431	1
2	56	33.949197371289	0
2	60	34.691582911202	1
2	61	34.757521290596	0
2	70	36.56014527826	1
2	71	37.231326876647	0
2	75	37.773965659116	1
2	76	38.23130491187	0
2	80	38.411166972177	1
2	81	39.357772231448	0
2	85	39.403703336123	1
2	86	40.215491723429	0
2	90	40.724681893709	1
2	92	40.904248878971	2
2	93	41.296540665414	1
2	96	42.230399677969	0
2	100	43.308148389297	1
2	101	43.421622909393	0
2	105	43.477368321507	1
2	107	43.553590770927	2
2	108	44.616247367926	1
2	112	45.012351108969	2
2	113	45.746251068611	1
2	117	45.800828395597	2
2	119	46.401047156343	3
2	120	46.714940841098	2
2	124	47.226819724142	3
2	125	47.830711429634	2
2	128	49.001407843337	1
2	132	49.314169495702	2
2	133	50.186446606063	1
2	137	50.729881977313	2
2	138	51.281471892421	1
2	141	52.266731442393	0
2	150	54.55181057826	1
2	151	54.953672217362	0
2	155	55.118925898299	1
2	156	55.787381284934	0
2	170	58.487480833956	1
2	172	58.757134113042	2
2	173	59.377496026424	1
2	177	59.735255498913	2
2	179	60.072037788641	3
2	180	60.386794454851	2
2	184	60.436214505272	3
2	185	61.206229841676	2
2	189	62.053285796072	3
2	190	62.32763650265	2
2	194	62.448225404979	3
2	195	63.405047486596	2
2	198	64.461718722772	1
2	201	65.458813645378	0
2	205	65.811202058445	1
2	206	66.46143607615	0
2	210	66.680532333541	1
2	211	67.386948732813	0
2	220	68.931883307806	1
2	222	68.994966737442	2
2	223	69.406808552393	1
2	227	69.648983180442	2
2	229	69.88280919396	3
2	230	70.427603558325	2
2	233	71.532219525673	1
2	238	72.481815945883	0
2	244	73.250486063622	1
2	246	73.320444629442	2
2	247	73.499141787053	1
2	251	74.334859617154	2
2	252	74.644127851413	1
2	256	75.162080409093	2
2	257	75.583866377795	1
2	261	75.751998033732	2
2	263	76.08298595628	3
2	264	76.651849430768	2
2	267	77.621951973779	1
2	271	78.099101810531	2
2	272	78.550986266849	1
2	276	78.722453597774	2
2	278	78.935878916054	3
2	279	79.592316999627	2
2	283	80.445174049551	3
2	284	80.537064805595	2
2	287	81.698147617994	1
2	291	82.012137822852	2
2	292	82.773718686836	1
2	296	82.777012067869	2
2	299	83.851988299439	1
2	302	84.671018790422	0
2	306	85.054641336562	1
2	307	85.728189249491	0
2	314	87.587977768572	1
2	315	87.692517944021	0
2	324	89.10674493287	1
2	325	89.751189782625	0
2	342	93.295491312774	1
2	345	93.712704497916	0
2	351	94.567306153315	1
2	353	94.68389488413	2
2	354	94.866775577856	1
2	357	95.699717111388	0
2	361	95.910783706682	1
2	363	96.316997820484	2
2	364	96.768169976087	1
2	367	97.808553781235	0
2	371	98.275382724594	1
2	373	98.488218055668	2
2	374	98.629769379055	1
2	378	99.144919579482	2
2	379	99.72899032856	1
2	383	100.264666289509	2
2	385	100.265004823494	3
2	386	100.630513607493	2
2	390	100.999966585316	3
2	391	101.492286451036	2
2	395	101.675557210599	3
2	396	102.661226691367	2
2	400	103.299477967845	3
2	402	103.38886753171	4
2	403	103.664854271306	3
2	407	104.376747504787	4
2	409	104.474347254674	5
2	410	104.607031441169	4
2	413	105.532377006268	3
2	417	105.988528746832	4
2	419	105.99902201337	5
2	420	106.36517292854	4
2	426	106.948621164049	5
2	429	107.298076523902	4
2	433	107.327933610972	5
2	435	107.612255292077	6
2	436	108.447509546453	5
2	439	109.315468851352	4
2	443	110.051622641764	5
2	444	110.242192010177	4
2	448	111.081455244082	5
2	450	111.085759355488	6
2	451	111.407330397764	5
2	455	111.756674045606	6
2	456	112.369512153385	5
2	460	112.784406610029	6
2	461	113.360855236897	5
2	465	113.816481467791	6
2	466	114.424592576051	5
2	470	114.519336185742	6
2	471	115.224761469351	5
2	475	115.669935762817	6
2	477	115.89205825389	7
2	479	116.069478105602	8
2	480	116.281340507014	7
2	484	116.540807244594	8
2	485	117.476791651702	7
2	488	118.662658171045	6
2	492	118.856463496797	7
2	493	119.734807242794	6
2	497	119.807484024528	7
2	498	120.782164326744	6
2	501	121.977177858787	5
2	505	122.280037691624	6
2	506	123.021329597632	5
2	510	123.783672736899	6
2	512	124.086603244283	7
2	513	124.201282430223	6
2	516	125.047764724183	5
2	520	125.300566378603	6
2	522	125.422872991337	7
2	523	125.946405317324	6
2	527	125.965771973811	7
2	529	126.21970651061	8
2	531	126.32004659819	9
2	532	126.999217935993	8
2	536	127.494021291296	9
2	537	127.921717527943	8
2	543	128.01384956368	9
2	547	128.543258504347	10
2	548	129.110247646427	9
2	551	129.976039631633	8
2	554	130.928896938139	7
2	557	131.828537711935	6
2	560	132.708088202091	5
2	564	132.959479136545	6
2	566	133.786724735944	7
2	567	133.882354493128	6
2	571	134.050986099579	7
2	573	134.450868347045	8
2	575	134.807397660765	9
2	577	134.920510207726	10
2	578	135.044512840981	9
2	581	136.096452834333	8
2	585	136.982071670865	9
2	586	137.206965365695	8
2	589	138.262530593077	7
2	593	139.237754313326	8
2	594	139.393250585409	7
2	598	139.431973154117	8
2	600	139.984463370515	9
2	601	140.339739037646	8
2	604	141.257814587062	7
2	607	142.202806906091	6
2	611	142.39140524219	7
2	612	143.236102860389	6
2	616	143.502870536695	7
2	618	143.722061701245	8
2	619	144.351933317413	7
2	622	145.208556683329	6
2	625	146.019071491682	5
2	628	147.117648595353	4
2	632	147.716790364025	5
2	633	148.164283826636	4
2	637	148.243758376835	5
2	639	148.981699335839	6
2	640	149.101786929244	5
2	644	149.372609506347	6
2	646	149.709051980018	7
2	647	150.16922857842	6
2	650	151.200515449108	5
2	654	151.571948271179	6
2	655	152.085593887107	5
2	659	152.448593057022	6
2	660	152.94716132904	5
2	664	153.942787286919	6
2	665	154.057850083584	5
2	668	155.132426632164	4
2	672	155.211114019442	5
2	674	155.900028211299	6
2	675	156.038478475777	5
2	678	156.971109686853	4
2	682	157.847922335705	5
2	683	157.964881590163	4
2	687	158.636704857527	5
2	689	158.981619126463	6
2	690	159.039328284995	5
2	694	159.337855450546	6
2	695	159.925471414966	5
2	699	160.818276222753	6
2	700	161.024307667991	5
2	705	161.840998049794	4
2	709	162.313711310545	5
2	710	162.692275290439	4
2	715	163.763647222394	3
2	718	164.634006417511	2
2	722	165.024771174575	3
2	723	165.505131697902	2
2	727	165.627942142175	3
2	729	165.769603988639	4
2	730	166.375026851674	3
2	734	166.55675036962	4
2	736	166.644967353016	5
2	737	167.458134986428	4
2	741	168.053980147591	5
2	742	168.478314886676	4
2	746	168.506124716125	5
2	748	168.924222496291	6
2	750	169.036747127477	7
2	751	169.411739353431	6
2	755	169.82279034076	7
2	756	170.293239776572	6
2	760	170.555195740878	7
2	762	171.092043979274	8
2	763	171.138288689373	7
2	767	171.753548294701	8
2	768	172.310884040469	7
2	772	172.720955978622	8
2	774	172.919885061264	9
2	776	173.296039871111	10
2	777	173.509747773191	9
2	780	174.57404195719	8
2	784	174.933322072012	9
2	786	175.362312712238	10
2	788	175.494567385127	11
2	789	175.619416004387	10
2	793	176.052573343466	11
2	795	176.414814435789	12
2	796	176.701400716757	11
2	800	177.145291145253	12
2	801	177.59017018505	11
2	805	177.847491556747	12
2	806	178.785084903674	11
2	810	178.90162295731	12
2	812	179.618535093694	13
2	813	179.876854951275	12
2	817	180.262190985349	13
2	818	180.734626884074	12
2	822	181.302699541251	13
2	823	181.549803373278	12
2	827	181.718235380136	13
2	828	182.646914995336	12
2	832	183.178784396197	13
2	835	183.755039879927	12
2	838	184.694037553263	11
2	842	184.948405386263	12
2	844	184.951452929504	13
2	845	185.758522903328	12
2	848	186.651713280161	11
2	852	186.999212321833	12
2	854	187.192582041275	13
2	855	187.620103190341	12
2	859	188.419159596521	13
2	860	188.662241301932	12
2	863	189.705713503682	11
2	867	189.745997543698	12
2	870	190.571471717083	11
2	874	191.281218694676	12
2	875	191.442944230293	11
2	879	191.93380960605	12
2	880	192.341301846285	11
2	883	193.173648294867	10
2	887	193.720782232923	11
2	888	194.146965550692	10
2	891	195.169106964176	9
2	895	195.3835038041	10
2	896	196.118202140336	9
2	899	196.923747173292	8
2	903	197.376781026633	9
2	905	197.638570651767	10
2	906	197.753384459266	9
2	910	198.110040539686	10
2	911	198.653129869761	9
2	915	199.371847896655	10
2	916	199.720955463653	9
2	920	199.82260013952	10
2	921	200.777617663672	9
2	925	201.552203770821	10
2	927	201.752477190639	11
2	928	201.926470992962	10
2	931	202.79489328141	9
2	935	203.109653854958	10
2	936	203.805466386924	9
2	940	203.988814749355	10
2	942	204.598014449756	11
2	943	204.791307748264	10
2	947	204.915151367826	11
2	948	205.957649243033	10
2	951	207.092303201339	9
2	955	207.914817332808	10
2	956	208.25723596743	9
2	960	208.294226104349	10
2	961	209.371041302724	9
2	964	210.376917425698	8
2	970	210.612054662028	9
2	972	210.719206992892	10
2	973	211.487603910702	9
2	977	212.147699936862	10
2	979	212.255678954357	11
2	981	212.361182956311	12
2	982	212.458627254392	11
2	986	212.975870299063	12
2	988	213.170148393131	13
2	989	213.264665710337	12
2	992	214.202877005625	11
2	995	215.051465690571	10
2	999	215.101469125463	11
2	1001	215.999523997869	12
2	1002	216.094535590305	11
2	1005	217.122138275827	10
2	1009	217.858433499771	11
2	1010	218.070997550866	10
2	1013	218.881704363848	9
2	1016	220.03781269022	8
2	1020	220.041861581462	9
2	1022	220.05447573762	10
2	1023	220.903532082464	9
2	1026	221.861402689542	8
2	1030	222.491165367437	9
2	1032	222.711878237919	10
2	1033	222.999142927273	9
2	1037	223.142257889341	10
2	1038	223.836841112437	9
2	1041	224.654720609511	8
2	1044	225.579060164994	7
2	1048	225.839324391761	8
2	1049	226.543693592275	7
2	1052	227.451934743455	6
2	1056	228.026619931887	7
2	1057	228.29482183416	6
2	1060	229.147377638394	5
2	1064	229.166816294304	6
2	1065	230.149423542121	5
2	1069	230.171533170748	6
2	1070	231.093598697768	5
2	1074	231.380281740844	6
2	1076	231.664265198241	7
2	1078	231.933189199974	8
2	1079	232.255631882665	7
2	1082	233.220096011427	6
2	1086	233.704600307514	7
2	1088	233.898758433848	8
2	1091	234.056061847289	7
2	1094	235.118524083556	6
2	1097	236.2895305921	5
2	1100	237.462739639883	4
2	1104	237.577192669871	5
2	1105	238.614042273411	4
2	1110	239.474355186117	3
2	1113	240.430769537822	2
2	1119	240.832088066735	3
2	1121	241.302528892887	4
2	1122	241.426232956969	3
2	1125	242.330092639909	2
2	1129	242.725264497721	3
2	1130	243.425571500943	2
2	1134	244.156950434153	3
2	1135	244.474186778781	2
2	1138	245.648122128253	1
2	1142	246.566355843146	2
2	1143	246.740850424734	1
2	1148	247.830334659447	0
2	1152	248.619531778319	1
2	1153	248.801272700881	0
2	1160	250.037778861314	1
2	1161	250.742262609085	0
2	1170	251.932668312147	1
2	1172	252.886650946695	2
2	1173	252.940187285343	1
2	1178	253.82354002629	0
2	1182	253.999059780857	1
2	1184	254.089228223893	2
2	1185	254.710055318163	1
2	1189	254.913456821059	2
2	1190	255.551290248861	1
2	1193	256.46623738349	0
2	1197	256.882165542212	1
2	1198	257.325666642809	0
2	1202	257.547765781587	1
2	1204	257.676053224725	2
2	1205	258.507960369779	1
2	1209	258.929766184961	2
2	1210	259.354058501186	1
2	1213	260.394212470638	0
2	1220	261.843518995948	1
2	1221	262.411367585759	0
2	1230	264.372417113378	1
2	1231	264.387612320918	0
2	1240	265.540615721177	1
2	1242	266.059861069949	2
2	1243	266.263364976894	1
2	1247	266.44946906868	2
2	1249	266.783347885019	3
2	1250	267.393559216864	2
2	1255	268.417704237688	1
2	1259	268.476212846683	2
2	1261	269.195290335743	3
2	1262	269.441580093622	2
2	1265	270.323793941799	1
2	1269	271.147307543433	2
2	1270	271.410090308792	1
2	1274	272.235994266196	2
2	1276	272.363005840808	3
2	1277	272.526325822777	2
2	1281	272.622315769621	3
2	1283	273.291243022508	4
2	1284	273.48083791767	3
2	1289	274.537474494583	2
2	1292	275.50179204202	1
2	1296	275.954229163566	2
2	1297	276.324069731559	1
2	1300	277.224571559082	0
2	1304	277.631601162347	1
2	1306	277.717796622152	2
2	1308	277.89905516622	3
2	1309	278.281024186283	2
2	1312	279.360445992712	1
2	1315	280.270478018995	0
2	1322	281.257233783878	1
2	1324	281.898744119819	2
2	1325	281.968129396036	1
2	1328	282.836408915993	0
2	1332	282.909822154228	1
2	1334	283.283130271068	2
2	1335	283.83955600743	1
2	1339	284.197374729888	2
2	1341	284.487010999212	3
2	1342	284.654453594115	2
2	1347	285.567089703929	1
2	1351	286.17732426008	2
2	1352	286.737210140441	1
2	1356	286.738305825349	2
2	1359	287.753534459386	1
2	1363	288.288614365497	2
2	1364	288.674759639118	1
2	1367	289.625630960304	0
2	1371	290.061427049934	1
2	1373	290.561074530823	2
2	1374	290.603063476987	1
2	1378	291.345577171979	2
2	1379	291.571446746372	1
2	1383	291.981640999002	2
2	1384	292.585819595743	1
2	1388	293.163836464573	2
2	1390	293.394511473918	3
2	1391	293.704986666299	2
2	1395	294.019195458297	3
2	1396	294.864951547112	2
2	1399	295.985730246983	1
2	1402	296.956859809037	0
2	1406	297.573137655157	1
2	1407	297.810061673883	0
2	1411	298.819956038591	1
2	1412	298.866860480856	0
2	1416	299.462889512987	1
2	1417	299.824622410785	0
2	1421	300.201841976883	1
2	1423	300.705987105424	2
2	1424	300.769635430973	1
2	1427	301.892879280511	0
2	1431	302.349125262386	1
2	1432	302.908013356354	0
2	1439	303.967788703362	1
2	1440	304.66799902438	0
2	1444	305.039726962254	1
2	1446	305.12895124737	2
2	1448	305.137100543878	3
2	1449	305.605938063905	2
2	1453	306.110572541455	3
2	1456	306.647581741836	2
2	1460	307.01770373446	3
2	1462	307.271694784838	4
2	1463	307.531004404061	3
2	1467	307.678967583825	4
2	1469	308.622007001586	5
2	1470	308.694259418052	4
2	1474	309.067533847678	5
2	1476	309.086354891265	6
2	1477	309.542875011329	5
2	1481	309.6620721865	6
2	1483	310.092129337893	7
2	1485	310.516511005834	8
2	1486	310.662167198554	7
2	1490	310.883896713063	8
2	1492	311.005053347085	9
2	1493	311.849536202167	8
2	1496	312.687770536513	7
2	1499	313.498770198383	6
2	1503	313.940347329539	7
2	1504	314.619445443683	6
2	1508	315.021340219432	7
2	1510	315.252374815579	8
2	1511	315.573578408238	7
2	1515	315.732540787766	8
2	1517	316.044328797642	9
2	1518	316.552892743487	8
2	1522	316.706477332076	9
2	1523	317.60001518593	8
2	1527	318.049143590527	9
2	1530	318.444729485054	8
2	1534	319.172264688657	9
2	1535	319.405345617205	8
2	1539	319.539428570866	9
2	1540	320.285008607403	8
2	1544	320.705018587999	9
2	1545	321.378508258023	8
2	1549	321.718854102598	9
2	1550	322.297336720367	8
2	1554	323.324751468574	9
2	1555	323.37259589198	8
2	1558	324.205736200017	7
2	1562	324.656429452847	8
2	1564	325.018355350491	9
2	1565	325.221384143335	8
2	1569	326.130081693779	9
2	1570	326.402181299933	8
2	1574	326.46116518303	9
2	1575	327.473909908318	8
2	1579	328.005717953012	9
2	1581	328.43126606052	10
2	1582	328.556125958421	9
2	1586	328.853393899638	10
2	1587	329.394698222977	9
2	1591	329.485464871972	10
2	1592	330.249506606691	9
2	1596	330.990063925221	10
2	1597	331.129177578882	9
2	1600	332.151485872705	8
2	1604	332.54083198575	9
2	1605	333.25182765561	8
2	1608	334.387254438147	7
2	1612	335.330797609861	8
2	1613	335.485634804022	7
2	1617	335.994631890934	8
2	1618	336.614782827039	7
2	1621	337.482206354634	6
2	1625	338.240076331447	7
2	1627	338.379322655143	8
2	1628	338.634300001123	7
2	1632	338.882928817424	8
2	1633	339.455261699081	7
2	1637	339.663759506006	8
2	1638	340.476217466377	7
2	1641	341.519905127462	6
2	1644	342.594246928923	5
2	1648	342.649765108279	6
2	1650	343.04920152974	7
2	1651	343.41618236319	6
2	1654	344.491297731053	5
2	1658	344.671007031461	6
2	1659	345.579305607516	5
2	1663	346.427888907024	6
2	1664	346.616043080825	5
2	1668	347.206981497377	6
2	1669	347.68097772083	5
2	1673	347.850090332641	6
2	1674	348.783637570373	5
2	1678	348.839999240135	6
2	1679	349.701746441952	5
2	1683	350.010346421917	6
2	1685	350.646358845519	7
2	1686	350.748839099488	6
2	1690	350.942906998587	7
2	1692	351.484530200514	8
2	1693	351.948735871414	7
2	1696	352.93904061128	6
2	1700	353.445564190273	7
2	1702	353.906284398764	8
2	1703	354.1385255356	7
2	1707	354.422821720166	8
2	1709	354.696963630696	9
2	1710	355.112497641487	8
2	1714	355.863148537927	9
2	1715	356.018154305747	8
2	1719	356.521961314904	9
2	1720	357.050238925467	8
2	1724	357.6361602428	9
2	1725	357.947376849564	8
2	1728	358.764707119359	7
2	1732	359.594158459507	8
2	1733	359.736708669799	7
2	1737	360.063805170764	8
2	1739	360.214882260363	9
2	1740	360.593992653737	8
2	1743	361.670807352165	7
2	1747	362.448755404488	8
2	1748	362.673829581091	7
2	1752	363.044747495621	8
2	1754	363.118552419781	9
2	1755	363.807890656279	8
2	1759	364.158887566229	9
2	1761	364.337110199795	10
2	1762	364.766987298024	9
2	1766	365.371232408056	10
2	1768	365.508495594442	11
2	1770	365.765700893904	12
2	1771	365.937983019338	11
2	1774	367.096797064845	10
2	1778	367.391174640201	11
2	1779	368.186912597497	10
2	1783	368.840558464062	11
2	1784	369.046065978673	10
2	1788	369.72684326039	11
2	1789	369.961592032262	10
2	1792	370.839720568866	9
2	1795	371.93109522412	8
2	1798	372.922160926707	7
2	1802	373.528625122761	8
2	1803	373.744861083537	7
2	1807	374.272665543134	8
2	1811	374.579329971704	9
2	1812	374.788108892239	8
2	1816	375.179928961	9
2	1817	375.648721137516	8
2	1820	376.680237549696	7
2	1824	377.336222399884	8
2	1826	377.360818900739	9
2	1827	377.871847264528	8
2	1831	378.226906064996	9
2	1832	378.856640479028	8
2	1836	379.76066631523	9
2	1837	379.947335005052	8
2	1841	380.536593665428	9
2	1842	380.915128565639	8
2	1846	380.963439638253	9
2	1849	381.912173879578	8
2	1853	382.35295903243	9
2	1854	382.887789011899	8
2	1858	383.394980033919	9
2	1859	383.742966210249	8
2	1862	384.654011932354	7
2	1866	384.847435096137	8
2	1868	385.303651831101	9
2	1869	385.698568804994	8
2	1872	386.6211346571	7
2	1876	387.288060055244	8
2	1878	387.4400424321	9
2	1879	387.714897941951	8
2	1882	388.770253096767	7
2	1886	388.806372345481	8
2	1888	388.873326242284	9
2	1889	389.934564234004	8
2	1893	390.268057936868	9
2	1894	391.031881860983	8
2	1900	392.006760200158	9
2	1902	392.073915739071	10
2	1903	392.10668150444	9
2	1907	392.242177046637	10
2	1908	392.929404646125	9
2	1911	393.785967630301	8
2	1915	394.059065625259	9
2	1916	394.870924061317	8
2	1919	396.051859438479	7
2	1922	397.237214702427	6
2	1926	397.412434851721	7
2	1928	397.459737074891	8
2	1929	398.210988436978	7
2	1933	398.494016909182	8
2	1935	398.713894849409	9
2	1936	399.042409122236	8
2	1939	400.133048676666	7
2	1943	400.896368163585	8
2	1944	401.061757491123	7
2	1948	401.107863171904	8
2	1949	402.047497190408	7
2	1955	402.26090123352	8
2	1957	402.580061749767	9
2	1958	402.86551301774	8
2	1961	403.770207784198	7
2	1964	404.732465119719	6
2	1968	404.926142905148	7
2	1969	405.660679948203	6
2	1972	406.480726406689	5
2	1976	407.090130090618	6
2	1978	407.117810790683	7
2	1979	407.480002332072	6
2	1983	407.661281637028	7
2	1984	408.552841354407	6
2	1988	409.430785152628	7
2	1989	409.481702557172	6
2	1993	410.351056050022	7
2	1994	410.485748081527	6
2	1998	411.480977249764	7
2	2000	411.581787000745	8
2	2001	411.682818323153	7
2	2004	412.711286826677	6
2	2008	413.695831076342	7
2	2009	413.821847944766	6
2	2013	414.18457416048	7
2	2015	414.599941959213	8
2	2016	414.852497137397	7
2	2019	415.929693671002	6
2	2023	416.134235629676	7
2	2025	416.589670797883	8
2	2026	416.82698611921	7
2	2029	417.846688790399	6
2	2033	418.610362673055	7
2	2034	418.710713782407	6
2	2038	419.238022601776	7
2	2039	419.813914087101	6
2	2042	420.848695842142	5
2	2046	421.358036994669	6
2	2048	421.379028367026	7
2	2049	421.986141633953	6
2	2052	423.130502779561	5
2	2056	423.300345523488	6
2	2057	423.964464429359	5
2	2061	424.766766078324	6
2	2062	424.923670921068	5
2	2066	425.215004862415	6
2	2069	426.009284880723	5
2	2073	426.329389119575	6
2	2075	426.604671135137	7
2	2077	426.913204696003	8
2	2078	427.031708460453	7
2	2084	427.122531606441	8
2	2086	428.069470640071	9
2	2087	428.073505353241	8
2	2090	429.014212450537	7
2	2094	429.256690589137	8
2	2095	429.814221766836	7
2	2099	430.050614577256	8
2	2102	430.7830015157	7
2	2106	431.520432301619	8
2	2109	431.835345882329	7
2	2112	432.838626082486	6
2	2115	433.968992632872	5
2	2119	434.246854317467	6
2	2120	434.855261719099	5
2	2123	436.039666884544	4
2	2126	436.859833535517	3
2	2130	436.904860359166	4
2	2132	437.333149933219	5
2	2136	437.492686623767	6
2	2137	438.038656271773	5
2	2140	439.175398381765	4
2	2144	439.241353264487	5
2	2146	439.473174855147	6
2	2147	440.074635425362	5
2	2150	440.87634600323	4
2	2153	441.839119006659	3
2	2156	442.771112100839	2
2	2160	443.478952045482	3
2	2161	443.952829376108	2
2	2165	444.72374525539	3
2	2167	444.866099545651	4
2	2168	445.050413657784	3
2	2172	445.08615580902	4
2	2174	445.113131466265	5
2	2175	446.050229024946	4
2	2179	446.855452328473	5
2	2180	447.225440903905	4
2	2184	447.275797254682	5
2	2188	447.792573135228	6
2	2189	448.31645131117	5
2	2193	449.000151837042	6
2	2194	449.348614715471	5
2	2198	450.347021636553	6
2	2199	450.347777692287	5
2	2203	450.696155031922	6
2	2205	451.014951505223	7
2	2206	451.346554517246	6
2	2210	451.658734754899	7
2	2211	452.25130264439	6
2	2214	453.297644684895	5
2	2218	454.233712807437	6
2	2219	454.429818392045	5
2	2223	454.473151825665	6
2	2225	454.477861125588	7
2	2227	454.708885765983	8
2	2229	454.976275980863	9
2	2230	455.493346163037	8
2	2234	455.790423768875	9
2	2235	456.654911439272	8
2	2239	457.592283918628	9
2	2240	457.849621098733	8
2	2244	458.04664936807	9
2	2246	458.2042046302	10
2	2248	458.255436704551	11
2	2249	458.696805670357	10
2	2252	459.679343326728	9
2	2256	459.960417827092	10
2	2257	460.634490791581	9
2	2261	460.902594382636	10
2	2263	461.16160907358	11
2	2264	461.547350683122	10
2	2271	462.516986791662	9
2	2275	462.925260438927	10
2	2277	463.244439566193	11
2	2278	463.334802571463	10
2	2281	464.481738470553	9
2	2285	465.064006174028	10
2	2286	465.40941627227	9
2	2292	466.487282780077	10
2	2293	466.535372655338	9
2	2297	466.887817336066	10
2	2299	467.063543925238	11
2	2300	467.688144514861	10
2	2304	467.730541952443	11
2	2307	468.699859343062	10
2	2310	469.612903465203	9
2	2313	470.496317085589	8
2	2316	471.456648280809	7
2	2320	472.030282170987	8
2	2321	472.441958050581	7
2	2324	473.344892074785	6
2	2328	474.105827166997	7
2	2329	474.457427396777	6
2	2333	474.845391919497	7
2	2335	475.177001521587	8
2	2336	475.651907490066	7
2	2340	476.013464628098	8
2	2342	476.102475689092	9
2	2344	476.105313845094	10
2	2345	476.594257179706	9
2	2349	476.826720616042	10
2	2351	477.088004473869	11
2	2352	477.650060190691	10
2	2356	477.970022706701	11
2	2357	478.814997303265	10
2	2360	480.000540002773	9
2	2364	480.212716972084	10
2	2366	480.457515814806	11
2	2367	480.944009460474	10
2	2370	482.048649159505	9
2	2374	482.467002271719	10
2	2378	483.146944804739	11
2	2379	483.220333394653	10
2	2383	483.762252851089	11
2	2384	484.400542246516	10
2	2388	484.494023870319	11
2	2391	485.216135841481	10
2	2395	486.176959994691	11
2	2396	486.203383941263	10
2	2399	487.083691419534	9
2	2402	488.102522495914	8
2	2406	488.380637499023	9
2	2408	488.473301147007	10
2	2409	489.144278205618	9
2	2413	489.239927470679	10
2	2415	489.835951610068	11
2	2416	490.153788646929	10
2	2419	491.267314473413	9
2	2422	492.255550587796	8
2	2426	492.412491103725	9
2	2428	492.670877939246	10
2	2430	492.74672938381	11
2	2431	493.115005777091	10
2	2434	494.167028051954	9
2	2437	494.986745983981	8
2	2440	496.059692312651	7
2	2444	496.655537072801	8
2	2445	497.00465459485	7
2	2450	498.037941614133	6
2	2453	499.166587656145	5
2	2456	500.343246725728	4
2	2460	500.497900329624	5
2	2462	500.704258265704	6
2	2464	501.231753927936	7
2	2465	501.43838558706	6
2	2468	502.257979277861	5
2	2471	503.311658810326	4
2	2475	503.56126323949	5
2	2476	504.265616646283	4
2	2480	504.856016875621	5
2	2481	505.100470768162	4
2	2484	506.061770041254	3
2	2488	506.458044825255	4
2	2490	506.530489362953	5
2	2491	507.081608034731	4
2	2495	507.40893621105	5
2	2497	507.98769248266	6
2	2498	508.218035840583	5
2	2502	508.344152479896	6
2	2504	508.363468370084	7
2	2506	509.268674005767	8
2	2507	509.339984740564	7
2	2511	509.618980858316	8
2	2514	510.477123502144	7
2	2518	510.566863713113	8
2	2520	510.950341826967	9
2	2521	511.426801094846	8
2	2525	511.727518843881	9
2	2527	511.903065798915	10
2	2528	512.345598847666	9
2	2532	513.06423389664	10
2	2533	513.483235344445	9
2	2537	513.610255657124	10
2	2538	514.502473561247	9
2	2542	515.28311305977	10
2	2544	515.367941339351	11
2	2546	515.481990179904	12
2	2547	515.536012142585	11
2	2551	516.110610314101	12
2	2552	516.494854754364	11
2	2556	516.575438306008	12
2	2557	517.69348384949	11
2	2560	518.83176485865	10
2	2563	519.712669715067	9
2	2567	520.181924196088	10
2	2568	520.712323008166	9
2	2572	520.980125033006	10
2	2573	521.80539779306	9
2	2576	522.987206802765	8
2	2579	523.821061537197	7
2	2582	524.730671754168	6
2	2585	525.820841686768	5
2	2588	526.623711216511	4
2	2591	527.709715277856	3
2	2595	528.261862489415	4
2	2596	528.522195751561	3
2	2600	528.890710934735	4
2	2601	529.432909220984	3
2	2605	530.135629419775	4
2	2606	530.609937033398	3
2	2609	531.625689646849	2
2	2612	532.551601008946	1
2	2616	533.054036545422	2
2	2617	533.711589027816	1
2	2621	533.86965956287	2
2	2623	534.783973589363	3
2	2624	534.867068906841	2
2	2627	535.959374681548	1
2	2631	536.849781786896	2
2	2632	537.030951891062	1
2	2636	537.471862567677	2
2	2637	538.228630167865	1
2	2640	539.330519877993	0
2	2644	539.352650929838	1
2	2645	540.212449189801	0
2	2657	542.657362766679	1
2	2660	543.298164287269	0
2	2666	544.262738893452	1
2	2667	544.30764331926	0
2	2671	544.512493267896	1
2	2673	545.142353233631	2
2	2674	545.160363592919	1
2	2677	545.974359872252	0
2	2681	546.237571926837	1
2	2683	546.451257917649	2
2	2684	546.957961685177	1
2	2687	547.816841696449	0
2	2691	548.514349167319	1
2	2693	548.577269517109	2
2	2694	548.993930442039	1
2	2698	549.561648871474	2
2	2700	549.661686729208	3
2	2702	549.717744180146	4
2	2704	549.811183429221	5
2	2707	550.121819526576	4
2	2712	551.206004243497	3
2	2716	551.790804035633	4
2	2717	552.324061741088	3
2	2721	552.441337904961	4
2	2723	552.614114819228	5
2	2724	553.30386998557	4
2	2728	553.597347822228	5
2	2730	554.13648286679	6
2	2732	554.314933973455	7
2	2733	554.476771132056	6
2	2737	555.370847750528	7
2	2738	555.515414576572	6
2	2742	556.437212408631	7
2	2743	556.452439847462	6
2	2747	556.52687358368	7
2	2749	557.329845082077	8
2	2750	557.500426254761	7
2	2756	557.979052640951	8
2	2757	558.490452858028	7
2	2761	559.047385443819	8
2	2762	559.418714941633	7
2	2766	560.024006034775	8
2	2767	560.583199384217	7
2	2770	561.685331500568	6
2	2774	561.879451633817	7
2	2776	561.881835035042	8
2	2778	562.280432423584	9
2	2779	562.525805378393	8
2	2783	562.852244560728	9
2	2784	563.398739663572	8
2	2788	564.124772093353	9
2	2789	564.22375542481	8
2	2793	564.989607862898	9
2	2794	565.165513091968	8
2	2798	565.45538469725	9
2	2800	566.028878692896	10
2	2801	566.031808454977	9
2	2804	566.844755121475	8
2	2808	567.835446896087	9
2	2809	567.989791709898	8
2	2813	568.206080497895	9
2	2814	568.984934382109	8
2	2818	569.719928280409	9
2	2819	569.947641685294	8
2	2824	570.749120886872	7
2	2827	571.610971609472	6
2	2831	572.446144370189	7
2	2834	572.598015280596	6
2	2838	572.84405730342	7
2	2840	573.07937006705	8
2	2842	573.178814659133	9
2	2844	573.465727786655	10
2	2845	573.6894903897	9
2	2848	574.68937633733	8
2	2851	575.538742368917	7
2	2855	575.735867617478	8
2	2857	576.500063995928	9
2	2858	576.672884164254	8
2	2862	576.702678593115	9
2	2863	577.737213594622	8
2	2867	577.97261164354	9
2	2868	578.796934636372	8
2	2872	579.910834010758	9
2	2873	579.922465569123	8
2	2877	580.799198027494	9
2	2878	581.115909610379	8
2	2882	581.716537806	9
2	2883	581.993215241346	8
2	2887	582.794871954446	9
2	2889	582.798865607962	10
2	2890	582.974385631706	9
2	2893	584.055248837236	8
2	2899	584.510190473995	9
2	2901	584.607284206662	10
2	2902	585.070628463633	9
2	2905	586.099669140175	8
2	2911	586.969554729711	9
2	2912	587.049697890382	8
2	2915	588.075719909619	7
2	2918	588.894224541045	6
2	2922	589.345801790963	7
2	2924	589.577297202613	8
2	2925	590.077407606754	7
2	2931	590.329999503799	8
2	2932	591.085406104166	7
2	2936	592.044862973022	8
2	2937	592.084850429807	7
2	2941	592.774911577399	8
2	2943	592.869856625096	9
2	2944	593.024284205835	8
2	2948	593.443778642837	9
2	2950	593.702203687548	10
2	2952	593.82142900893	11
2	2953	594.073631201561	10
2	2956	594.977295880362	9
2	2960	595.521433716299	10
2	2961	595.840922322094	9
2	2965	596.448567558936	10
2	2966	596.699017586622	9
2	2969	597.83067643062	8
2	2973	598.413626806543	9
2	2975	598.48531198869	10
2	2977	598.507789895949	11
2	2978	598.641588815458	10
2	2982	598.741190495013	11
2	2983	599.530349960893	10
2	2986	600.437682099424	9
2	2990	600.728628985278	10
2	2991	601.276395027216	9
2	2994	602.247302893239	8
2	2998	602.997313802781	9
2	2999	603.155101235273	8
2	3003	603.537363765619	9
2	3005	603.899695186307	10
2	3006	604.026180436617	9
2	3010	604.280964273045	10
2	3012	604.833305360914	11
2	3013	605.157968972406	10
2	3017	605.170776044884	11
2	3018	606.018825919336	10
2	3022	606.485752257857	11
2	3024	606.677069912945	12
2	3025	607.014902517075	11
2	3029	607.889639054784	12
2	3030	608.119084296158	11
2	3034	608.323686706415	12
2	3036	608.92369444327	13
2	3037	608.928439526136	12
2	3040	609.778073422487	11
2	3043	610.964801047619	10
2	3047	611.194325053585	11
2	3048	612.088950240396	10
2	3053	613.243556784716	9
2	3057	613.479401318417	10
2	3059	613.617207727842	11
2	3061	613.620847390082	12
2	3063	614.223505867151	13
2	3064	614.393157562957	12
2	3068	614.488305629345	13
2	3070	614.697756145461	14
2	3072	615.201356086589	15
2	3073	615.268282690243	14
2	3076	616.118053809525	13
2	3080	617.231231701253	14
2	3081	617.261485731946	13
2	3085	617.418446320456	14
2	3086	618.14770408214	13
2	3089	619.25771376972	12
2	3093	619.355642644533	13
2	3094	620.124566232943	12
2	3098	620.595613786557	13
2	3099	620.970663118986	12
2	3102	621.966015268834	11
2	3106	622.288126117955	12
2	3107	622.970033530583	11
2	3111	623.984100124111	12
2	3112	623.991739849531	11
2	3115	624.795904565667	10
2	3119	625.077601781046	11
2	3121	625.43867399019	12
2	3122	625.943211855431	11
2	3125	626.828809405927	10
2	3129	626.876937519951	11
2	3131	627.640730161452	12
2	3132	627.905575373367	11
2	3136	628.642792048695	12
2	3137	628.938001358387	11
2	3140	629.78822483315	10
2	3144	629.858108353814	11
2	3146	630.022530361922	12
2	3147	630.636257338122	11
2	3153	631.316275887813	12
2	3154	631.514506804355	11
2	3157	632.520358954341	10
2	3160	633.368536318158	9
2	3164	633.563200925388	10
2	3165	634.387678710808	9
2	3169	634.74871609946	10
2	3170	635.233277773642	9
2	3174	635.826685456103	10
2	3175	636.32839397394	9
2	3179	636.986803397637	10
2	3180	637.341356333596	9
2	3183	638.504274131981	8
2	3187	639.236054750229	9
2	3188	639.342041059927	8
2	3192	640.43768252157	9
2	3193	640.510251407017	8
2	3199	640.761939308014	9
2	3201	640.932519574036	10
2	3202	641.570197802008	9
2	3205	642.65758768578	8
2	3208	643.649198259757	7
2	3211	644.843544536614	6
2	3215	645.11212336122	7
2	3217	645.609528152729	8
2	3218	645.920726157976	7
2	3222	646.283205580019	8
2	3223	646.823247502995	7
2	3226	647.719887365	6
2	3230	648.104830320218	7
2	3231	648.700278106676	6
2	3235	649.42378620316	7
2	3236	649.715956067266	6
2	3240	650.156736063843	7
2	3242	650.356204741105	8
2	3244	650.420802347341	9
2	3246	650.558304066609	10
2	3248	650.687215511488	11
2	3251	650.697676037597	10
2	3254	651.568768676809	9
2	3257	652.596162096011	8
2	3260	653.427365659709	7
2	3264	654.2501986918	8
2	3265	654.400454907092	7
2	3269	654.921428369907	8
2	3271	655.201629404844	9
2	3273	655.501762612721	10
2	3274	655.582888392797	9
2	3277	656.628104286427	8
2	3281	656.727528080619	9
2	3283	657.039966197554	10
2	3288	657.63857677809	9
2	3292	658.162538834857	10
2	3294	658.606483123173	11
2	3295	658.641587173818	10
2	3300	659.649449163461	9
2	3304	660.560258189195	10
2	3305	660.733451024881	9
2	3309	661.132356997861	10
2	3310	661.672514819419	9
2	3316	662.796770126999	10
2	3317	662.825826006914	9
2	3321	663.490772179481	10
2	3323	663.754815787663	11
2	3324	663.893400668605	10
2	3327	664.696303652013	9
2	3331	665.132872145047	10
2	3332	665.526092813229	9
2	3335	666.525263295853	8
2	3339	667.304740099542	9
2	3340	667.682458636043	8
2	3344	667.968232727764	9
2	3346	668.520867422787	10
2	3347	668.541267796018	9
2	3351	668.920490852517	10
2	3352	669.372573451855	9
2	3355	670.18322836642	8
2	3359	670.269473777579	9
2	3361	670.994176473388	10
2	3362	671.367668851994	9
2	3366	671.648742803741	10
2	3369	672.30364146658	9
2	3372	673.128698384639	8
2	3376	673.388238229384	9
2	3377	674.123566460207	8
2	3380	675.02017681754	7
2	3384	675.691839701166	8
2	3385	675.990555508964	7
2	3389	676.005243709574	8
2	3391	676.844324214653	9
2	3392	676.87699150943	8
2	3396	677.0649697406	9
2	3398	677.5981838519	10
2	3399	677.796786768611	9
2	3403	678.086537357594	10
2	3404	678.773824464686	9
2	3407	679.678207366884	8
2	3411	680.001424517073	9
2	3412	680.712113016162	8
2	3416	680.776845657959	9
2	3417	681.565286820818	8
2	3421	681.798715602667	9
2	3423	682.594575469842	10
2	3424	682.698177088861	9
2	3428	682.726267734961	10
2	3430	682.940467975674	11
2	3431	683.532320074335	10
2	3435	684.405591803628	11
2	3436	684.431304177426	10
2	3440	684.905313746953	11
2	3441	685.420629572839	10
2	3444	686.27015844562	9
2	3448	686.428055946123	10
2	3449	687.445701805939	9
2	3453	688.401356138275	10
2	3454	688.495111909946	9
2	3458	688.652880877482	10
2	3461	689.610892702797	9
2	3465	689.904367468149	10
2	3466	690.508716549044	9
2	3470	691.083729912197	10
2	3471	691.509796879226	9
2	3474	692.506734958449	8
2	3477	693.599294823845	7
2	3481	693.636363421034	8
2	3483	693.891398286266	9
2	3485	694.371761573689	10
2	3487	694.459465147928	11
2	3488	694.57077718933	10
2	3492	695.224258110928	11
2	3493	695.49302266498	10
2	3497	695.760192062079	11
2	3498	696.544502762117	10
2	3502	696.583001047084	11
2	3506	697.167407085706	12
2	3507	697.69536072227	11
2	3511	697.751439570744	12
2	3513	698.340353107775	13
2	3514	698.760941052687	12
2	3518	699.40893594738	13
2	3520	699.508052468509	14
2	3521	699.938533734501	13
2	3525	700.381032189458	14
2	3526	700.835287528456	13
2	3530	701.672773980758	14
2	3531	701.746745238703	13
2	3534	702.575955859915	12
2	3537	703.576349608757	11
2	3541	703.850497499235	12
2	3542	704.655248495534	11
2	3545	705.655564990982	10
2	3548	706.743394897382	9
2	3552	707.416699142324	10
2	3554	707.647168391261	11
2	3555	707.923746601741	10
2	3559	708.137807778161	11
2	3561	708.181213765132	12
2	3563	708.621701475415	13
2	3564	708.755136749677	12
2	3569	709.564913670782	11
2	3573	710.587302889501	12
2	3574	710.742076228715	11
2	3578	710.831575190566	12
2	3579	711.786119319841	11
2	3582	712.808427026	10
2	3585	713.927869025402	9
2	3588	714.777824907627	8
2	3592	715.380821565608	9
2	3593	715.69968213464	8
2	3596	716.750302672171	7
2	3600	717.552507935511	8
2	3601	717.807774201286	7
2	3604	718.897889121965	6
2	3607	719.771122926817	5
2	3611	720.289498405114	6
2	3612	720.935728165664	5
2	3615	721.877232406166	4
2	3618	722.807174039137	3
2	3622	722.846916189716	4
2	3624	723.43622881246	5
2	3625	723.739140070573	4
2	3628	724.684973823716	3
2	3632	725.137965808031	4
2	3634	725.418854134823	5
2	3635	725.678113589221	4
2	3638	726.706532462751	3
2	3641	727.716699167778	2
2	3645	727.981441940843	3
2	3646	728.886992594478	2
2	3650	729.133855179628	3
2	3651	729.729292859295	2
2	3655	729.734427578642	3
2	3656	730.640407582065	2
2	3659	731.77982763906	1
2	3663	732.147008228264	2
2	3665	732.867667508717	3
2	3667	732.921134957938	4
2	3668	732.933437558701	3
2	3672	733.638678087937	4
2	3673	733.80664737585	3
2	3677	733.993978662507	4
2	3678	734.701145147691	3
2	3684	735.78031119576	4
2	3685	735.835278076278	3
2	3689	736.53193563034	4
2	3690	736.731907072542	3
2	3694	737.526417581947	4
2	3695	737.882667182265	3
2	3698	738.986161501864	2
2	3701	739.820669409977	1
2	3705	739.906322333138	2
2	3707	739.920436988359	3
2	3709	740.241795661318	4
2	3710	740.905849628309	3
2	3714	741.675008737264	4
2	3715	742.101314190747	3
2	3718	743.216172345141	2
2	3722	743.760062808854	3
2	3724	744.13834333975	4
2	3725	744.145639954293	3
2	3729	744.890882786549	4
2	3730	745.314640978975	3
2	3733	746.142122751167	2
2	3736	747.168698155759	1
2	3740	747.473073274301	2
2	3741	748.052947327653	1
2	3745	748.471115536113	2
2	3746	749.051999149723	1
2	3750	749.414074905042	2
2	3752	749.812243955466	3
2	3753	750.029372086627	2
2	3757	750.497797734175	3
2	3758	751.052491583274	2
2	3762	751.139256804138	3
2	3764	751.221346929093	4
2	3766	751.280251896129	5
2	3768	751.887040534949	6
2	3769	752.196652749711	5
2	3773	752.597492161013	6
2	3775	753.146990479478	7
2	3777	753.225754443523	8
2	3778	753.274711379473	7
2	3781	754.141954054468	6
2	3785	755.217706960382	7
2	3786	755.244553326227	6
2	3789	756.344143008132	5
2	3794	757.208380107273	4
2	3798	758.018496749177	5
2	3799	758.078039510519	4
2	3802	759.109216720116	3
2	3805	760.141018721339	2
2	3809	760.964040552268	3
2	3810	761.04691671363	2
2	3813	762.017924863537	1
2	3817	762.236549102987	2
2	3818	762.945476591931	1
2	3821	763.827591731557	0
2	3825	764.496821208864	1
2	3826	764.889189567016	0
2	3835	765.870067711176	1
2	3836	766.85533807219	0
2	3840	766.907301927463	1
2	3841	767.978901232658	0
2	3855	770.162536242918	1
2	3856	771.075302640041	0
2	3870	773.138020554215	1
2	3872	773.287896028661	2
2	3875	773.830798001931	1
2	3881	774.385919421318	2
2	3883	774.68835978845	3
2	3884	774.828753895656	2
2	3888	775.714661025361	3
2	3890	775.727079330648	4
2	3891	775.79074655936	3
2	3895	775.943259401058	4
2	3897	776.433263643483	5
2	3898	776.654185451073	4
2	3902	776.809837435506	5
2	3904	776.905972660053	6
2	3906	777.171927112577	7
2	3907	777.800801853807	6
2	3911	778.488285319946	7
2	3913	778.804984517458	8
2	3914	778.958557483618	7
2	3917	779.876878939447	6
2	3921	779.934095051554	7
2	3922	780.871708049783	6
2	3926	781.3979539283	7
2	3927	781.832922116452	6
2	3931	782.080194197754	7
2	3933	782.248198114708	8
2	3934	782.687165678916	7
2	3938	783.319201091844	8
2	3940	783.482579235659	9
2	3941	783.653393592378	8
2	3944	784.495789905982	7
2	3948	785.272204641394	8
2	3949	785.360344615551	7
2	3953	785.618275356895	8
2	3954	786.428160953773	7
2	3958	786.798940197387	8
2	3960	786.866446047941	9
2	3961	787.374721559575	8
2	3965	787.697863949585	9
2	3966	788.318224512106	8
2	3970	788.544600026077	9
2	3972	789.095467706629	10
2	3973	789.513075679885	9
2	3977	789.68984354461	10
2	3979	790.352438450108	11
2	3980	790.366712749162	10
2	3983	791.300051879761	9
2	3986	792.340264180367	8
2	3990	792.639515564801	9
2	3992	792.742449670706	10
2	3994	793.136159048574	11
2	3996	793.295219773995	12
2	3997	793.514498867345	11
2	4000	794.639644267661	10
2	4004	794.903509708457	11
2	4005	795.807227747766	10
2	4009	795.902732938161	11
2	4010	796.62297951716	10
2	4014	797.05026050008	11
2	4015	797.537126855431	10
2	4019	797.860018642534	11
2	4020	798.528174725706	10
2	4023	799.471774243163	9
2	4027	799.678417649828	10
2	4028	800.274608942932	9
2	4032	800.61293452376	10
2	4034	801.012344962314	11
2	4035	801.109417964863	10
2	4039	801.302350120926	11
2	4041	801.660999687475	12
2	4042	802.206529281913	11
2	4047	803.205591140288	10
2	4051	803.846324205818	11
2	4052	804.029865441258	10
2	4056	804.094832740158	11
2	4058	804.681052466113	12
2	4060	804.682114358175	13
2	4061	804.979878994609	12
2	4065	805.036091936249	13
2	4067	805.308285278227	14
2	4069	805.628344394076	15
2	4071	805.820066028127	16
2	4073	805.864009021729	17
2	4074	805.96527589147	16
2	4078	806.49456931742	17
2	4080	806.826626615868	18
2	4081	806.901871184977	17
2	4084	807.943818486827	16
2	4088	808.23614882298	17
2	4090	808.642028572583	18
2	4091	808.799392678375	17
2	4094	809.930031054812	16
2	4098	810.845447911157	17
2	4099	810.847771847873	16
2	4102	811.800951568755	15
2	4106	811.808388367284	16
2	4108	812.606945702261	17
2	4110	812.745377692808	18
2	4111	812.808031635797	17
2	4115	813.446487314923	18
2	4116	813.784143443844	17
2	4120	814.877760323671	18
2	4121	814.927238153639	17
2	4125	814.990927213189	18
2	4127	815.068164946757	19
2	4130	815.830675310707	18
2	4134	815.89626173321	19
2	4136	816.059964800761	20
2	4137	816.831938958606	19
2	4141	817.488973665781	20
2	4142	817.729329880392	19
2	4146	818.720086142238	20
2	4147	818.782752319583	19
2	4151	819.414893303353	20
2	4152	819.718189906487	19
2	4156	820.569381038628	20
2	4157	820.863840052644	19
2	4160	821.9071664456	18
2	4164	821.943287822479	19
2	4166	822.321921626959	20
2	4168	822.633673445764	21
2	4169	823.004121996807	20
2	4173	823.131933341221	21
2	4174	823.969419819927	20
2	4177	824.967295388198	19
2	4181	825.207458723662	20
2	4182	825.98499624149	19
2	4186	826.887508815374	20
2	4187	826.972356291554	19
2	4191	827.259523097987	20
2	4193	827.98191171683	21
2	4194	828.07131304375	20
2	4197	828.946845686502	19
2	4201	829.093572094306	20
2	4203	829.548724284421	21
2	4204	830.070191708739	20
2	4207	831.023537481456	19
2	4211	831.757369724964	20
2	4212	831.901370777163	19
2	4216	832.662494699938	20
2	4217	832.741444224372	19
2	4221	833.418360493046	20
2	4222	833.817716536644	19
2	4226	834.526910368756	20
2	4227	834.773782550144	19
2	4231	834.775214149312	20
2	4232	835.771054012674	19
2	4236	836.249965820665	20
2	4238	836.526606870904	21
2	4239	836.81842765526	20
2	4242	837.857409835673	19
2	4246	838.53566410957	20
2	4247	838.841598180096	19
2	4251	838.890442919745	20
2	4253	839.090525719184	21
2	4255	839.158731698931	22
2	4258	839.675579252067	21
2	4261	840.79080175764	20
2	4265	841.115750621479	21
2	4266	841.615084593436	20
2	4269	842.509804443242	19
2	4273	843.019191365033	20
2	4275	843.48577639249	21
2	4277	843.620301368838	22
2	4278	843.70974610175	21
2	4282	843.732805768027	22
2	4283	844.792703260546	21
2	4286	845.79123859887	20
2	4290	845.813603360117	21
2	4292	846.237048276618	22
2	4293	846.789533518227	21
2	4299	847.725946412564	22
2	4300	847.785758122029	21
2	4304	848.394157723882	22
2	4305	848.709365046928	21
2	4308	849.765212991713	20
2	4312	850.620618310053	21
2	4313	850.926946565109	20
2	4317	851.733697146626	21
2	4318	852.022425683747	20
2	4321	853.175732128388	19
2	4325	853.609578977509	20
2	4326	854.167093352015	19
2	4330	854.351411055569	20
2	4331	855.094595345828	19
2	4334	856.10056162418	18
2	4338	856.284474290558	19
2	4340	856.562048932445	20
2	4341	857.249396558079	19
2	4345	858.074919766733	20
2	4346	858.407406165331	19
2	4350	859.073123809501	20
2	4351	859.364726632062	19
2	4355	859.553192777247	20
2	4357	859.666529013868	21
2	4359	859.668883709865	22
2	4360	860.355634565252	21
2	4363	861.172184241071	20
2	4367	862.08293329805	21
2	4368	862.151138651997	20
2	4372	862.195932772311	21
2	4375	863.315792883534	20
2	4379	864.216796951597	21
2	4380	864.268611989517	20
2	4384	864.645142531885	21
2	4385	865.409739809551	20
2	4389	865.925549027669	21
2	4391	866.129064570956	22
2	4392	866.539982520391	21
2	4395	867.62360031388	20
2	4399	868.043771565629	21
2	4402	868.593128052142	20
2	4405	869.416276014943	19
2	4408	870.580110748925	18
2	4412	870.995969053094	19
2	4413	871.442519675915	18
2	4416	872.327849186	17
2	4420	872.647775387659	18
2	4421	873.188192927532	17
2	4425	874.007359767932	18
2	4426	874.280145445254	17
2	4430	874.31492921207	18
2	4432	874.362901506128	19
2	4434	874.932608171149	20
2	4435	875.379075976808	19
2	4439	876.270518600799	20
2	4440	876.321974681106	19
2	4443	877.271714861293	18
2	4446	878.163134720803	17
2	4450	878.371703826568	18
2	4452	879.136195418544	19
2	4453	879.310963612304	18
2	4456	880.448756841545	17
2	4460	880.701419628094	18
2	4461	881.474379940865	17
2	4465	881.819888950008	18
2	4466	882.467133381938	17
2	4470	883.359669164704	18
2	4471	883.627128574507	17
2	4474	884.799867881717	16
2	4477	885.700348924262	15
2	4480	886.631167384026	14
2	4483	887.569798493174	13
2	4487	887.772610422334	14
2	4489	887.971357137681	15
2	4490	888.574157017631	14
2	4494	889.195425941784	15
2	4495	889.594229142343	14
2	4498	890.664511273031	13
2	4502	891.779724739	14
2	4503	891.801353408837	13
2	4507	892.2176743803	14
2	4508	892.767673591965	13
2	4512	892.860787896323	14
2	4513	893.912623989371	13
2	4516	894.865295427454	12
2	4520	895.477158882597	13
2	4521	895.864987130159	12
2	4525	896.022439170432	13
2	4526	896.741494566084	12
2	4529	897.813668339768	11
2	4532	898.657743524083	10
2	4535	899.77510974237	9
2	4539	900.038113003423	10
2	4541	900.105650414364	11
2	4543	900.442138702785	12
2	4544	900.905121520602	11
2	4548	901.352214810251	12
2	4549	902.015242574246	11
2	4552	902.854372479462	10
2	4555	903.874223530919	9
2	4559	904.13905506916	10
2	4561	904.437802992884	11
2	4562	904.843377242957	10
2	4566	904.900781077033	11
2	4568	905.323143959562	12
2	4569	905.99887533651	11
2	4573	906.793283775165	12
2	4574	906.871877002877	11
2	4578	907.230660861893	12
2	4580	907.652140921215	13
2	4581	907.843925066081	12
2	4585	908.378081597446	13
2	4587	908.439578810634	14
2	4588	909.024571104043	13
2	4592	909.215198275108	14
2	4594	909.404192148618	15
2	4597	909.869385469121	14
2	4601	910.175136297221	15
2	4602	910.682803214689	14
2	4605	911.607010277429	13
2	4609	912.2214740583	14
2	4612	912.525534167954	13
2	4616	912.746526315405	14
2	4617	913.65752800356	13
2	4620	914.596606754953	12
2	4624	915.294844053555	13
2	4627	915.608534072595	12
2	4631	916.27901995365	13
2	4633	916.453864419869	14
2	4634	916.491077795415	13
2	4638	916.88269757374	14
2	4639	917.326222437969	13
2	4643	918.175185792068	14
2	4644	918.436227626702	13
2	4648	918.487562680047	14
2	4649	919.264108642819	13
2	4653	919.525749492951	14
2	4655	919.556755359353	15
2	4657	920.383007663928	16
2	4658	920.404600789467	15
2	4662	921.161794861456	16
2	4663	921.209446537005	15
2	4667	922.125264520464	16
2	4668	922.389788796449	15
2	4672	922.545141477192	16
2	4673	923.285738777997	15
2	4677	923.823092606364	16
2	4678	924.233224678854	15
2	4682	924.380034971545	16
2	4685	925.394870129297	15
2	4689	926.214766182669	16
2	4690	926.593618280044	15
2	4694	926.853521489692	16
2	4695	927.502087000361	15
2	4698	928.525945802754	14
2	4702	929.159862588945	15
2	4703	929.390309042366	14
2	4706	930.28128711644	13
2	4709	931.089008063612	12
2	4712	931.889939163135	11
2	4716	931.925556769977	12
2	4718	932.069863441444	13
2	4719	933.037994160106	12
2	4722	934.004670019796	11
2	4725	934.852760463929	10
2	4729	935.070915078622	11
2	4731	935.18102905258	12
2	4732	935.744989819149	11
2	4735	936.847107771015	10
2	4741	937.788733968173	11
2	4742	937.852153171296	10
2	4746	937.94003139177	11
2	4748	938.025715066622	12
2	4752	938.606540872301	13
2	4755	938.97604054946	12
2	4759	939.554818393825	13
2	4761	939.976300598424	14
2	4762	939.994745293236	13
2	4766	940.335507094973	14
2	4768	940.500843828135	15
2	4770	940.775548653071	16
2	4771	940.936803742847	15
2	4775	941.422413142448	16
2	4776	941.7372512914	15
2	4780	942.082402462341	16
2	4782	942.46411782625	17
2	4783	942.703638735855	16
2	4787	943.11764758109	17
2	4788	943.767313717933	16
2	4791	944.606059429025	15
2	4795	944.663352105555	16
2	4797	944.852285046907	17
2	4800	945.741598182147	16
2	4804	945.770640272482	17
2	4805	946.552834708964	16
2	4808	947.516947234863	15
2	4811	948.45086698688	14
2	4815	948.556408524753	15
2	4817	948.631535161873	16
2	4819	949.262511920101	17
2	4820	949.39412494467	16
2	4824	950.417160084174	17
2	4825	950.471441752067	16
2	4829	950.569412007361	17
2	4830	951.45187347352	16
2	4834	951.618847562239	17
2	4835	952.253245402569	16
2	4839	952.719951679612	17
2	4841	952.795783221764	18
2	4842	953.091223977948	17
2	4846	953.76777964422	18
2	4847	953.895786424237	17
2	4851	954.723359450499	18
2	4852	954.878720949567	17
2	4856	955.540618888611	18
2	4857	955.770923682	17
2	4861	955.949928868774	18
2	4862	956.645739824954	17
2	4866	957.279785378298	18
2	4867	957.816049996648	17
2	4871	958.296734697385	18
2	4872	958.811555620354	17
2	4875	959.928727518652	16
2	4879	960.135917479626	17
2	4880	960.986365231943	16
2	4884	961.313145992108	17
2	4885	961.876308660281	16
2	4889	962.435228494926	17
2	4890	962.678781015963	16
2	4893	963.539758086276	15
2	4897	964.412851444206	16
2	4898	964.456621445973	15
2	4902	964.609960089372	16
2	4903	965.327353013751	15
2	4908	966.283318391514	14
2	4911	967.278481877387	13
2	4914	968.295963809338	12
2	4918	968.842727019365	13
2	4919	969.275400899981	12
2	4923	969.638121263081	13
2	4924	970.271439866048	12
2	4928	970.446461544269	13
2	4930	970.765382635842	14
2	4931	971.381351843082	13
2	4935	971.909573619761	14
2	4936	972.311531880662	13
2	4939	973.502854390327	12
2	4943	974.159000301956	13
2	4944	974.374107343588	12
2	4948	975.4181216532	13
2	4950	975.426333247479	14
2	4951	975.464670044254	13
2	4954	976.570984769962	12
2	4958	976.774108676449	13
2	4960	977.160134965254	14
2	4961	977.463406940992	13
2	4965	977.73203331467	14
2	4967	977.86170871516	15
2	4968	978.638415444619	14
2	4972	978.976025091845	15
2	4973	979.601118407748	14
2	4977	980.767112897057	15
2	4978	980.774510854553	14
2	4982	980.948806126271	15
2	4983	981.643107740372	14
2	4986	982.52210999101	13
2	4990	983.20555644232	14
2	4991	983.492897975608	13
2	4995	983.795447348747	14
2	4996	984.492088886886	13
2	5000	984.750015542632	14
2	5001	985.587572886306	13
2	5005	986.444438884588	14
2	5006	986.551532122749	13
2	5010	987.050139513756	14
2	5011	987.459881819855	13
2	5014	988.430601084023	12
2	5018	989.161626251379	13
2	5020	989.276488867716	14
2	5021	989.343612521491	13
2	5025	989.48344680389	14
2	5026	990.156262074574	13
2	5030	991.013533412384	14
2	5031	991.126841535582	13
2	5034	991.957227727002	12
2	5037	992.880586311011	11
2	5041	993.163700607192	12
2	5042	993.82305844163	11
2	5046	994.613282660948	12
2	5047	994.761767418659	11
2	5052	995.762119990471	10
2	5056	996.062700925988	11
2	5058	996.347004802244	12
2	5059	996.889165481529	11
2	5062	997.795497871539	10
2	5066	998.25783292218	11
2	5067	998.903576502366	10
2	5071	998.998634876354	11
2	5073	999.206834532142	12
2	5075	999.546465928704	13
2	5076	999.903866642969	12
2	5080	1000.024772854597	13
2	5082	1000.43939059951	14
2	5084	1000.667383738504	15
2	5085	1000.860939075029	14
2	5088	1001.860677730175	13
2	5092	1002.202291922872	14
2	5093	1002.670366033608	13
2	5097	1002.873385124485	14
2	5098	1003.629561251936	13
2	5102	1004.2702999355	14
2	5103	1004.680720520647	13
2	5107	1004.805627978954	14
2	5108	1005.663575986469	13
2	5111	1006.646318620512	12
2	5117	1007.460590139236	13
2	5119	1007.557046360724	14
2	5120	1007.839310852786	13
2	5124	1008.57486876596	14
2	5125	1008.703951499773	13
2	5128	1009.65115642778	12
2	5132	1010.622365829635	13
2	5133	1010.825704246363	12
2	5139	1010.957665378251	13
2	5141	1011.460375848277	14
2	5142	1011.984349737292	13
2	5146	1011.984388940454	14
2	5147	1013.145489275524	13
2	5151	1013.98651411411	14
2	5152	1014.043068378673	13
2	5158	1014.549439918379	14
2	5159	1014.868160705802	13
2	5163	1014.88057085381	14
2	5164	1016.016340494317	13
2	5167	1016.993792154615	12
2	5171	1017.283651536888	13
2	5172	1018.03840913174	12
2	5176	1018.408408473197	13
2	5177	1019.147681052026	12
2	5180	1020.070554410548	11
2	5184	1020.803989903406	12
2	5185	1020.902714225904	11
2	5189	1022.019524690832	12
2	5190	1022.096682536484	11
2	5194	1023.069224838538	12
2	5195	1023.258551668165	11
2	5199	1023.652434038216	12
2	5201	1024.204793776958	13
2	5202	1024.331406765314	12
2	5205	1025.153959799534	11
2	5208	1026.284117894689	10
2	5212	1026.422462172026	11
2	5214	1026.782681837174	12
2	5218	1027.1660371469	13
2	5219	1027.257678167219	12
2	5222	1028.436961803562	11
2	5226	1029.41221480407	12
2	5227	1029.583261901676	11
2	5230	1030.44640291126	10
2	5234	1030.538860233384	11
2	5236	1031.394409087889	12
2	5237	1031.562491945527	11
2	5241	1032.271232121786	12
2	5242	1032.727310290537	11
2	5245	1033.663312725607	10
2	5249	1033.985551503417	11
2	5250	1034.553698690679	10
2	5254	1035.363454700216	11
2	5255	1035.589857549664	10
2	5259	1035.715984224047	11
2	5261	1035.821714560677	12
2	5263	1035.913224521134	13
2	5265	1035.986652120203	14
2	5266	1036.633825243988	13
2	5270	1037.014448964273	14
2	5271	1037.620444966179	13
2	5275	1038.460481840502	14
2	5276	1038.789496106353	13
2	5279	1039.877573327139	12
2	5283	1040.40177451805	13
2	5284	1040.879559226871	12
2	5288	1041.179553845668	13
2	5289	1041.766474824563	12
2	5292	1042.602186389152	11
2	5296	1043.329331312307	12
2	5297	1043.473188584741	11
2	5300	1044.375198172103	10
2	5303	1045.217555466178	9
2	5306	1046.263953536074	8
2	5309	1047.287120964262	7
2	5312	1048.279734001565	6
2	5315	1049.179861950572	5
2	5319	1049.660327625155	6
2	5320	1049.988931626524	5
2	5323	1050.974536197889	4
2	5327	1051.262971191439	5
2	5329	1051.65164069036	6
2	5330	1051.898089032504	5
2	5333	1053.065812011692	4
2	5336	1053.927765016514	3
2	5340	1054.138856750171	4
2	5342	1054.808207280451	5
2	5343	1054.835923119891	4
2	5346	1055.888322887361	3
2	5349	1056.80722130749	2
2	5353	1057.26353991874	3
2	5354	1057.966545707244	2
2	5358	1058.563799096517	3
2	5359	1059.111829088885	2
2	5363	1059.829523910109	3
2	5364	1060.062955786451	2
2	5367	1060.968351427815	1
2	5371	1061.244825276174	2
2	5373	1061.533414968538	3
2	5375	1061.802059834749	4
2	5376	1061.870459270082	3
2	5379	1062.735691230349	2
2	5382	1063.682838718477	1
2	5385	1064.658070098306	0
2	5389	1064.737471018183	1
2	5391	1064.919204187678	2
2	5393	1065.525471490884	3
2	5394	1065.657946963864	2
2	5397	1066.531427738326	1
2	5401	1067.186308922206	2
2	5403	1067.296925143089	3
2	5404	1067.512241350556	2
2	5408	1067.702084242142	3
2	5411	1068.667324150143	2
2	5414	1069.672111047407	1
2	5418	1069.843757006707	2
2	5419	1070.47736225582	1
2	5422	1071.307710369185	0
2	5426	1072.113970295061	1
2	5428	1072.31279359752	2
2	5429	1072.365751454767	1
2	5433	1072.695557749742	2
2	5435	1072.938920413853	3
2	5437	1073.320891531189	4
2	5438	1073.545485961598	3
2	5441	1074.394431917344	2
2	5444	1075.205007901017	1
2	5447	1076.325982124798	0
2	5451	1076.733417068658	1
2	5452	1077.290393040769	0
2	5456	1077.542927141956	1
2	5457	1078.38212251642	0
2	5461	1078.576089291577	1
2	5463	1079.089161332121	2
2	5464	1079.205633105126	1
2	5468	1079.210855620042	2
2	5470	1079.520998867639	3
2	5472	1079.582054600699	4
2	5474	1079.790601325137	5
2	5475	1080.128979830046	4
2	5479	1080.582969810581	5
2	5480	1080.929984704473	4
2	5483	1081.949413416044	3
2	5487	1082.863452918845	4
2	5488	1082.870473056448	3
2	5491	1084.049990049073	2
2	5495	1084.853669364148	3
2	5496	1084.924022332647	2
2	5500	1085.378365318611	3
2	5501	1085.797331722149	2
2	5504	1086.6740579413	1
2	5508	1086.983508850502	2
2	5510	1087.167939196889	3
2	5512	1087.562705913261	4
2	5513	1087.831682006524	3
2	5517	1087.907709161259	4
2	5519	1087.91684676758	5
2	5521	1088.118718015033	6
2	5523	1088.134269044277	7
2	5524	1088.975045721208	6
2	5528	1089.636888599282	7
2	5529	1089.806776329664	6
2	5533	1090.265145518912	7
2	5534	1090.98894337227	6
2	5538	1091.228881506431	7
2	5539	1091.914252348779	6
2	5543	1092.86708423276	7
2	5544	1092.910858672275	6
2	5548	1093.105146359042	7
2	5550	1093.153866114968	8
2	5552	1093.357998973115	9
2	5553	1094.024030039063	8
2	5556	1094.938410679134	7
2	5559	1095.892479609954	6
2	5563	1095.906721350314	7
2	5566	1097.029290675535	6
2	5569	1098.077768929373	5
2	5573	1098.079033700922	6
2	5574	1099.10175381105	5
2	5578	1100.100990217297	6
2	5579	1100.206306768279	5
2	5583	1100.44039410929	6
2	5585	1100.629754050183	7
2	5586	1101.123800156429	6
2	5590	1101.166832309577	7
2	5592	1101.555655447149	8
2	5593	1101.97461700521	7
2	5597	1102.775266803636	8
2	5598	1102.834407674685	7
2	5602	1102.927041422975	8
2	5603	1103.841948675621	7
2	5607	1104.284597959274	8
2	5608	1104.758120028745	7
2	5612	1105.651086056819	8
2	5614	1105.897247424145	9
2	5615	1105.935542210541	8
2	5619	1106.32731128168	9
2	5620	1106.787518410269	8
2	5624	1106.997032520967	9
2	5625	1107.823663570802	8
2	5628	1108.954173812154	7
2	5631	1109.960320094764	6
2	5635	1110.314595220552	7
2	5637	1110.817073660882	8
2	5639	1110.842045434373	9
2	5641	1110.848138850213	10
2	5642	1111.095351730916	9
2	5645	1111.924991975702	8
2	5649	1112.292653825624	9
2	5651	1112.335103371385	10
2	5653	1112.597808775444	11
2	5654	1112.805224107183	10
2	5658	1113.606179993233	11
2	5659	1113.618433427136	10
2	5662	1114.450518857665	9
2	5666	1115.256589369024	10
2	5667	1115.403149686452	9
2	5671	1115.406672242614	10
2	5673	1115.664520854227	11
2	5675	1115.755012377859	12
2	5676	1116.439187963936	11
2	5679	1117.248411862064	10
2	5682	1118.260361160688	9
2	5686	1119.052381135367	10
2	5687	1119.066151356675	9
2	5690	1119.931409259212	8
2	5693	1121.093885541686	7
2	5697	1121.888938160662	8
2	5698	1122.032282272612	7
2	5701	1122.939619492718	6
2	5704	1123.883660109878	5
2	5708	1124.289393391553	6
2	5709	1125.075957631298	5
2	5713	1125.443802439823	6
2	5715	1125.471717539779	7
2	5717	1125.564497072786	8
2	5718	1125.949628836174	7
2	5721	1126.915274706461	6
2	5725	1127.077275539775	7
2	5726	1127.792663953711	6
2	5729	1128.951101962083	5
2	5732	1129.919526063536	4
2	5735	1131.011283309736	3
2	5739	1131.375596499887	4
2	5740	1132.015972558387	3
2	5744	1132.806382999809	4
2	5745	1132.847089979403	3
2	5748	1133.775501837932	2
2	5752	1134.412301708119	3
2	5753	1134.771846906353	2
2	5757	1135.887305297266	3
2	5758	1135.899281389617	2
2	5762	1136.034374475854	3
2	5763	1136.921681473103	2
2	5766	1137.775746327617	1
2	5770	1138.258895813954	2
2	5771	1138.780224663556	1
2	5775	1139.083063960873	2
2	5776	1139.673459415488	1
2	5780	1139.855153565776	2
2	5781	1140.553285478778	1
2	5785	1141.410136976674	2
2	5786	1141.445251616068	1
2	5790	1141.839945179513	2
2	5792	1141.941203316737	3
2	5793	1142.275942894328	2
2	5797	1142.319770820046	3
2	5799	1142.657197953277	4
2	5800	1143.267476113677	3
2	5804	1143.669355504647	4
2	5805	1144.292739219662	3
2	5809	1144.545041864169	4
2	5811	1144.848371448876	5
2	5812	1145.37189942354	4
2	5816	1145.813665547703	5
2	5817	1146.440011709441	4
2	5821	1146.982714508402	5
2	5822	1147.598607511424	4
2	5826	1148.524213135866	5
2	5827	1148.61646138502	4
2	5830	1149.642190972974	3
2	5833	1150.623059859013	2
2	5837	1151.031497244356	3
2	5839	1151.109329412044	4
2	5840	1151.556116829419	3
2	5843	1152.622973862549	2
2	5846	1153.708968182539	1
2	5852	1154.29295436765	2
2	5853	1154.510325722841	1
2	5857	1154.56664765017	2
2	5858	1155.624621364267	1
2	5861	1156.639170146899	0
2	5865	1157.562428208377	1
2	5866	1157.838961999749	0
2	5870	1157.903476535837	1
2	5872	1158.674573851194	2
2	5873	1158.709533900467	1
2	5877	1158.98191006316	2
2	5879	1159.115584052501	3
2	5880	1159.639958211013	2
2	5884	1159.877978732515	3
2	5885	1160.476762285435	2
2	5889	1160.713843956978	3
2	5891	1160.914836009893	4
2	5892	1161.331580144984	3
2	5896	1161.496714510617	4
2	5897	1162.507865455726	3
2	5901	1163.65723404792	4
2	5902	1163.660279578695	3
2	5906	1163.718450658208	4
2	5908	1164.035988809243	5
2	5909	1164.582302983923	4
2	5913	1165.539385007148	5
2	5914	1165.770353143828	4
2	5918	1165.804068218447	5
2	5919	1166.707412047291	4
2	5922	1167.585922483707	3
2	5926	1167.68683814858	4
2	5927	1168.74912615761	3
2	5931	1169.033736836902	4
2	5933	1169.201416939299	5
2	5934	1169.864786650872	4
2	5938	1170.621947983848	5
2	5940	1171.00803086618	6
2	5941	1171.025879371984	5
2	5944	1171.855102573594	4
2	5947	1172.952113922944	3
2	5951	1173.909786727642	4
2	5953	1173.911816999681	5
2	5954	1173.958093606567	4
2	5958	1174.04840290647	5
2	5959	1174.932850217426	4
2	5963	1175.127462870632	5
2	5965	1175.374608917996	6
2	5966	1176.114815201124	5
2	5970	1176.807260345026	6
2	5971	1177.141665826531	5
2	5974	1178.023646968024	4
2	5977	1178.827607695831	3
2	5981	1179.044607176597	4
2	5983	1179.320757711179	5
2	5986	1179.800417057591	4
2	5989	1180.866545195671	3
2	5994	1182.06599793637	2
2	5997	1183.092624301443	1
2	6001	1183.548113297086	2
2	6003	1183.636606457599	3
2	6005	1183.751216003674	4
2	6007	1183.883501567331	5
2	6008	1183.915359197164	4
2	6012	1184.08872503436	5
2	6014	1184.309901820006	6
2	6016	1184.481964940759	7
2	6017	1184.825227093024	6
2	6021	1185.682869548105	7
2	6022	1185.776558093427	6
2	6026	1186.307626288427	7
2	6029	1186.770064509454	6
2	6033	1186.930736636635	7
2	6038	1187.737104948497	6
2	6042	1188.072075150115	7
2	6044	1188.293715805041	8
2	6047	1188.786019028424	7
2	6051	1189.472493929421	8
2	6052	1189.723879629447	7
2	6055	1190.753353501092	6
2	6061	1191.473852643958	7
2	6062	1191.686762385144	6
2	6066	1191.854222685249	7
2	6067	1192.511716267354	6
2	6070	1193.58318192305	5
2	6074	1194.640575621616	6
2	6076	1194.709491095692	7
2	6077	1194.764702431652	6
2	6080	1195.797189319859	5
2	6084	1196.209651169016	6
2	6085	1196.645236648692	5
2	6089	1197.728825090998	6
2	6090	1197.793732595703	5
2	6093	1198.928844256865	4
2	6096	1199.840058302207	3
2	6100	1200.494776153285	4
2	6101	1200.660933997275	3
2	6105	1201.541707585069	4
2	6106	1201.658502161948	3
2	6110	1201.816159978146	4
2	6111	1202.613884124139	3
2	6114	1203.419324636066	2
2	6118	1203.528359579947	3
2	6119	1204.29018882362	2
2	6123	1204.303159921134	3
2	6124	1205.357453716619	2
2	6128	1205.906871755928	3
2	6129	1206.188622686153	2
2	6133	1206.24150435819	3
2	6134	1207.10119376404	2
2	6138	1207.24828348288	3
2	6139	1208.060957313495	2
2	6143	1208.862655614308	3
2	6144	1208.909153280853	2
2	6147	1209.896832904293	1
2	6151	1209.9221326005	2
2	6153	1209.945922571309	3
2	6155	1210.691652964848	4
2	6156	1210.880089340991	3
2	6160	1211.057190639627	4
2	6162	1211.347006695127	5
2	6163	1212.011878773364	4
2	6167	1212.266423416801	5
2	6169	1212.290069662044	6
2	6172	1212.91625511756	5
2	6177	1213.883900012149	4
2	6181	1214.961364702094	5
2	6182	1215.049552343859	4
2	6186	1215.261578142822	5
2	6187	1215.889605197197	4
2	6191	1216.425345447943	5
2	6192	1216.779464333857	4
2	6196	1217.438115395287	5
2	6197	1217.745382914952	4
2	6201	1217.792953446641	5
2	6202	1218.575221656988	4
2	6206	1219.166522671471	5
2	6207	1219.410866977161	4
2	6211	1219.674743127961	5
2	6213	1219.758785514257	6
2	6214	1220.597374123594	5
2	6217	1221.658468416499	4
2	6220	1222.765412569957	3
2	6224	1223.426650836373	4
2	6225	1223.806937330382	3
2	6229	1224.580009465887	4
2	6230	1224.736580268273	3
2	6233	1225.847300243171	2
2	6237	1226.273625017239	3
2	6238	1226.987185151668	2
2	6242	1227.871970431855	3
2	6243	1227.902214622197	2
2	6247	1228.539061112635	3
2	6248	1228.727076575791	2
2	6251	1229.613368346894	1
2	6255	1230.1548241524	2
2	6257	1230.259017487888	3
2	6258	1230.703909362739	2
2	6262	1230.801992370025	3
2	6263	1231.527902339006	2
2	6267	1231.589898409045	3
2	6269	1231.606174773816	4
2	6270	1232.383989776837	3
2	6274	1232.518889835328	4
2	6275	1233.50550081523	3
2	6279	1234.193253211424	4
2	6280	1234.617202507312	3
2	6284	1234.708178679722	4
2	6286	1235.064682048578	5
2	6288	1235.427324183049	6
2	6289	1235.522085466588	5
2	6293	1235.878520705585	6
2	6294	1236.607431571258	5
2	6298	1236.747884485964	6
2	6299	1237.708486430047	5
2	6302	1238.597949181663	4
2	6306	1239.283827672471	5
2	6307	1239.521797666213	4
2	6310	1240.453907095435	3
2	6314	1241.182659047611	4
2	6316	1241.322249791079	5
2	6317	1241.608445897306	4
2	6320	1242.547644403371	3
2	6324	1243.218287119159	4
2	6325	1243.478690054434	3
2	6329	1243.709272902572	4
2	6330	1244.28812205417	3
2	6334	1244.799677961961	4
2	6335	1245.160843049529	3
2	6338	1246.133451546988	2
2	6342	1246.458258275365	3
2	6344	1247.074957749603	4
2	6345	1247.282591594736	3
2	6348	1248.174635908826	2
2	6354	1248.910712565135	3
2	6355	1249.103574672508	2
2	6359	1249.754869886852	3
2	6360	1250.11944851268	2
2	6364	1250.697665183323	3
2	6365	1251.147173591684	2
2	6369	1251.647007251774	3
2	6370	1252.108778074271	2
2	6373	1253.099060585051	1
2	6377	1253.682894100624	2
2	6378	1254.231280306335	1
2	6381	1255.260498475264	0
2	6388	1256.408078968781	1
2	6389	1256.910473581105	0
2	6398	1258.411410009371	1
2	6399	1258.743283731471	0
2	6403	1258.879313950782	1
2	6405	1259.089361069044	2
2	6406	1259.818295887	1
2	6410	1260.357820702135	2
2	6411	1260.70692446202	1
2	6415	1261.154588568983	2
2	6417	1261.170013641937	3
2	6418	1261.869959538038	2
2	6421	1262.757532083969	1
2	6425	1263.017958200121	2
2	6426	1263.956391121428	1
2	6430	1264.087461768727	2
2	6432	1264.238598405968	3
2	6434	1264.561792144146	4
2	6435	1264.881978645622	3
2	6439	1265.22613297118	4
2	6440	1265.962497349157	3
2	6444	1266.092841892921	4
2	6445	1266.934792180247	3
2	6449	1267.102112994863	4
2	6451	1267.330907320539	5
2	6454	1267.802733819074	4
2	6457	1268.913610326852	3
2	6461	1269.185912187339	4
2	6463	1269.4398074181	5
2	6464	1269.790485261082	4
2	6468	1269.942185828449	5
2	6470	1270.127308111503	6
2	6471	1270.725762494262	5
2	6474	1271.590782044064	4
2	6478	1272.553259669328	5
2	6479	1272.57654999623	4
2	6482	1273.595242797378	3
2	6485	1274.433668946269	2
2	6489	1274.978418345104	3
2	6490	1275.238832911271	2
2	6496	1275.505954163161	3
2	6498	1275.776695946451	4
2	6500	1276.206449409091	5
2	6501	1276.34604946522	4
2	6505	1276.833247946539	5
2	6506	1277.23068358235	4
2	6509	1278.066005661692	3
2	6512	1278.967889515012	2
2	6515	1279.792115907166	1
2	6519	1279.893005463405	2
2	6521	1280.178528126495	3
2	6523	1280.562844284339	4
2	6524	1280.854390738886	3
2	6528	1281.02798642857	4
2	6530	1281.294622036475	5
2	6531	1281.65850037111	4
2	6535	1281.751926222257	5
2	6537	1282.229732565486	6
2	6539	1282.265948082158	7
2	6541	1282.740223790698	8
2	6542	1282.794452483282	7
2	6545	1283.799134127312	6
2	6549	1284.430468056142	7
2	6550	1284.701411146559	6
2	6554	1284.772163852781	7
2	6556	1285.114166413321	8
2	6557	1285.544253896438	7
2	6561	1286.283874972208	8
2	6562	1286.634828889538	7
2	6565	1287.805117534176	6
2	6568	1288.817239047103	5
2	6572	1288.952704839443	6
2	6574	1289.201198926275	7
2	6576	1289.671462339598	8
2	6577	1289.993392550275	7
2	6581	1290.272067077143	8
2	6583	1290.803734164643	9
2	6584	1290.831630971357	8
2	6587	1292.024289380274	7
2	6591	1292.564396700793	8
2	6592	1293.058826773501	7
2	6595	1294.105851223673	6
2	6598	1295.288956628814	5
2	6602	1296.236362367971	6
2	6603	1296.34673261417	5
2	6607	1296.36754849657	6
2	6609	1296.790410332633	7
2	6610	1297.306447569261	6
2	6613	1298.149237175638	5
2	6616	1299.087870518377	4
2	6620	1299.146838974932	5
2	6622	1299.276585047988	6
2	6624	1299.442126197396	7
2	6625	1300.069475331603	6
2	6628	1300.962556529956	5
2	6631	1301.878142122904	4
2	6635	1302.419816744087	5
2	6637	1302.656014244483	6
2	6638	1302.693181427641	5
2	6642	1302.98902128708	6
2	6643	1303.760206760632	5
2	6646	1304.635901113765	4
2	6650	1304.823145668435	5
2	6652	1305.36332672063	6
2	6653	1305.716303649617	5
2	6657	1306.044427809648	6
2	6659	1306.761859052549	7
2	6660	1306.831601022536	6
2	6663	1307.823640924858	5
2	6667	1308.063011911418	6
2	6669	1308.363620083709	7
2	6671	1308.44846946107	8
2	6673	1308.822686103394	9
2	6674	1308.875413294675	8
2	6678	1309.291037077957	9
2	6680	1309.493867948139	10
2	6682	1309.617789681268	11
2	6683	1309.745484505108	10
2	6687	1310.390275524881	11
2	6688	1310.611207565925	10
2	6691	1311.480490379575	9
2	6694	1312.38047634948	8
2	6698	1313.030589273044	9
2	6699	1313.375347416549	8
2	6703	1313.865226888422	9
2	6705	1313.985655540727	10
2	6706	1314.351453601829	9
2	6710	1314.543298641039	10
2	6712	1315.154300174562	11
2	6714	1315.358653913157	12
2	6715	1315.427078423909	11
2	6719	1316.511215823991	12
2	6721	1316.566320923039	13
2	6722	1316.606755465995	12
2	6726	1317.233294283261	13
2	6728	1317.420920878185	14
2	6729	1317.467665764112	13
2	6732	1318.439925245456	12
2	6736	1319.329228921026	13
2	6737	1319.579477703925	12
2	6741	1319.698436646739	13
2	6742	1320.745743055809	12
2	6746	1321.070441442951	13
2	6747	1321.76351333715	12
2	6751	1322.197377403747	13
2	6752	1322.573312103357	12
2	6756	1322.875305811443	13
2	6757	1323.399051356669	12
2	6761	1323.943644600708	13
2	6762	1324.584363949559	12
2	6765	1325.394125618394	11
2	6771	1326.215450301907	12
2	6772	1326.468571414407	11
2	6775	1327.27545752868	10
2	6778	1328.34604538016	9
2	6782	1329.375612005819	10
2	6783	1329.441297332737	9
2	6787	1329.772202021191	10
2	6788	1330.509560098014	9
2	6792	1330.710923858222	10
2	6794	1330.842913098041	11
2	6795	1331.440229738112	10
2	6799	1331.767014204005	11
2	6800	1332.369159451015	10
2	6803	1333.206308701895	9
2	6807	1333.665232139937	10
2	6809	1334.08905634568	11
2	6810	1334.140242798421	10
2	6813	1334.979025443904	9
2	6817	1335.338765355128	10
2	6818	1335.930433026496	9
2	6822	1336.424377215723	10
2	6823	1336.893964099679	9
2	6826	1337.769634134024	8
2	6829	1338.651237935554	7
2	6833	1338.903815037919	8
2	6834	1339.536877923906	7
2	6837	1340.517058782168	6
2	6843	1341.223768970263	7
2	6844	1341.38023894893	6
2	6848	1342.291938417961	7
2	6849	1342.431094340403	6
2	6852	1343.32167505974	5
2	6856	1343.39832986418	6
2	6858	1343.421001513841	7
2	6859	1344.313067610823	6
2	6863	1344.722656827725	7
2	6865	1344.722674174457	8
2	6867	1345.074284289277	9
2	6869	1345.343751742621	10
2	6870	1345.508010441326	9
2	6873	1346.378182457649	8
2	6877	1346.551329367001	9
2	6879	1346.591209804397	10
2	6881	1347.260383013328	11
2	6882	1347.376924090721	10
2	6885	1348.556506923568	9
2	6889	1349.479014872936	10
2	6890	1349.568435826786	9
2	6893	1350.391194774099	8
2	6897	1351.282600124729	9
2	6898	1351.406445758585	8
2	6901	1352.317204356734	7
2	6905	1352.690353738229	8
2	6906	1353.158604004681	7
2	6909	1354.12134114325	6
2	6913	1354.663539430678	7
2	6915	1354.92587516402	8
2	6916	1354.968541293386	7
2	6919	1355.926012444477	6
2	6922	1357.057407817039	5
2	6926	1357.88029971166	6
2	6927	1358.164249977171	5
2	6931	1358.180850559999	6
2	6933	1358.613632683476	7
2	6934	1359.08876313705	6
2	6938	1359.433484140429	7
2	6939	1359.89290806789	6
2	6943	1360.252228911908	7
2	6945	1360.300279019495	8
2	6947	1360.423587629692	9
2	6950	1360.927713029534	8
2	6954	1361.187445573898	9
2	6956	1361.725960200972	10
2	6957	1361.784828405902	9
2	6960	1362.607072322704	8
2	6964	1362.723178187679	9
2	6966	1362.786362718422	10
2	6968	1363.514710870875	11
2	6969	1363.787475198489	10
2	6973	1364.004004798366	11
2	6975	1364.268363183403	12
2	6976	1364.652777429	11
2	6980	1364.998787513692	12
2	6981	1365.637226525024	11
2	6985	1365.924208990906	12
2	6986	1366.562190775462	11
2	6989	1367.484416957927	10
2	6993	1367.829838631984	11
2	6995	1368.127651852652	12
2	6996	1368.306908544322	11
2	7000	1368.577345018915	12
2	7002	1368.722026593371	13
2	7003	1369.270084461087	12
2	7006	1370.335448321869	11
2	7009	1371.487853240577	10
2	7013	1371.980325418425	11
2	7014	1372.324780297728	10
2	7018	1372.637285755521	11
2	7019	1373.397799337079	10
2	7023	1374.223627123392	11
2	7024	1374.329160654341	10
2	7028	1374.331110926786	11
2	7030	1374.555043437802	12
2	7032	1375.235357641134	13
2	7033	1375.282542386261	12
2	7037	1375.632421279212	13
2	7038	1376.13581530748	12
2	7041	1376.938757595774	11
2	7045	1377.443362116612	12
2	7046	1378.018401156254	11
2	7050	1378.337555996484	12
2	7051	1379.139580457732	11
2	7057	1379.508887075822	12
2	7058	1379.969516590778	11
2	7062	1380.069398541539	12
2	7064	1380.837482759823	13
2	7065	1380.899384282604	12
2	7069	1381.034051894683	13
2	7070	1382.052706108876	12
2	7074	1382.375959865099	13
2	7075	1382.993929222487	12
2	7078	1383.96134554388	11
2	7082	1384.145439358374	12
2	7083	1384.794821619783	11
2	7087	1384.920632414888	12
2	7090	1385.65446087502	11
2	7093	1386.592401292716	10
2	7096	1387.598764824943	9
2	7100	1388.398294727887	10
2	7101	1388.610303689988	9
2	7106	1389.700508067367	8
2	7109	1390.765115141572	7
2	7113	1391.532161944174	8
2	7114	1391.914490513579	7
2	7118	1391.983746044469	8
2	7120	1392.933107322755	9
2	7121	1393.033243562543	8
2	7124	1394.184567922616	7
2	7127	1395.12966783995	6
2	7130	1396.193376363238	5
2	7133	1397.076948970167	4
2	7136	1398.145488050843	3
2	7139	1399.088472507784	2
2	7143	1399.150329864168	3
2	7144	1399.919646309392	2
2	7148	1400.569577955553	3
2	7149	1400.760445569904	2
2	7153	1401.493375104668	3
2	7154	1401.738898454217	2
2	7158	1402.557742471508	3
2	7159	1402.887351019663	2
2	7162	1403.963403006532	1
2	7165	1404.812489106209	0
2	7172	1406.208579202499	1
2	7173	1406.955065475294	0
2	7179	1407.734678422306	1
2	7180	1407.852499231772	0
2	7187	1409.156720191097	1
2	7189	1409.517636753968	2
2	7190	1409.555289796629	1
2	7196	1409.970349037166	2
2	7197	1410.569005297665	1
2	7201	1410.573594918264	2
2	7202	1411.586648040899	1
2	7205	1412.392330801004	0
2	7209	1413.234450880201	1
2	7210	1413.360555696377	0
2	7217	1414.546831974781	1
2	7219	1414.662807234348	2
2	7221	1414.958266124069	3
2	7222	1415.283663573937	2
2	7225	1416.217348030658	1
2	7230	1417.265731258487	0
2	7234	1417.40410431126	1
2	7235	1418.372636594047	0
2	7239	1419.273337631451	1
2	7240	1419.404245051538	0
2	7244	1420.083248984327	1
2	7247	1420.441415371728	0
2	7251	1420.441729632573	1
2	7253	1421.048768170146	2
2	7254	1421.286417695769	1
2	7258	1421.547280835383	2
2	7260	1422.290750680026	3
2	7261	1422.348433041182	2
2	7265	1422.658001812556	3
2	7267	1422.985949121471	4
2	7269	1423.135953514614	5
2	7270	1423.377270585374	4
2	7276	1424.046800592999	5
2	7277	1424.181532833521	4
2	7280	1425.37081861876	3
2	7284	1425.492223911018	4
2	7286	1426.299250471634	5
2	7287	1426.48248540096	4
2	7291	1426.889253606787	5
2	7293	1427.159328770916	6
2	7294	1427.320168791879	5
2	7297	1428.478075772878	4
2	7301	1429.516672743219	5
2	7302	1429.616736607887	4
2	7306	1429.683974767055	5
2	7308	1429.701637821579	6
2	7310	1430.498041208932	7
2	7311	1430.598843708337	6
2	7315	1430.716534736769	7
2	7317	1430.833348706479	8
2	7319	1431.382774100752	9
2	7321	1431.415773115335	10
2	7322	1431.786946431902	9
2	7326	1432.166146910828	10
2	7328	1432.381764468213	11
2	7330	1432.651224210723	12
2	7331	1432.689525782858	11
2	7335	1433.260033252114	12
2	7336	1433.747749362961	11
2	7340	1433.891278099521	12
2	7342	1434.474376044427	13
2	7344	1434.573010033377	14
2	7345	1434.660343455971	13
2	7349	1435.574201535109	14
2	7350	1435.656788906903	13
2	7353	1436.535505745728	12
2	7356	1437.689379082788	11
2	7360	1438.308949423265	12
2	7362	1438.519440181032	13
2	7363	1438.592013186477	12
2	7367	1438.817584754489	13
2	7369	1439.032982282674	14
2	7370	1439.453086320758	13
2	7374	1439.539650361504	14
2	7376	1439.95504567008	15
2	7377	1440.320733177643	14
2	7380	1441.333102263026	13
2	7384	1441.752688826564	14
2	7385	1442.506135149561	13
2	7389	1442.943189527979	14
2	7391	1443.293995122097	15
2	7392	1443.681327468977	14
2	7396	1443.81604617305	15
2	7397	1444.85236550279	14
2	7401	1445.277665027867	15
2	7402	1445.758650243916	14
2	7405	1446.599956492503	13
2	7409	1446.902941444738	14
2	7411	1447.142226020418	15
2	7413	1447.164376160143	16
2	7414	1447.576612319593	15
2	7417	1448.48969256131	14
2	7420	1449.555175330658	13
2	7424	1449.89179099078	14
2	7426	1450.139784262263	15
2	7427	1450.569914027844	14
2	7431	1450.597139972884	15
2	7433	1451.017402064442	16
2	7434	1451.466834515501	15
2	7438	1451.595871532007	16
2	7440	1451.810779277835	17
2	7443	1452.61759055702	16
2	7447	1453.211883405214	17
2	7448	1453.43976213064	16
2	7452	1453.850649549694	17
2	7453	1454.268365188296	16
2	7457	1454.658589298204	17
2	7458	1455.080071213263	16
2	7461	1455.91330597855	15
2	7465	1456.133591575005	16
2	7467	1456.52916805658	17
2	7470	1456.893202495834	16
2	7473	1458.0058931737	15
2	7476	1458.970753265058	14
2	7480	1459.031302663166	15
2	7482	1459.672752965597	16
2	7483	1459.93523835845	15
2	7487	1460.067789587197	16
2	7489	1460.379782686097	17
2	7491	1460.785572975041	18
2	7492	1460.959327327439	17
2	7496	1461.01421280378	18
2	7498	1461.698530417707	19
2	7499	1462.148159517327	18
2	7503	1462.198693993903	19
2	7504	1463.024525853133	18
2	7508	1463.154250932063	19
2	7509	1464.123482379763	18
2	7513	1464.173090010033	19
2	7514	1465.255286525915	18
2	7517	1466.290891598238	17
2	7521	1466.561224571134	18
2	7522	1467.371608288473	17
2	7525	1468.189673120788	16
2	7528	1469.272892244606	15
2	7532	1469.654671753945	16
2	7534	1469.744649708901	17
2	7536	1469.93394377363	18
2	7537	1470.186228610742	17
2	7541	1470.694188634585	18
2	7544	1471.02406826157	17
2	7548	1471.071084330059	18
2	7550	1471.949014288937	19
2	7551	1472.082044494132	18
2	7555	1472.732369918638	19
2	7556	1473.047584765943	18
2	7559	1474.147023298851	17
2	7562	1475.022043913397	16
2	7568	1475.735923014714	17
2	7571	1475.90562305048	16
2	7575	1476.538877045603	17
2	7576	1477.067000369522	16
2	7580	1477.653333366948	17
2	7581	1477.882216043565	16
2	7584	1478.715703171286	15
2	7588	1478.820083608971	16
2	7589	1479.623401670045	15
2	7593	1480.35783007334	16
2	7594	1480.565450234691	15
2	7598	1480.892855263475	16
2	7599	1481.476726033891	15
2	7603	1481.744703432304	16
2	7606	1482.39138670571	15
2	7609	1483.355306968911	14
2	7613	1483.536872361225	15
2	7614	1484.291020840666	14
2	7618	1484.883088569668	15
2	7619	1485.096375400739	14
2	7624	1486.13306839641	13
2	7628	1486.933968935421	14
2	7629	1487.072232297694	13
2	7633	1487.402313264274	14
2	7634	1487.993082220645	13
2	7638	1488.357514840123	14
2	7639	1488.8666806557	13
2	7643	1489.193173051679	14
2	7645	1489.316480141614	15
2	7647	1489.318489079864	16
2	7648	1489.735925656722	15
2	7651	1490.659333118402	14
2	7655	1490.673396213392	15
2	7656	1491.573496836775	14
2	7662	1492.397912565782	15
2	7663	1492.663452946001	14
2	7666	1493.559885446054	13
2	7669	1494.550563565061	12
2	7673	1494.596162562632	13
2	7674	1495.362317566272	12
2	7678	1495.602593779852	13
2	7679	1496.432097238373	12
2	7683	1496.708836184891	13
2	7685	1496.835799022212	14
2	7687	1497.350477389687	15
2	7689	1497.500616442392	16
2	7690	1497.556777184434	15
2	7694	1497.909667666782	16
2	7696	1498.10029187554	17
2	7697	1498.586680377345	16
2	7701	1499.290048709692	17
2	7703	1499.385927090243	18
2	7704	1499.552207438532	17
2	7707	1500.507700824249	16
2	7711	1500.593866849418	17
2	7713	1500.779816274442	18
2	7715	1500.834274578195	19
2	7716	1501.53277768211	18
2	7720	1502.292757383752	19
2	7721	1502.370447465475	18
2	7724	1503.495769339032	17
2	7727	1504.49842739522	16
2	7730	1505.546215394954	15
2	7734	1505.628281182871	16
2	7736	1506.082379513959	17
2	7738	1506.682884523953	18
2	7739	1506.685648979689	17
2	7742	1507.737499111122	16
2	7745	1508.8100117794	15
2	7749	1509.817099963721	16
2	7750	1509.955480359937	15
2	7754	1510.155731356684	16
2	7755	1510.804256081372	15
2	7758	1511.806037498056	14
2	7761	1512.873517620913	13
2	7765	1513.501755483975	14
2	7766	1513.961402502819	13
2	7770	1514.713565576653	14
2	7772	1514.86047613019	15
2	7773	1514.888916208572	14
2	7777	1514.965964211908	15
2	7778	1515.851806670311	14
2	7782	1516.31614250444	15
2	7783	1516.926389421779	14
2	7787	1517.910967587393	15
2	7788	1517.975099202968	14
2	7791	1518.811950804364	13
2	7795	1518.923118989911	14
2	7797	1519.837001336066	15
2	7798	1519.868960847497	14
2	7802	1519.978617670895	15
2	7803	1520.813237462822	14
[...]
6	129814	24990.752400425493	5301.909748143
6	129890	25005.242421002451	2421.1284116845
6	129923	25012.313698300763	1952.9317899137
6	129973	25022.99305704911	3709.2882078136
6	130094	25046.864106858472	2855.4951265781
6	130146	25057.456536651073	10110.21959578
6	130177	25062.88955911719	3717.9357488076
6	130402	25106.165356807735	484.33081353964
6	130498	25126.746897039699	8728.0190277683
6	130565	25140.182349593982	1963.5380158721
6	130617	25149.266805524422	2878.9397806092
6	130728	25170.361325378851	1483.6876370888
6	130805	25185.554672950549	6101.6320937098
6	130813	25187.387988092793	1959.2411661787
6	130969	25218.63970694332	4553.7181787477
6	131046	25233.754661009035	2887.367817337
6	131210	25264.285282064642	7184.167449263
6	131553	25330.645563877784	7205.5822577143
6	131630	25343.0978855641	499.01699916252
6	131672	25351.05708415093	2441.3676960979
6	131765	25368.182303358652	4973.1904573363
6	131789	25373.985189819094	2887.3802755726
6	131796	25375.030175893977	993.65605144745
6	131813	25377.831988816745	2889.1419733555
6	131845	25383.595801382455	993.69803017336
6	131869	25387.888905158489	8507.6738404172
6	131877	25389.9766031925	14383.482678351
6	131886	25391.074201110042	8209.1392087712
6	131910	25395.286244461629	6153.5138551214
6	131921	25398.350397829561	493.42490266956
6	131929	25400.3324226607	8511.5313024123
6	131988	25411.117324936054	4584.2494485298
6	132026	25417.120051643661	6528.7391380703
6	132038	25418.954288775138	992.05055891345
6	132061	25423.995362385957	6887.329660156
6	132066	25424.868679503667	1961.1065713132
6	132097	25431.744655758178	2435.949248305
6	132107	25433.548788256699	1473.5954387248
6	132176	25446.785720675566	990.93727490673
6	132225	25456.193980082065	4185.4333255014
6	132283	25468.393959683306	4594.9367040258
6	132347	25478.32388798635	496.3076363638
6	132412	25489.083661715532	1972.9633151927
6	132539	25514.826622897977	3361.6062925227
6	132546	25515.709217901094	10847.873664967
6	132611	25526.569076420026	5808.7105993779
6	132657	25534.779126959139	9479.9567822856
6	132682	25539.750764293627	6201.5282696854
6	132687	25540.942199147244	1476.2099694788
6	132692	25542.087539278095	499.30080719855
6	132779	25558.737606341983	1477.294504857
6	132796	25563.681418079263	7289.5668624706
6	132799	25564.568443120024	2449.1014084949
6	132824	25567.408605479854	1965.8426882508
6	132857	25574.447936728723	7294.6646422213
6	132872	25577.248331909473	6213.7305253768
6	132877	25578.194787939205	8276.7478457842
6	132893	25581.795986340135	4216.239519143
6	132948	25592.365856208778	7954.640348201
6	133042	25610.179973846986	1485.0953542195
6	133079	25616.770162917148	6963.6299202361
6	133144	25629.685601341199	8306.220443953
6	133453	25690.841639517187	495.11638475714
6	133469	25693.060517182233	9552.0264783781
6	133588	25713.981457164727	1003.544706504
6	133598	25715.796403541539	491.45873048731
6	133601	25716.617690283276	7672.0917611397
6	133616	25719.802461367595	2941.5533533722
6	133633	25722.974565184798	6989.2048373651
6	133647	25727.009246466805	1002.2091409153
6	133661	25729.061136566785	1500.4368860188
6	133667	25730.796740832024	492.17531505815
6	133677	25732.834931748764	3393.0935900951
6	133710	25739.428517730938	4661.0042764472
6	133743	25744.352091641197	2944.1162568468
6	133758	25747.668772417897	2475.4021889711
6	133776	25751.782458949773	10695.58625325
6	133788	25753.783158866441	5878.3704687987
6	133818	25759.914485940276	10970.944252767
6	133823	25761.006832919302	1007.5930282168
6	133872	25770.68801315821	489.18813225841
6	133896	25776.79357305526	5479.5400989326
6	133903	25777.931905114774	2470.7112755038
6	133953	25788.174669442635	489.30391387322
6	134017	25800.447374457616	12708.068608065
6	134029	25802.440941025812	490.45086942458
6	134133	25822.37024074209	1505.4705498633
6	134192	25833.646874519652	499.95044386579
6	134202	25835.733686341932	1510.2065197897
6	134227	25842.999540744004	4687.6517654453
6	134250	25848.547831197298	5485.7640495992
6	134313	25861.133058581812	3416.0217346668
6	134336	25864.272438238314	1014.0164256175
6	134434	25882.561463159168	2952.5549757519
6	134655	25922.987322691206	3844.0398907206
6	134673	25926.931545649778	2469.8154028792
6	134688	25930.400630902435	7395.5612447972
6	134711	25934.742281871132	1979.3345698715
6	134736	25939.095575106265	502.28111869388
6	134784	25949.766732160774	4277.7810328399
6	134812	25956.107918209237	1496.6163562729
6	134882	25967.680881698457	8086.4386113923
6	134991	25989.368421916599	9061.8348833528
6	135011	25993.482509132131	6307.183693263
6	135041	26001.18836572881	1986.1953965589
6	135070	26008.015565713896	7426.4273409362
6	135075	26008.962329777731	10532.236808003
6	135091	26011.083886768046	3428.6023847546
6	135227	26037.490603956331	511.7385739803
6	135244	26040.625763292082	512.55327661379
6	135275	26047.599445201488	5949.4373260044
6	135350	26065.094426682904	2965.3384187224
6	135377	26070.163403390661	1512.6157204593
6	135450	26085.399068706049	5129.8349174352
6	135608	26115.261120708413	1501.7136837211
6	135640	26119.444263472255	1996.8862442013
6	135649	26120.4311435141	1997.2064088463
6	135671	26124.223981240705	511.75013301739
6	135731	26136.524276342463	2002.8681276695
6	135766	26143.248379592819	13550.13762559
6	135831	26158.611315278185	4738.1181587117
6	135838	26159.797342256398	2004.1137511916
6	135922	26174.184289411118	10622.128491018
6	135928	26175.887637307251	2007.5101091289
6	135943	26178.630458927934	3904.7400542171
6	135985	26186.079399493838	516.43699293099
6	135996	26189.004840294774	5164.3257282789
6	136101	26210.163539709003	6765.8900299618
6	136134	26216.982206044757	2503.031518569
6	136153	26219.772572394313	1012.5967050403
6	136186	26226.439474460148	4343.4019385234
6	136212	26230.598116696104	1012.1889342519
6	136223	26233.223610662799	512.69443113515
6	136289	26245.073936535642	508.83572976378
6	136393	26265.372193859832	5179.5747530991
6	136410	26268.499449920689	514.2263476722
6	136418	26270.55432408828	1519.6036247806
6	136439	26275.974181083531	3907.3772450378
6	136496	26286.66600000666	2015.1993191565
6	136565	26300.84257418172	4779.5625578752
6	136622	26312.106981683092	1529.2063241236
6	136650	26316.122832621855	2503.0099956297
6	136731	26331.325787426844	6793.9698786442
6	136894	26361.812751075193	504.63514336976
6	136915	26364.625262341495	1016.3338510246
6	136918	26365.782641309253	12776.824187067
6	136955	26372.610388425211	1525.0127647494
6	137030	26388.280279826403	4787.2360475159
6	137075	26397.527012797662	8249.0597030274
6	137123	26405.165875798679	5204.5568694299
6	137348	26448.667508740193	6002.2114126743
6	137360	26450.594317379157	7550.9341463281
6	137423	26462.431647345079	7913.8633063654
6	137507	26478.552188191962	1009.9248384412
6	137545	26486.446929210265	1012.6379001826
6	137564	26489.286303674736	1014.6318350301
6	137587	26493.916666418248	507.14873722528
6	137595	26496.079976473124	1018.6771481954
6	137672	26509.125327694534	4796.0331762382
6	137722	26519.110984618987	2014.0009347669
6	137735	26522.214501270677	3471.5521819276
6	137778	26531.498818213984	10772.915511827
6	137810	26537.747148491189	5622.6682295724
6	137894	26553.710085433842	2015.5248251046
6	137929	26560.770447518239	4380.0226539143
6	138048	26585.144413843219	7960.4291992176
6	138064	26588.953591945795	1511.6381283331
6	138235	26618.914631522195	1014.7499103477
6	138247	26620.710573811764	6469.3700905461
6	138342	26641.239150190941	10246.913675924
6	138366	26645.32378309195	6479.9425470021
6	138415	26656.503790066606	2509.5302053362
6	138485	26668.513919486507	2007.7535505279
6	138506	26672.89244523191	501.77236854806
6	138633	26692.327936127625	497.60081009281
6	138640	26693.311801679276	4839.1214951015
6	138677	26700.496632254525	3948.2754400618
6	138703	26706.347539854916	6503.7245091049
6	138748	26715.045608431222	4403.765248261
6	138765	26718.035944757825	499.22745024542
6	138800	26725.1302161285	1014.850706946
6	138826	26730.79678892971	500.3798434752
6	138885	26742.007236506352	6082.9880526377
6	138998	26764.561478728643	1013.950587267
6	139061	26775.610962229155	1009.674915486
6	139125	26791.909175411548	3480.6983004362
6	139163	26799.650079305314	1006.4037131867
6	139191	26803.30960785675	5684.7332003804
6	139196	26804.267731849133	5281.1512983111
6	139214	26808.39991550495	493.68513416367
6	139312	26826.42177414841	1007.0476764813
6	139328	26828.212496648291	495.32417828897
6	139343	26831.411347938263	4873.4565841617
6	139351	26833.307154839979	3488.0663684317
6	139463	26855.723151642391	4424.0053029252
6	139607	26884.726556664828	496.84325174407
6	139665	26894.801816410787	6499.563506782
6	139672	26895.77369754187	496.61857422996
6	139764	26913.381132310752	10347.236063399
6	139773	26914.500653315365	2023.8535794737
6	139828	26925.123903600714	2996.5873252071
6	139984	26952.338385515595	6916.1406732678
6	140024	26960.28020224425	504.99662379301
6	140094	26974.595782297598	5705.4879093394
6	140181	26989.309018153818	1015.4071580536
6	140243	27000.613017587856	1015.1570505863
6	140430	27036.032426170193	506.54060911437
6	140460	27041.86392407718	16188.986739213
6	140494	27047.358872600764	3982.9264520415
6	140571	27063.912878239926	3010.0429671739
6	140765	27098.769571197244	4894.5380501573
6	140941	27132.168294899004	8829.3817687239
6	140962	27135.08058186269	6146.3194640323
6	140974	27136.989782375494	2021.7867990508
6	141017	27146.449750199658	2022.615389559
6	141078	27157.620335644413	9166.7574009049
6	141148	27171.552728006359	1009.1505415435
6	141157	27174.660289093781	3985.4206410546
6	141172	27177.811688004456	1009.1317974713
6	141414	27222.337264386865	10474.4336716
6	141478	27236.175606128779	4464.5362061798
6	141499	27239.473884757906	9528.4056334354
6	141502	27240.285663420912	3027.5149408392
6	141546	27248.260567833594	2534.2212123368
6	141559	27251.099720113369	5779.4177989767
6	141620	27262.575226824748	4918.5932738413
6	141699	27277.587020882145	4914.2022262805
6	141741	27285.283258330842	2527.7860503319
6	141758	27290.218598456887	5372.3897595257
6	141785	27295.081758922825	1513.53779354
6	141792	27296.173859791665	8516.2316033046
6	141854	27308.064853566161	999.95436426872
6	141918	27320.179546374848	5794.6435837694
6	141984	27333.794679176361	7801.0761740481
6	142068	27348.36892988125	4932.0007221347
6	142125	27358.802273262685	2531.9252636294
6	142227	27379.193449042481	500.82584498542
6	142267	27387.475152630102	8164.3287813891
6	142289	27391.451101069082	503.37774982457
6	142324	27399.063889445387	3031.691998818
6	142349	27403.862471875477	504.55276231117
6	142354	27404.814730448856	4930.0875236831
6	142444	27420.821692284216	1014.0375818943
6	142509	27434.099463112765	3513.281071507
6	142526	27437.400788794477	3025.5025217092
6	142587	27448.754376509992	1016.3235147831
6	142593	27450.518213865088	1528.0879412222
6	142607	27454.812644000372	511.39423241558
6	142676	27467.014039385991	2531.8877910702
6	142691	27470.523221137022	11173.255191603
6	142780	27484.78832629912	1018.573936419
6	142802	27490.362691452657	4474.9300485728
6	142805	27491.263938001753	1016.5678188371
6	142837	27499.212027869118	9287.7800513535
6	142898	27507.972535194945	1020.8269636544
6	142944	27516.122244263556	2535.2002118588
6	143023	27530.901233487972	7459.9625163638
6	143031	27533.053609567811	1024.8489652215
6	143114	27550.450963462541	4020.909299631
6	143123	27553.807695761906	3045.5054673259
6	143188	27564.886386951922	3534.7506379848
6	143323	27590.79029329105	2049.7341273867
6	143358	27599.809300766632	6658.7685449875
6	143361	27600.842983153954	2052.1210827368
6	143372	27603.932064308996	4018.9181082323
6	143510	27629.664658122257	523.86158104335
6	143544	27636.03549055199	4507.2532595853
6	143580	27643.714362625804	4511.1156764672
6	143769	27678.620933224846	5873.021411467
6	143858	27695.366171085581	4516.0403511556
6	143900	27703.462876816399	2548.4414692082
6	143937	27710.645697714786	1032.0480925539
6	143949	27712.467522552355	4986.7331343553
6	144033	27731.172688447988	2558.1556339995
6	144055	27734.957795979945	11895.108990112
6	144082	27740.274283272891	7141.1978933524
6	144250	27771.984353423514	1544.0334019279
6	144373	27796.020432048778	531.87489412247
6	144402	27801.248802404593	530.9180500279
6	144509	27821.750509893358	9401.9688393343
6	144567	27833.765834365901	1534.6212942986
6	144690	27856.711329648945	4532.5074561536
6	144707	27859.98173971914	1040.8184520982
6	144784	27872.750491131118	3558.1068581305
6	144812	27878.79674073823	7956.9094964007
6	144905	27897.878086625524	536.13021133103
6	144945	27903.789784317482	1041.3042056013
6	145029	27918.597170486412	5475.3710816699
6	145038	27921.503971275612	4544.5767545869
6	145115	27937.676511736884	11376.772842078
6	145143	27943.62550556885	1545.9694847344
6	145148	27944.632828225027	1039.3118076193
6	145198	27954.854134808965	4056.7254796067
6	145323	27978.001420687904	4051.5956610971
6	145360	27987.251864852031	7562.8171401047
6	145382	27991.36952370612	1556.6438094083
6	145387	27992.207759583202	535.83474500233
6	145639	28042.688852730787	1054.723463156
6	145657	28046.516391227974	539.75844197838
6	145710	28055.807985362244	4545.3692250981
6	145751	28063.008828187475	1057.5668423559
6	145817	28074.657898461372	3085.582254424
6	145915	28092.94963783577	3092.29265774
6	145925	28094.975123937911	5043.8634766433
6	145946	28099.539396057668	1061.9692870675
6	145967	28104.744854286982	6381.2040976896
6	146011	28112.661105913592	12345.299516462
6	146030	28115.564478678273	4568.479717612
6	146058	28121.50589486977	3589.334598926
6	146146	28139.385452080722	10849.35632884
6	146201	28150.710996436252	3091.6776014844
6	146263	28160.802273988462	10861.357999865
6	146352	28174.0226791423	1066.6782885372
6	146549	28212.869725792782	4570.6106312375
6	146585	28220.863839912901	4087.3948737564
6	146588	28222.063216833605	3097.3104539749
6	146594	28224.048075891493	4088.2521970949
6	146646	28235.724526282791	2595.0193512575
6	146766	28256.045599303507	1063.1837707177
6	146834	28267.844628338162	6840.7777078812
6	146842	28269.579814493954	6424.3258664838
6	146868	28273.813186785876	1582.4852133744
6	146935	28286.436169139035	7249.9073832043
6	147002	28299.651784711722	1586.2335416068
6	147043	28308.121588089523	538.54457006647
6	147061	28311.931860772727	11260.027570496
6	147200	28341.419048873822	8865.2286400678
6	147293	28358.328139146252	9213.9982147623
6	147401	28378.888909963632	1080.2125887577
6	147672	28430.629017756898	2088.4327627271
6	147766	28448.210634781533	1084.3539909461
6	147892	28473.438846738467	11922.162400694
6	147908	28477.147270357532	5561.2108738126
6	147993	28492.186329467891	2097.1872815403
6	148069	28506.501580871844	6888.7933941165
6	148093	28510.312906956782	6014.9600927779
6	148135	28518.087444632516	1084.7187325933
6	148159	28524.099421134885	8513.2438480258
6	148223	28536.565043530069	1079.8783831155
6	148237	28538.683423380755	2100.4454995507
6	148272	28545.277526615949	3121.2973420954
6	148297	28550.718075855465	6019.027827188
6	148332	28557.55491074558	538.93270923805
6	148377	28566.324557330474	3118.7286112458
6	148585	28604.130537591239	4119.6678455754
6	148671	28620.72354339484	1612.0840357698
6	148725	28630.747943753021	545.77923345855
6	148770	28639.479145739152	3140.668775865
6	148825	28648.429808989743	543.06482210475
6	149175	28713.840442368498	4626.830617316
6	149262	28729.388153287693	6955.6895338703
6	149312	28739.642096169404	5608.2821322286
6	149322	28741.7091100014	1097.8127482188
6	149384	28753.4595011729	10783.725929828
6	149439	28762.041462072843	3156.7846276612
6	149585	28790.380044342225	1631.4725192528
6	149615	28796.301826091689	548.16097340655
6	149645	28801.942511457038	8621.1698687803
6	149680	28809.120864008574	4149.0535600149
6	149697	28811.686713264159	3154.7220332016
6	149751	28821.390469585009	3159.3500994717
6	149805	28833.497728548594	6984.9836089713
6	149846	28840.471356574841	6985.4180031392
6	149912	28852.468836618796	6549.9093659462
6	149925	28855.320094906841	8629.2733049236
6	149936	28858.446903507901	4656.1392866737
6	150007	28873.540482376911	1629.6429789094
6	150055	28881.382641597022	555.58238480918
6	150098	28888.622679702774	4664.5032088225
6	150180	28905.899697567172	552.2443381991
6	150229	28916.814809958193	3158.8894371231
6	150398	28947.83882470543	3155.7008145599
6	150475	28961.10266809028	1101.3017499662
6	150542	28974.152507923751	5648.2722927175
6	150600	28983.781442108678	2151.4066313284
6	150752	29012.008042907733	10897.185079944
6	150817	29025.20099283142	2661.1867020437
6	150823	29027.30685602745	5653.8556229699
6	151094	29080.707744401155	4188.3351041589
6	151131	29085.56149336707	2665.7925021325
6	151139	29087.608385586572	6583.9661394541
6	151209	29100.029713827579	14723.968317274
6	151287	29115.763909462767	4671.9902876376
6	151343	29127.599701056556	2161.0376734087
6	151350	29128.510494614598	560.80920887876
6	151741	29198.503345878259	3706.3165930965
6	151805	29212.74150292857	1111.7507292166
6	151896	29229.591928315743	2184.3708522453
6	151989	29249.61031983674	4712.7942781017
6	152010	29254.221501524305	1116.9673181699
6	152013	29255.212723320374	4718.131772836
6	152068	29266.10978684372	3722.1839699335
6	152127	29277.369714996709	1120.9264344189
6	152162	29284.579402314803	4723.6689685238
6	152248	29298.984097343149	577.69036096133
6	152448	29334.895049222769	579.86118914734
6	152491	29344.184187798507	6669.2879679679
6	152501	29346.247392963178	9192.7244586505
6	152523	29351.952348457489	1137.8834352152
6	152628	29370.325135957102	4239.9655111789
6	152680	29380.512986503193	584.38970468538
6	152749	29393.532619625074	1140.1786645068
6	152760	29396.427433671639	4245.1423864153
6	152772	29398.756173223466	2722.6559593935
6	152803	29405.546702917688	3747.0588081241
6	152841	29413.70805460338	4253.6958452658
6	152844	29414.524708923627	7576.0884627975
6	152876	29420.459834047056	1683.9352846077
6	152883	29421.356559905152	7141.4593175232
6	152893	29423.477905954721	3745.7062579017
6	152933	29432.231201487708	2734.5536987374
6	153143	29474.544497654701	1687.1332663876
6	153158	29477.335469750336	586.76613688056
6	153210	29485.247506418286	7594.2917442248
6	153215	29486.306485900024	7145.4135323211
6	153410	29525.883023745217	2231.9896016091
6	153450	29534.113183789911	4764.8726106804
6	153478	29538.18543548512	1694.2105290602
6	153485	29539.091080175365	2235.46564672
6	153527	29547.095167805002	8024.207443649
6	153623	29568.006928715231	2238.9782162144
6	153722	29587.675234692758	5266.5844175052
6	153760	29593.84976993979	3761.3030792117
6	153772	29595.614284453197	3762.4350278523
6	153783	29598.595002583349	4775.0215184867
6	153821	29606.287098691547	6723.2263276303
6	153858	29613.07345648122	1156.5187119079
6	153873	29615.924308661492	15550.745858329
6	153961	29632.035445245105	6727.8111881886
6	154022	29645.365580830567	1155.5973374194
6	154311	29697.386509752394	3267.0115744337
6	154321	29699.399324781289	4283.2411860231
6	154333	29701.501093447888	8874.6256882514
6	154373	29709.103598618441	8876.1699194789
6	154381	29710.998239387971	9281.1244638898
6	154424	29719.864188457866	6243.7543216855
6	154544	29741.412452582763	590.30510928084
6	154590	29748.878400795469	1163.4838640461
6	154623	29755.964245176251	591.47979518933
6	154648	29760.583515826641	6742.6542918169
6	154658	29762.544150506547	8074.8397230125
6	154942	29818.426492136653	6768.4162631391
6	154974	29824.476531180396	1177.1992485995
6	154983	29825.424081189866	601.96659033124
6	154986	29826.504051417234	2271.5234204329
6	155118	29854.910107005324	3308.4747895068
6	155303	29890.282633062762	601.79216196297
6	155306	29891.386348232006	8142.7189258649
6	155363	29902.44217766396	5824.9335561151
6	155460	29919.75775486895	1195.9600176546
6	155548	29937.224061268317	3329.4641830773
6	155555	29938.075002879212	5832.9463538963
6	155630	29952.853245298686	1197.3434738906
6	155687	29963.695438476492	608.3128413174
6	155787	29981.731732557182	612.58340655438
6	155818	29986.90796425159	12005.905111128
6	155859	29993.619663547193	2302.7994463448

