version 2
run Second_exit_8-18-20191023-00:20:11-5240
attr configname Second_exit_8
attr datetime 20191023-00:20:11
attr experiment Second_exit_8
attr inifile omnetpp.ini
attr iterationvars ""
attr iterationvarsf ""
attr measurement ""
attr network ResponseTimeNetwork
attr processid 5240
attr repetition 18
attr replication #18
attr resultdir results
attr runnumber 18
attr seedset 18
param **.Source.interArrivalTime exponential(5s)
param **.jobPriority bernoulli(0.6)
param **.PS.serviceTimeU1 "uniform(0.8s, 1.2s)"
param **.PS.serviceTimeU2 "uniform(1.8s, 2.2s)"
param **.SS1.serviceTime exponential(1s)
param **.SS2.serviceTime exponential(1.2s)
param **.PS.exitProbability bernoulli(0.8)

vector 0 ResponseTimeNetwork.SS1 queueLength:vector ETV
attr interpolationmode sample-hold
attr title "queue length, vector"
vector 1 ResponseTimeNetwork.SS2 queueLength:vector ETV
attr interpolationmode sample-hold
attr title "queue length, vector"
vector 2 ResponseTimeNetwork.QueueU1 queueLength:vector ETV
attr interpolationmode sample-hold
attr title "queue length, vector"
vector 3 ResponseTimeNetwork.QueueU2 queueLength:vector ETV
attr interpolationmode sample-hold
attr title "queue length, vector"
vector 4 ResponseTimeNetwork.sink lifeTimeU1:vector ETV
attr interpolationmode none
attr title "lifetime of arrived jobs U1, vector"
attr unit s
vector 5 ResponseTimeNetwork.sink lifeTime:vector ETV
attr interpolationmode none
attr title "lifetime of arrived jobs, vector"
attr unit s
vector 6 ResponseTimeNetwork.sink lifeTimeU2:vector ETV
attr interpolationmode none
attr title "lifetime of arrived jobs U2, vector"
attr unit s
2	0	0	0
2	5	5.649734124413	1
2	6	6.227510014044	0
2	20	10.561084482645	1
2	21	11.19956247629	0
2	25	11.496579212478	1
2	26	12.339414449682	0
2	35	16.203242064206	1
2	37	17.10543932046	2
2	38	17.287586769466	1
2	42	17.628124885847	2
2	43	18.132228020117	1
2	47	18.485656441864	2
2	48	19.013648824491	1
2	52	19.349623930857	2
2	53	20.158299247645	1
2	57	20.379737201971	2
2	58	21.115252453	1
2	62	21.925053400747	2
2	63	22.195114702736	1
2	66	23.136071689618	0
2	75	25.589922987225	1
2	76	25.791393525615	0
2	85	26.972054278382	1
2	86	27.645740879229	0
2	95	29.926599815561	1
2	97	30.129430646861	2
2	98	30.540670339203	1
2	101	31.671826100255	0
2	105	32.475980134222	1
2	106	32.616307261771	0
2	120	36.038556014505	1
2	121	37.078158987019	0
2	125	37.254219129328	1
2	126	38.156254175942	0
2	150	48.107500249815	1
2	152	48.182240704262	2
2	153	48.793239191853	1
2	156	49.68048395722	0
2	160	50.444531192046	1
2	161	50.494732079774	0
2	165	51.500105125878	1
2	166	51.690131230492	0
2	175	53.171840195704	1
2	177	53.801662438695	2
2	178	53.810349926937	1
2	182	53.827160830809	2
2	184	54.385019176983	3
2	185	54.921199708271	2
2	191	55.030645008033	3
2	193	55.176364521419	4
2	196	56.116314204994	3
2	199	57.088417917609	2
2	202	57.99280901321	1
2	206	58.613067031596	2
2	208	58.797475713343	3
2	209	59.17048755924	2
2	213	59.280772285272	3
2	215	59.316781798708	4
2	217	60.035857799129	5
2	218	60.15528492511	4
2	221	61.042599038805	3
2	224	62.03297643664	2
2	228	62.130932320964	3
2	230	62.82823787288	4
2	231	62.887229922439	3
2	234	63.817695395674	2
2	240	64.613812184278	3
2	241	64.676902531951	2
2	244	65.740037881888	1
2	249	66.816564629066	0
2	256	68.124608558674	1
2	257	68.94169163902	0
2	263	69.672340160342	1
2	264	69.858828978266	0
2	268	70.308393430474	1
2	269	70.690469247408	0
2	273	71.221708935233	1
2	275	71.695213399083	2
2	276	71.856596078098	1
2	280	71.882491614366	2
2	282	71.931162135341	3
2	283	72.821119743239	2
2	286	73.716049817975	1
2	290	73.908843910456	2
2	292	73.934759395947	3
2	293	74.702589402932	2
2	296	75.815425280693	1
2	300	75.825764846268	2
2	302	76.351316729586	3
2	303	76.936838974084	2
2	307	78.011913189256	3
2	308	78.112667979419	2
2	311	79.103078568939	1
2	315	79.428498403673	2
2	316	80.162034771245	1
2	322	80.831989438934	2
2	323	81.032071499459	1
2	326	81.894102965973	0
2	333	83.495920465143	1
2	334	83.990143817968	0
2	340	84.498259583549	1
2	341	84.930219869062	0
2	348	86.036094100958	1
2	350	86.808069503832	2
2	351	86.993634363569	1
2	356	87.91090939746	0
2	363	89.770544392863	1
2	364	90.143346827502	0
2	385	93.163387965859	1
2	386	93.98405652505	0
2	402	96.461212253981	1
2	403	97.178647914181	0
2	412	98.096002641017	1
2	413	98.866962733983	0
2	420	100.35966870891	1
2	421	100.88915470599	0
2	432	102.240099157309	1
2	433	102.966877146743	0
2	437	103.127995036056	1
2	438	104.048951196883	0
2	457	108.232470052479	1
2	458	108.402075313057	0
2	524	123.177019301144	1
2	527	123.761770635684	0
2	534	125.421579625488	1
2	535	125.52843049339	0
2	544	127.018970442896	1
2	545	127.601057304469	0
2	554	129.297503430745	1
2	555	129.441100315776	0
2	569	131.363999372186	1
2	570	132.055046278264	0
2	574	132.134772201639	1
2	575	132.981498906694	0
2	581	133.939153348514	1
2	582	134.068311909891	0
2	586	134.55537678371	1
2	587	135.145074119165	0
2	591	135.148718707675	1
2	593	135.322946270721	2
2	594	135.995805378936	1
2	597	136.800898515273	0
2	604	138.454347856603	1
2	606	138.663424558443	2
2	607	138.686834014047	1
2	611	139.384984063299	2
2	612	139.862110666957	1
2	616	139.909760519238	2
2	622	140.535667652335	3
2	623	141.041447668456	2
2	627	141.793123313776	3
2	628	142.069618472856	2
2	632	143.127301165226	3
2	633	143.258249059998	2
2	636	144.106012412839	1
2	640	144.485365422286	2
2	641	144.915174607493	1
2	645	145.198339214026	2
2	647	145.479023239342	3
2	648	146.010673651125	2
2	653	147.185782969303	1
2	657	147.412185068368	2
2	659	147.879169469344	3
2	660	148.26578659781	2
2	663	149.091211903959	1
2	666	150.077501401703	0
2	673	151.624382461014	1
2	674	151.844228324599	0
2	678	151.882144280991	1
2	679	152.699548884414	0
2	689	154.583497343692	1
2	691	154.995297784116	2
2	692	155.254903130911	1
2	696	155.735868611282	2
2	699	156.081341052174	1
2	703	156.308865322204	2
2	705	156.602825075899	3
2	707	156.656930404261	4
2	709	156.905613817866	5
2	710	157.086600057061	4
2	714	157.795201200916	5
2	715	157.892037816557	4
2	721	158.808495894557	5
2	722	158.943204153261	4
2	726	158.950380989106	5
2	727	159.750808354026	4
2	731	159.760430776646	5
2	732	160.780055250066	4
2	735	161.931458957984	3
2	738	163.021226338322	2
2	741	164.027939672979	1
2	744	165.20762336834	0
2	748	165.227275337585	1
2	750	165.472136331524	2
2	751	166.097226545239	1
2	755	166.339605538719	2
2	757	166.424772148484	3
2	758	166.927762941947	2
2	762	167.871103605744	3
2	763	167.925190713746	2
2	767	167.963413199195	3
2	768	169.017178836395	2
2	772	169.113782945988	3
2	775	170.017087989417	2
2	778	170.852815363393	1
2	783	171.92238188649	0
2	787	172.252052772563	1
2	789	172.403451694582	2
2	791	172.625032612056	3
2	792	173.012660339963	2
2	796	173.153859691381	3
2	799	173.935910609573	2
2	802	174.961918309912	1
2	806	175.63196877458	2
2	808	175.866523908336	3
2	809	175.888144588213	2
2	813	176.259313613567	3
2	815	176.639156039382	4
2	816	176.972282186266	3
2	819	177.832742416974	2
2	823	178.391730720044	3
2	825	178.495070670443	4
2	826	178.745560730737	3
2	829	179.689994647842	2
2	833	180.001650632143	3
2	834	180.606398781318	2
2	839	181.437623814422	1
2	842	182.472012672316	0
2	846	182.688410640887	1
2	848	182.971177443329	2
2	849	183.458858688943	1
2	853	183.656426833945	2
2	854	184.52284475651	1
2	858	184.618550706877	2
2	861	185.469153225165	1
2	865	186.162987445515	2
2	866	186.352593902521	1
2	871	187.291961926896	0
2	878	188.616976918461	1
2	880	189.125402922051	2
2	881	189.321564769022	1
2	886	190.3383654983	0
2	893	191.373172488145	1
2	895	191.417714788283	2
2	896	192.340428912475	1
2	900	192.499856840825	2
2	901	193.428589140552	1
2	905	193.644952130866	2
2	908	194.338459533847	1
2	914	194.838647071962	2
2	915	195.369365726898	1
2	919	196.371031761103	2
2	920	196.473935119549	1
2	923	197.409171854912	0
2	927	198.017408353766	1
2	928	198.432999461817	0
2	934	198.474034845871	1
2	935	199.375576856008	0
2	939	199.856383375932	1
2	940	200.459269953074	0
2	944	201.239638357753	1
2	945	201.409811308442	0
2	954	202.581654042266	1
2	955	203.223321912738	0
2	962	204.911650760665	1
2	963	205.194951833619	0
2	995	211.484220566381	1
2	997	212.070466109061	2
2	998	212.39122927731	1
2	1001	213.200579786786	0
2	1012	214.592655869365	1
2	1014	215.09338822273	2
2	1015	215.15838758817	1
2	1018	216.222700283602	0
2	1022	216.227353039629	1
2	1024	216.453273788188	2
2	1025	217.159251551256	1
2	1029	217.354598829354	2
2	1030	218.240978796799	1
2	1035	219.182716635354	0
2	1039	219.390751972981	1
2	1040	220.086048009265	0
2	1047	221.630885968648	1
2	1048	221.872545888293	0
2	1055	223.325967145495	1
2	1059	223.615177867138	2
2	1060	223.780319241546	1
2	1064	224.453105732423	2
2	1065	224.975240462385	1
2	1068	225.97915190395	0
2	1072	226.100659460008	1
2	1078	226.663988312776	2
2	1079	227.017967604678	1
2	1082	228.05265879428	0
2	1086	228.550265253701	1
2	1088	228.707295264394	2
2	1089	228.951430360712	1
2	1093	229.582580098674	2
2	1094	230.124705338962	1
2	1097	231.104242031294	0
2	1101	231.874561368959	1
2	1102	232.021866793855	0
2	1106	232.387159936126	1
2	1108	232.428364480567	2
2	1110	233.038421722384	3
2	1111	233.092819113581	2
2	1115	233.773250231261	3
2	1116	234.292359559255	2
2	1120	234.942110799677	3
2	1121	235.280466118099	2
2	1125	235.772484102842	3
2	1126	236.408356427418	2
2	1130	236.436198305077	3
2	1131	237.350131645163	2
2	1135	237.962059674563	3
2	1136	238.265005859004	2
2	1139	239.448904508928	1
2	1142	240.311728688812	0
2	1152	242.773608129764	1
2	1154	243.00257203666	2
2	1156	243.097307778251	3
2	1157	243.181200640946	2
2	1160	243.985898420233	1
2	1164	244.263120151306	2
2	1166	244.876243401408	3
2	1167	244.971464639827	2
2	1171	245.239789517687	3
2	1172	246.029092466384	2
2	1175	247.052597159073	1
2	1180	248.035584856589	0
2	1184	248.414100424701	1
2	1186	248.982718138134	2
2	1187	249.168443853893	1
2	1190	250.203067662772	0
2	1194	250.857206770559	1
2	1195	251.174210148696	0
2	1199	252.097760747598	1
2	1200	252.23830954453	0
2	1204	253.07935312624	1
2	1206	253.311851246938	2
2	1207	253.364356117435	1
2	1210	254.343129232545	0
2	1214	254.448505972865	1
2	1216	254.820273760971	2
2	1217	255.276249831841	1
2	1221	255.489730043753	2
2	1223	256.214987341955	3
2	1224	256.329813244958	2
2	1228	256.999550489061	3
2	1229	257.403194749002	2
2	1233	258.227503439839	3
2	1234	258.485252185837	2
2	1238	258.844654405217	3
2	1240	259.03203040788	4
2	1241	259.491664933339	3
2	1245	260.485421727731	4
2	1248	260.628750876263	3
2	1252	260.856413436019	4
2	1254	261.175451907876	5
2	1255	261.499402299077	4
2	1259	261.539331145596	5
2	1260	262.323819907215	4
2	1264	262.468881786446	5
2	1266	262.950051176891	6
2	1267	263.386689337642	5
2	1271	264.253314908976	6
2	1272	264.280080717263	5
2	1276	264.443779757564	6
2	1277	265.38199120911	5
2	1281	265.517197800177	6
2	1282	266.217326664386	5
2	1286	266.284509400327	6
2	1288	266.969041292551	7
2	1289	267.381322023665	6
2	1294	268.196042063293	5
2	1298	268.593439348576	6
2	1300	268.605059502528	7
2	1302	269.098283403999	8
2	1303	269.393210758009	7
2	1308	270.390725406651	6
2	1312	270.481481666372	7
2	1314	270.614993656526	8
2	1315	271.276617548913	7
2	1319	271.930349952374	8
2	1322	272.402792081349	7
2	1326	272.829860695028	8
2	1327	273.534116105568	7
2	1331	274.374591658091	8
2	1333	274.400682658364	9
2	1334	274.585470223073	8
2	1337	275.561943364069	7
2	1341	276.252117702329	8
2	1342	276.391782663874	7
2	1346	277.370914926861	8
2	1347	277.389930139314	7
2	1351	277.934636624722	8
2	1353	277.955296051972	9
2	1354	278.49011247551	8
2	1358	278.777648227939	9
2	1359	279.489347504842	8
2	1363	279.895872116496	9
2	1364	280.521245724632	8
2	1368	280.580908656984	9
2	1369	281.321433484478	8
2	1373	281.492999025622	9
2	1375	281.952039529186	10
2	1376	282.332839534635	9
2	1379	283.247561243659	8
2	1384	284.365093680488	7
2	1388	284.386694233887	8
2	1390	285.125046791475	9
2	1392	285.25445702119	10
2	1393	285.477313616702	9
2	1396	286.426558436842	8
2	1400	286.877989016991	9
2	1401	287.455065637377	8
2	1404	288.638397141003	7
2	1407	289.542888204117	6
2	1412	290.62752365546	5
2	1415	291.722229269721	4
2	1419	291.842513990859	5
2	1420	292.701533302121	4
2	1424	293.087247450555	5
2	1426	293.191766836846	6
2	1428	293.248987438891	7
2	1429	293.555439425182	6
2	1432	294.438716719129	5
2	1435	295.473801669028	4
2	1439	296.033953020171	5
2	1441	296.122496277789	6
2	1443	296.281094109234	7
2	1445	296.331539945855	8
2	1446	296.405912497096	7
2	1450	296.578097071854	8
2	1452	296.977407915289	9
2	1453	297.453524064567	8
2	1457	298.278479022079	9
2	1458	298.385701184176	8
2	1462	298.394575401005	9
2	1463	299.465021446642	8
2	1467	299.820424077764	9
2	1469	300.363872184753	10
2	1470	300.598640594833	9
2	1474	300.969476934927	10
2	1475	301.433141542241	9
2	1479	301.525060425355	10
2	1480	302.530256513149	9
2	1484	303.193761749265	10
2	1485	303.355322614048	9
2	1488	304.205376386192	8
2	1492	304.208590192993	9
2	1494	304.646184349974	10
2	1496	304.708893350941	11
2	1497	305.312358221799	10
2	1501	306.281741658334	11
2	1502	306.493678130038	10
2	1506	306.767321889862	11
2	1507	307.451415142711	10
2	1511	307.610595015016	11
2	1512	308.632404491972	10
2	1517	309.525517263464	9
2	1520	310.37255419103	8
2	1524	310.479224047442	9
2	1526	310.55593084783	10
2	1527	311.334837476923	9
2	1531	311.36352467834	10
2	1532	312.234259562022	9
2	1536	312.341870806543	10
2	1538	312.375839718826	11
2	1539	313.136670717425	10
2	1542	313.990055977567	9
2	1546	314.080936765706	10
2	1547	314.909362109578	9
2	1551	314.924492341274	10
2	1552	315.922963965791	9
2	1556	316.384157915866	10
2	1558	316.810949521818	11
2	1559	316.997521371501	10
2	1563	317.018094828434	11
2	1565	317.447767849045	12
2	1566	317.900553685999	11
2	1569	318.900980602125	10
2	1572	319.867754310755	9
2	1577	321.012257083053	8
2	1581	321.081065374053	9
2	1583	321.428362972368	10
2	1584	321.984329656152	9
2	1587	322.798270238949	8
2	1590	323.980337153016	7
2	1593	324.805972894388	6
2	1597	324.885370487069	7
2	1599	325.18456128883	8
2	1600	325.729603924523	7
2	1604	325.740523747551	8
2	1606	326.142400447207	9
2	1608	326.270557548695	10
2	1610	326.297868306559	11
2	1612	326.599037058519	12
2	1613	326.828066264666	11
2	1616	327.714464291106	10
2	1620	327.784660319483	11
2	1622	328.217353996239	12
2	1623	328.884251532811	11
2	1626	329.903782935362	10
2	1630	329.996550648015	11
2	1632	330.112105921067	12
2	1633	331.071620044313	11
2	1636	331.984657469779	10
2	1640	332.388572885051	11
2	1641	333.163262097552	10
2	1645	333.370921649739	11
2	1646	334.205759722475	10
2	1649	335.177618718721	9
2	1652	336.192488610853	8
2	1655	337.004705673006	7
2	1658	337.929593170915	6
2	1661	338.791153088879	5
2	1665	339.031615648102	6
2	1667	339.285444259734	7
2	1668	339.782487953469	6
2	1671	340.61121115658	5
2	1675	341.769677411103	6
2	1676	341.790738878227	5
2	1680	342.400472663524	6
2	1682	342.84371751283	7
2	1683	342.944567772946	6
2	1686	343.885593481655	5
2	1690	344.748304929263	6
2	1691	344.801154580819	5
2	1695	344.904428864334	6
2	1697	345.325417136547	7
2	1699	345.68767390592	8
2	1702	345.809162058136	7
2	1705	346.91643344724	6
2	1709	347.608977575743	7
2	1710	347.806746642118	6
2	1713	348.746039449809	5
2	1717	349.190074855466	6
2	1718	349.5732397725	5
2	1722	349.846028749403	6
2	1724	350.639360597304	7
2	1725	350.764753063688	6
2	1729	351.676259355118	7
2	1730	351.793332633296	6
2	1734	352.698545712469	7
2	1735	352.854963110493	6
2	1739	353.196283969223	7
2	1740	353.747686389287	6
2	1744	354.142084855944	7
2	1745	354.708416509082	6
2	1749	355.140854480619	7
2	1750	355.867761897308	6
2	1754	356.209032838107	7
2	1755	356.801356504404	6
2	1759	357.560243947091	7
2	1760	357.966725686763	6
2	1764	358.016453486639	7
2	1766	358.206871288931	8
2	1768	358.784645799903	9
2	1769	359.036758996837	8
2	1773	359.574499948313	9
2	1774	359.944529365108	8
2	1777	360.927419121389	7
2	1780	361.797697034211	6
2	1784	361.944468113042	7
2	1786	361.960637264908	8
2	1788	362.480721796333	9
2	1789	362.817988998641	8
2	1793	362.980343379608	9
2	1794	363.890574778256	8
2	1798	363.975098616115	9
2	1799	364.752201072884	8
2	1802	365.904628263985	7
2	1806	365.982516659991	8
2	1808	366.781540808449	9
2	1809	366.88402244422	8
2	1813	366.897533083912	9
2	1814	367.977835617693	8
2	1818	369.067888053146	9
2	1819	369.094039792767	8
2	1823	369.619968396562	9
2	1824	370.107545720799	8
2	1828	370.111474032861	9
2	1829	370.968344197435	8
2	1832	371.92916523713	7
2	1836	372.413942857571	8
2	1837	372.93635800212	7
2	1841	373.781290730442	8
2	1842	374.021268273064	7
2	1846	374.174660947271	8
2	1847	375.056209541683	7
2	1851	375.866594546377	8
2	1852	375.923530639068	7
2	1855	376.917903284088	6
2	1858	377.82823106955	5
2	1862	377.902056971451	6
2	1864	378.157249715513	7
2	1865	378.840775518503	6
2	1869	379.409268933341	7
2	1870	379.863173519086	6
2	1873	380.714504124049	5
2	1879	381.60866279048	6
2	1880	381.783905160531	5
2	1884	381.974026896542	6
2	1886	382.076658303899	7
2	1888	382.439692079599	8
2	1889	382.947625275712	7
2	1892	383.75769582485	6
2	1895	384.635651568148	5
2	1898	385.753499816742	4
2	1902	386.548447917544	5
2	1903	386.554279149801	4
2	1907	386.636204514971	5
2	1908	387.399915192195	4
2	1912	387.554848653137	5
2	1914	387.801333497553	6
2	1915	388.258280318894	5
2	1919	388.885725720754	6
2	1920	389.226546481915	5
2	1923	390.245660051622	4
2	1928	391.404180124041	3
2	1931	392.33952236009	2
2	1935	392.743526166122	3
2	1937	392.820521920097	4
2	1938	393.460416522447	3
2	1941	394.618881097354	2
2	1945	395.293774401353	3
2	1947	395.583147133187	4
2	1948	395.811945473041	3
2	1952	395.826283841126	4
2	1953	396.620805446628	3
2	1956	397.666834498301	2
2	1959	398.733008780993	1
2	1963	399.050884142153	2
2	1964	399.708846839901	1
2	1968	400.092110440602	2
2	1969	400.606477494176	1
2	1972	401.65089130859	0
2	1976	401.789611639088	1
2	1977	402.718627189576	0
2	1981	402.891811232937	1
2	1984	403.522917900524	0
2	1991	405.30665019769	1
2	1992	405.640149194851	0
2	1996	406.091478869893	1
2	2001	406.817479699116	0
2	2008	407.793206583831	1
2	2009	408.666491803258	0
2	2016	409.964723253268	1
2	2019	410.776054689578	0
2	2031	413.121879280381	1
2	2034	413.667983540157	0
2	2044	415.997193508721	1
2	2045	416.679099219768	0
2	2049	417.732138815049	1
2	2052	417.804769060678	0
2	2056	417.916164554402	1
2	2059	418.628714107081	0
2	2066	419.627806570385	1
2	2067	420.622274815023	0
2	2076	421.793891837176	1
2	2078	422.096027465959	2
2	2079	422.417248921946	1
2	2082	423.321926862106	0
2	2086	423.798610808839	1
2	2087	424.393798640009	0
2	2099	426.579284476491	1
2	2100	427.332600994513	0
2	2117	431.614214674773	1
2	2118	431.669892631763	0
2	2137	435.232921454692	1
2	2138	435.535389993911	0
2	2160	439.863399012591	1
2	2163	440.553412584414	0
2	2177	442.850842881392	1
2	2178	443.504533910112	0
2	2187	444.684620548489	1
2	2192	445.552331101442	0
2	2217	451.027969882027	1
2	2221	451.528175169972	2
2	2222	451.541591032142	1
2	2225	452.428666861089	0
2	2242	456.539328068083	1
2	2243	456.688272493626	0
2	2254	458.018312955958	1
2	2255	458.429264072529	0
2	2262	459.842689163126	1
2	2263	460.607685115482	0
2	2325	473.702329961219	1
2	2326	473.852712170514	0
2	2333	475.17904071973	1
2	2334	475.746534829693	0
2	2341	476.809852002635	1
2	2345	477.428665123034	2
2	2346	477.502275610821	1
2	2351	478.357812063781	0
2	2355	478.782734337463	1
2	2356	479.337151980319	0
2	2368	481.340556185985	1
2	2371	482.494588161737	0
2	2375	483.472557855035	1
2	2376	483.6351744488	0
2	2380	484.442616260357	1
2	2381	484.73272569218	0
2	2390	486.321832823104	1
2	2391	486.79994903506	0
2	2402	488.685207208584	1
2	2403	488.719306324806	0
2	2412	489.818991384717	1
2	2414	490.273934178081	2
2	2415	490.619703525316	1
2	2419	490.623352968543	2
2	2420	491.691899214789	1
2	2423	492.674979478877	0
2	2430	494.063803166927	1
2	2432	494.065235132049	2
2	2433	494.481124424386	1
2	2439	495.293670409552	2
2	2440	495.581300926498	1
2	2444	496.091829630403	2
2	2445	496.728209536533	1
2	2449	497.542599536564	2
2	2450	497.727775890577	1
2	2454	498.473047370022	2
2	2456	498.530137197046	3
2	2457	498.871613823633	2
2	2460	499.866460879251	1
2	2463	500.707243458844	0
2	2467	501.092506129632	1
2	2468	501.872243438299	0
2	2472	502.518678358604	1
2	2473	502.793050395894	0
2	2477	503.41484696939	1
2	2480	503.877868147298	0
2	2484	504.324163559692	1
2	2485	505.059510502509	0
2	2502	508.71649674706	1
2	2503	509.063631537846	0
2	2507	509.688856674041	1
2	2510	510.153642571262	0
2	2517	511.291220675333	1
2	2519	511.386788281428	2
2	2520	511.912105103685	1
2	2523	512.784446621603	0
2	2530	514.597740174865	1
2	2531	514.871649453892	0
2	2540	516.035584591757	1
2	2541	516.872613569079	0
2	2613	531.601688899342	1
2	2614	531.756924713692	0
2	2621	533.378209079548	1
2	2622	533.716970310742	0
2	2629	534.960488704622	1
2	2631	534.972987819652	2
2	2632	535.684640363241	1
2	2637	536.62337613619	0
2	2641	536.832125883487	1
2	2642	537.425321407906	0
2	2739	558.051118587307	1
2	2741	558.742821237163	2
2	2742	559.071871690369	1
2	2747	559.911887563682	0
2	2751	560.62376327149	1
2	2754	560.809761498506	0
2	2762	561.723358133448	1
2	2763	561.837244357644	0
2	2767	562.723716688785	1
2	2768	563.008894351786	0
2	2772	563.47451083323	1
2	2775	564.020692100851	0
2	2779	564.313147799147	1
2	2780	564.988207760276	0
2	2784	565.200079386424	1
2	2785	566.119580009775	0
2	2789	566.445261119753	1
2	2791	566.518080470397	2
2	2792	566.97519884306	1
2	2795	567.841878988137	0
2	2799	568.274033671049	1
2	2800	568.932210704227	0
2	2815	572.365857145557	1
2	2816	572.686607795776	0
2	2820	572.771967010855	1
2	2823	573.521668455572	0
2	2827	573.764086336679	1
2	2829	574.205646468976	2
2	2830	574.512502579679	1
2	2834	574.67902126048	2
2	2835	575.505401633595	1
2	2838	576.328672334188	0
2	2918	594.799681078152	1
2	2919	595.106521349502	0
2	2928	596.59396693019	1
2	2929	597.015239933049	0
2	2940	598.165414965436	1
2	2945	599.074972863597	0
2	2954	600.508413680493	1
2	2955	601.039264440546	0
2	2964	602.806109394611	1
2	2965	602.908584476365	0
2	2972	603.796823730013	1
2	2973	604.662765981359	0
2	2986	606.15015260927	1
2	2987	606.609594963034	0
2	2999	608.707494437243	1
2	3000	609.351014974815	0
2	3006	610.085985323579	1
2	3007	610.386186176733	0
2	3011	610.879134485085	1
2	3012	611.352362625868	0
2	3016	611.552757821136	1
2	3017	612.496103359115	0
2	3021	612.530517529894	1
2	3022	613.339526667081	0
2	3029	614.655113745035	1
2	3030	615.214839383595	0
2	3034	615.693766291276	1
2	3035	616.205421223592	0
2	3039	616.617527153592	1
2	3040	617.200744894993	0
2	3044	618.011998511012	1
2	3045	618.088326719132	0
2	3059	620.446877532434	1
2	3060	620.775849987854	0
2	3064	621.377084211135	1
2	3067	621.794341282927	0
2	3071	621.934211416212	1
2	3073	622.563143762363	2
2	3074	622.720072784283	1
2	3078	622.769284531409	2
2	3080	623.028331090801	3
2	3082	623.167441514009	4
2	3083	623.664413505801	3
2	3087	623.860666552088	4
2	3088	624.829366811839	3
2	3091	625.716476518855	2
2	3094	626.726103744757	1
2	3099	627.844742665168	0
2	3103	628.585533354836	1
2	3104	628.897669858027	0
2	3108	629.732885835585	1
2	3109	629.734654665094	0
2	3113	629.964205365947	1
2	3114	630.684419477087	0
2	3118	630.924327696089	1
2	3120	631.614578012863	2
2	3121	631.749814495173	1
2	3124	632.849650327869	0
2	3128	632.873220403897	1
2	3130	633.158599493138	2
2	3132	633.637543129869	3
2	3135	633.927431842972	2
2	3138	634.805260178827	1
2	3142	635.21081236258	2
2	3143	635.647218814127	1
2	3147	636.079130453536	2
2	3149	636.37753691387	3
2	3150	636.693792484056	2
2	3154	637.233828261407	3
2	3155	637.750242703508	2
2	3159	637.860756137481	3
2	3160	638.662337938424	2
2	3163	639.847163015518	1
2	3166	640.67351763007	0
2	3173	641.748338400382	1
2	3175	642.143986349832	2
2	3176	642.473090433616	1
2	3180	643.082394727213	2
2	3181	643.536482905604	1
2	3184	644.723950686686	0
2	3188	644.809906062018	1
2	3190	645.371072088708	2
2	3192	645.420500075813	3
2	3193	645.841014559202	2
2	3197	646.585372731953	3
2	3198	646.884041052133	2
2	3204	647.551309759131	3
2	3205	647.836196750596	2
2	3208	648.96513534785	1
2	3212	649.524994379442	2
2	3213	650.105615123368	1
2	3216	651.038572911366	0
2	3220	651.167754861729	1
2	3221	652.05028781044	0
2	3225	652.161500892852	1
2	3227	652.991140765558	2
2	3228	653.085275280575	1
2	3232	653.369490104548	2
2	3233	654.180536301161	1
2	3236	655.123603174004	0
2	3243	656.413063707421	1
2	3245	656.834902843365	2
2	3246	657.098251815053	1
2	3251	658.054743147647	0
2	3258	659.157906245754	1
2	3259	660.033499284933	0
2	3270	662.186324322781	1
2	3271	662.21979823169	0
2	3280	664.070090630113	1
2	3281	664.219737592067	0
2	3295	666.704955467754	1
2	3297	666.9170209294	2
2	3298	667.212080802682	1
2	3303	668.194523347083	0
2	3307	668.312082874294	1
2	3308	669.248544152274	0
2	3312	669.903457354975	1
2	3313	670.447771141219	0
2	3322	671.332426214093	1
2	3323	672.324423297315	0
2	3327	672.447892666968	1
2	3329	673.361635317416	2
2	3332	673.470017317037	1
2	3335	674.521761038347	0
2	3339	675.407135196741	1
2	3340	675.502345240402	0
2	3347	676.938746932117	1
2	3349	677.086736360079	2
2	3352	677.714067019529	1
2	3356	678.247649873449	2
2	3358	678.437207235456	3
2	3359	678.585884544353	2
2	3363	679.117367199195	3
2	3367	679.345493836945	4
2	3368	679.575482408336	3
2	3371	680.400484034239	2
2	3375	680.438268137311	3
2	3376	681.313930478605	2
2	3380	681.383064384793	3
2	3382	681.882152722563	4
2	3383	682.396297997522	3
2	3387	682.572173825056	4
2	3388	683.235037403653	3
2	3392	683.241572151763	4
2	3393	684.413095317135	3
2	3397	684.605122195723	4
2	3398	685.215678557573	3
2	3401	686.142246405134	2
2	3405	686.981598497948	3
2	3406	686.984737637365	2
2	3410	687.020752322596	3
2	3413	687.85394322286	2
2	3417	687.90722539494	3
2	3418	688.747378689056	2
2	3422	688.918730828933	3
2	3424	689.62702892278	4
2	3425	689.797773237532	3
2	3429	690.096917702097	4
2	3430	690.769372842932	3
2	3434	691.165100295202	4
2	3435	691.838768351084	3
2	3439	692.169665741681	4
2	3441	692.828503420774	5
2	3442	692.861621903541	4
2	3445	693.867995805299	3
2	3449	694.053522646982	4
2	3450	694.960948324768	3
2	3453	695.777906191168	2
2	3457	696.610497627849	3
2	3458	696.65122193676	2
2	3462	697.480531023532	3
2	3463	697.514340324891	2
2	3467	698.081096071325	3
2	3468	698.453653240674	2
2	3472	698.780313588495	3
2	3473	699.592446817648	2
2	3477	700.633533767019	3
2	3478	700.658990302686	2
2	3481	701.658765431404	1
2	3485	701.820313328859	2
2	3486	702.734988559134	1
2	3489	703.891810351055	0
2	3493	704.480479819384	1
2	3495	704.78018820379	2
2	3496	704.95424976163	1
2	3500	705.378735029727	2
2	3501	706.020357575551	1
2	3505	706.093134501813	2
2	3506	706.92103589904	1
2	3509	708.063269616295	0
2	3513	708.626364250393	1
2	3515	709.125172669428	2
2	3516	709.176960285571	1
2	3520	709.371165424842	2
2	3521	709.996582408999	1
2	3525	710.679401563235	2
2	3526	711.030643125255	1
2	3529	712.001038291123	0
2	3536	713.026014948296	1
2	3539	713.85861650119	0
2	3543	714.405479040201	1
2	3544	714.914972320203	0
2	3550	715.459452989162	1
2	3553	715.903242311724	0
2	3559	716.480186913905	1
2	3560	716.920769152049	0
2	3564	717.501078154551	1
2	3565	718.083391356938	0
2	3569	718.763848744141	1
2	3570	718.9464864797	0
2	3577	719.933500799673	1
2	3578	720.722833838411	0
2	3587	722.77945182403	1
2	3588	722.857285146792	0
2	3604	725.063588300607	1
2	3605	725.84052265054	0
2	3616	727.524851366145	1
2	3617	727.679832340129	0
2	3626	729.193290172693	1
2	3627	729.444829214368	0
2	3631	729.768029047296	1
2	3634	730.40248323074	0
2	3638	730.752385499913	1
2	3639	731.506545435082	0
2	3649	733.502846344236	1
2	3650	734.192482868585	0
2	3654	734.5663083747	1
2	3657	735.005988574776	0
2	3661	735.288907496665	1
2	3665	735.84521630289	2
2	3669	736.065518134307	3
2	3670	736.07797039226	2
2	3673	737.086289921499	1
2	3678	738.241609296299	0
2	3684	738.934129491684	1
2	3685	739.169793207481	0
2	3689	739.990643271225	1
2	3690	740.13515880965	0
2	3694	740.655430872172	1
2	3696	741.017377998029	2
2	3697	741.201605161096	1
2	3703	742.268514828481	2
2	3704	742.278483585364	1
2	3707	743.388139938473	0
2	3711	743.754188525867	1
2	3712	744.393481689415	0
2	3716	744.630217395272	1
2	3717	745.522637251488	0
2	3721	745.523438978861	1
2	3723	746.231200313422	2
2	3724	746.36903617699	1
2	3728	746.411142283861	2
2	3731	747.356679234657	1
2	3735	748.005860006601	2
2	3736	748.2943283245	1
2	3740	748.911088425001	2
2	3741	749.21213196833	1
2	3744	750.410831896498	0
2	3748	750.666799621729	1
2	3749	751.359788485061	0
2	3753	751.517052641966	1
2	3754	752.48387692571	0
2	3758	752.940749647405	1
2	3759	753.618671531978	0
2	3763	754.392311680715	1
2	3764	754.719862506728	0
2	3768	755.023651602818	1
2	3769	755.587989754512	0
2	3773	756.018922929128	1
2	3774	756.498026929426	0
2	3786	758.439313727191	1
2	3788	758.951344604044	2
2	3789	759.341804047955	1
2	3792	760.519516449423	0
2	3806	762.837563677691	1
2	3809	763.701376481542	0
2	3815	764.206016166013	1
2	3816	764.54782602424	0
2	3820	764.548315546599	1
2	3821	765.512388902253	0
2	3828	767.067623570823	1
2	3829	767.417041904575	0
2	3867	774.187456190922	1
2	3868	774.706878910309	0
2	3877	776.79080124239	1
2	3878	776.94156044014	0
2	3885	778.112522389611	1
2	3886	778.67170731202	0
2	3952	793.596587180078	1
2	3957	794.243643385638	0
2	3961	795.147348091064	1
2	3962	795.404374653008	0
2	3972	797.570396804845	1
2	3973	798.486633475591	0
2	3987	799.278629312244	1
2	3988	799.337934735325	0
2	3994	799.781465665036	1
2	3995	800.354903617316	0
2	3999	800.767769171482	1
2	4001	800.903212904965	2
2	4002	801.317559181993	1
2	4006	801.649222452855	2
2	4007	802.202501988505	1
2	4012	803.064517675341	0
2	4016	803.733525349185	1
2	4017	804.201423753799	0
2	4021	804.290030039175	1
2	4022	805.246551808157	0
2	4026	805.950206369495	1
2	4029	806.242166346685	0
2	4090	820.010380655158	1
2	4091	820.474611860143	0
2	4102	821.419105136489	1
2	4103	822.271262395197	0
2	4112	823.771923461513	1
2	4113	823.975495548269	0
2	4120	825.006025622448	1
2	4121	825.836944729557	0
2	4138	828.757286546997	1
2	4139	829.734580439517	0
2	4148	830.764252996381	1
2	4151	831.585772309826	0
2	4158	833.237995167847	1
2	4159	833.29234501403	0
2	4163	833.371559241029	1
2	4165	833.664260679363	2
2	4168	834.469601541201	1
2	4171	835.298610856479	0
2	4175	835.726727170091	1
2	4177	835.996998983848	2
2	4179	836.075307203387	3
2	4180	836.167815309206	2
2	4184	836.655308823092	3
2	4185	837.147214050779	2
2	4191	837.545772006425	3
2	4192	838.287221002487	2
2	4196	838.605812371512	3
2	4197	839.307953730599	2
2	4201	839.44592284686	3
2	4202	840.223280106951	2
2	4206	840.701988648744	3
2	4207	841.251164817531	2
2	4210	842.156554993615	1
2	4213	843.106087292359	0
2	4217	843.428332768407	1
2	4218	844.22070459826	0
2	4222	844.667343874292	1
2	4223	845.25326199364	0
2	4235	847.580801669232	1
2	4236	848.451877723355	0
2	4240	848.967951406084	1
2	4241	849.487528414466	0
2	4245	849.711230342658	1
2	4246	850.642089119368	0
2	4253	852.062137079267	1
2	4254	852.434745497536	0
2	4258	852.649654285619	1
2	4259	853.295464133937	0
2	4263	853.490947973995	1
2	4264	854.169940784946	0
2	4268	854.333792575362	1
2	4269	855.35738555016	0
2	4273	855.394590438742	1
2	4274	856.215493059251	0
2	4278	856.642137213167	1
2	4279	857.387062476109	0
2	4283	857.399262830013	1
2	4284	858.264147978741	0
2	4288	858.314343350748	1
2	4290	858.556826110904	2
2	4291	859.362399971298	1
2	4295	859.441540030672	2
2	4296	860.461106487456	1
2	4299	861.598611215781	0
2	4303	861.86634370924	1
2	4304	862.549272233434	0
2	4311	863.834553198381	1
2	4312	864.318492033239	0
2	4323	866.100452651427	1
2	4324	866.186031578015	0
2	4330	866.513212063171	1
2	4331	867.089457862358	0
2	4335	867.368345042196	1
2	4337	867.639064825958	2
2	4338	868.027731710299	1
2	4341	869.136513187083	0
2	4351	871.319845475376	1
2	4355	872.144533819514	2
2	4356	872.225212157516	1
2	4359	873.059060852042	0
2	4363	873.219533594807	1
2	4364	873.993406818247	0
2	4370	875.101294696128	1
2	4371	875.137104257195	0
2	4375	875.653011508593	1
2	4376	876.202572310063	0
2	4383	877.717456055469	1
2	4384	877.903683272096	0
2	4388	878.170962054095	1
2	4389	878.993768907244	0
2	4393	879.161505510598	1
2	4394	880.106160035914	0
2	4401	881.085570736995	1
2	4402	882.092728555481	0
2	4409	883.11453803393	1
2	4413	883.88486884768	2
2	4414	884.15404561879	1
2	4417	885.249522881022	0
2	4423	885.77096279179	1
2	4425	885.98264491005	2
2	4426	886.265106393488	1
2	4430	886.528673089737	2
2	4431	887.363913089501	1
2	4436	888.450681199597	0
2	4440	888.830240657297	1
2	4442	888.891995668872	2
2	4443	889.431833896318	1
2	4447	889.621305491988	2
2	4448	890.480444809978	1
2	4454	891.275101172873	2
2	4456	891.276772280079	3
2	4457	891.595390110646	2
2	4460	892.447096791022	1
2	4463	893.50738502517	0
2	4467	893.60193199254	1
2	4469	894.275537379338	2
2	4470	894.477290254548	1
2	4474	894.595233817656	2
2	4475	895.630226665545	1
2	4479	895.827701017433	2
2	4480	896.764353136155	1
2	4484	897.361234884123	2
2	4486	897.617392938972	3
2	4488	897.748774707137	4
2	4489	897.778458672106	3
2	4493	897.831114995239	4
2	4494	898.726512620128	3
2	4499	899.551584163117	2
2	4503	899.81090358406	3
2	4505	899.854437861665	4
2	4506	900.377739453497	3
2	4509	901.335044597457	2
2	4512	902.465197123024	1
2	4516	902.898457989932	2
2	4518	903.1017647009	3
2	4519	903.493990348368	2
2	4523	903.714107552074	3
2	4525	903.94595846308	4
2	4527	904.493483709355	5
2	4528	904.496308327927	4
2	4531	905.41595587553	3
2	4534	906.230505918986	2
2	4538	907.116516084796	3
2	4541	907.362032946939	2
2	4544	908.235730374692	1
2	4547	909.22881416948	0
2	4551	909.769003231231	1
2	4553	910.005410345963	2
2	4555	910.218817128978	3
2	4556	910.307404917101	2
2	4560	910.564174766221	3
2	4561	911.112645347784	2
2	4565	911.173762607817	3
2	4568	912.135669113504	2
2	4572	912.51673332985	3
2	4573	913.032421111217	2
2	4576	914.013329314808	1
2	4579	915.029308157502	0
2	4583	915.190754768975	1
2	4584	915.889033624338	0
2	4588	916.038874312803	1
2	4590	916.039070091315	2
2	4591	917.058822391456	1
2	4595	917.728157001538	2
2	4596	917.861424692249	1
2	4600	918.549980569109	2
2	4601	918.82369304187	1
2	4605	919.502475658765	2
2	4606	919.886479633202	1
2	4610	919.91142037168	2
2	4611	921.055128444259	1
2	4614	921.932263612834	0
2	4618	922.414853973288	1
2	4620	923.031111401028	2
2	4621	923.131421714177	1
2	4625	923.43946807134	2
2	4627	923.51804008946	3
2	4629	923.94652171068	4
2	4630	924.214157964935	3
2	4634	924.868612159947	4
2	4635	925.29914446873	3
2	4638	926.293213838426	2
2	4642	926.81162144611	3
2	4643	927.455517234927	2
2	4646	928.351693840226	1
2	4650	928.776225220251	2
2	4651	929.39370108507	1
2	4654	930.524016623659	0
2	4658	931.217334624479	1
2	4659	931.330096502876	0
2	4663	931.977652264103	1
2	4664	932.131380209414	0
2	4673	933.60799846704	1
2	4675	933.802513360793	2
2	4677	933.940235759697	3
2	4678	934.158460421296	2
2	4683	935.196493377904	1
2	4687	935.598518731639	2
2	4688	936.202334663733	1
2	4692	936.261440274473	2
2	4694	937.012095794964	3
2	4696	937.131353891173	4
2	4697	937.286174839451	3
2	4700	938.157634497895	2
2	4704	938.450259561009	3
2	4706	938.616927154086	4
2	4707	939.353195407051	3
2	4711	940.503989373767	4
2	4712	940.505972247939	3
2	4716	941.546661486767	4
2	4717	941.557395187109	3
2	4721	942.022304472776	4
2	4723	942.285272339379	5
2	4724	942.682953032195	4
2	4727	943.690041057296	3
2	4732	944.612116497006	2
2	4735	945.585281227432	1
2	4739	945.726969560997	2
2	4740	946.539449133534	1
2	4744	947.052584940141	2
2	4745	947.574614526048	1
2	4748	948.627176771961	0
2	4752	949.083087206586	1
2	4753	949.666947889883	0
2	4757	949.71334318276	1
2	4760	950.781671751939	0
2	4764	950.829701781008	1
2	4768	951.297114994304	2
2	4770	951.84514000061	3
2	4771	951.84769501127	2
2	4774	952.668303944633	1
2	4780	953.664723384451	2
2	4781	953.670410858278	1
2	4785	953.712390986674	2
2	4787	953.893923701948	3
2	4789	953.975205868763	4
2	4790	954.823335150161	3
2	4793	955.787927496896	2
2	4797	956.590361102221	3
2	4798	956.599254969691	2
2	4802	957.382297831927	3
2	4804	957.593191733309	4
2	4805	957.631441921179	3
2	4809	958.270715653226	4
2	4810	958.715791742221	3
2	4816	959.706204846705	4
2	4817	959.721189564277	3
2	4821	959.892096564277	4
2	4822	960.598030886423	3
2	4825	961.426360628564	2
2	4829	961.80712556038	3
2	4830	962.354189936627	2
2	4834	962.354829034097	3
2	4837	963.362585977834	2
2	4840	964.373241302368	1
2	4843	965.508344078899	0
2	4850	966.535678752835	1
2	4851	967.346591169477	0
2	4855	968.377145775051	1
2	4856	968.415429159157	0
2	4860	968.79819325233	1
2	4861	969.597925163522	0
2	4871	971.480705349158	1
2	4873	971.845088872359	2
2	4875	972.337263886585	3
2	4878	972.658064854793	2
2	4882	973.059786436426	3
2	4883	973.553217232782	2
2	4892	974.72963344948	1
2	4895	975.732846128844	0
2	4902	977.188867430248	1
2	4903	977.839231642984	0
2	4907	978.448095670702	1
2	4908	978.836158521749	0
2	4915	979.851524534571	1
2	4917	980.084392442429	2
2	4918	980.739286279396	1
2	4923	981.701493262403	0
2	4932	983.727323651349	1
2	4933	983.729180333387	0
2	4937	983.772813964264	1
2	4940	984.827095447477	0
2	4947	986.042238601189	1
2	4948	986.485675128452	0
2	4955	988.268970566988	1
2	4956	988.639835215821	0
2	4960	988.689390595378	1
2	4962	988.863975201388	2
2	4967	989.655552760041	1
2	4971	989.675225673319	2
2	4972	990.598276563356	1
2	4976	990.689557288545	2
2	4977	991.409218325274	1
2	4980	992.386659881746	0
2	4984	992.828093059508	1
2	4986	992.857216755006	2
2	4987	993.33703588433	1
2	4991	993.694684939374	2
2	4992	994.256140197249	1
2	4995	995.302625605086	0
2	4999	995.928240033518	1
2	5000	996.2567674756	0
2	5007	997.81801141823	1
2	5010	998.438394249132	0
2	5014	998.553526781024	1
2	5015	999.625240612397	0
2	5019	1000.168250375826	1
2	5022	1000.672395642469	0
2	5026	1001.677163499647	1
2	5027	1001.715597790381	0
2	5031	1002.217346450532	1
2	5032	1002.862321336282	0
2	5036	1003.67473468794	1
2	5037	1003.705459876353	0
2	5044	1005.50602070563	1
2	5045	1005.643516505225	0
2	5049	1005.699076677594	1
2	5051	1005.89700692382	2
2	5054	1006.68777334643	1
2	5058	1006.763631158885	2
2	5059	1007.801679753134	1
2	5062	1008.757509740343	0
2	5097	1016.316959005657	1
2	5100	1016.829963399092	0
2	5115	1019.955210739597	1
2	5116	1020.768415145384	0
2	5178	1035.116919328903	1
2	5179	1035.677901529797	0
2	5187	1036.192887540494	1
2	5188	1036.631172718198	0
2	5195	1037.638655589989	1
2	5197	1038.086764275581	2
2	5200	1038.574596708637	1
2	5204	1039.172247838433	2
2	5207	1039.647597029429	1
2	5216	1040.503261880387	0
2	5220	1040.703956181231	1
2	5221	1041.403195350055	0
2	5353	1070.153184478897	1
2	5354	1070.222836386507	0
2	5360	1070.964878868595	1
2	5361	1071.112793747244	0
2	5372	1072.553794404526	1
2	5375	1073.108407530376	0
2	5393	1075.209182811781	1
2	5396	1076.2342271504	0
2	5405	1077.785560635235	1
2	5406	1078.413169602864	0
2	5410	1078.570036788357	1
2	5413	1079.327214650997	0
2	5417	1080.361661398963	1
2	5418	1080.480629585684	0
2	5428	1082.95947806452	1
2	5429	1083.426728795469	0
2	5436	1085.414238341617	1
2	5437	1085.423208731879	0
2	5451	1087.577750046673	1
2	5454	1088.404837263934	0
2	5458	1089.356747089235	1
2	5459	1089.429564308282	0
2	5463	1089.580805743869	1
2	5464	1090.457983413711	0
2	5468	1090.88444422314	1
2	5469	1091.366762819886	0
2	5478	1092.472347497619	1
2	5480	1092.476518060128	2
2	5481	1093.324561828002	1
2	5484	1094.476281397137	0
2	5488	1094.539738564603	1
2	5491	1095.581489169038	0
2	5506	1098.975000097879	1
2	5509	1099.580832531955	0
2	5524	1102.508980559026	1
2	5527	1103.439500562381	0
2	5541	1105.760736116208	1
2	5542	1106.565815664921	0
2	5556	1108.968791398207	1
2	5557	1109.534702913091	0
2	5567	1111.633316877157	1
2	5570	1112.523727891315	0
2	5579	1113.846520360842	1
2	5581	1114.304888458945	2
2	5582	1114.418843504972	1
2	5587	1115.433753855246	0
2	5591	1116.319555316878	1
2	5592	1116.429379716794	0
2	5599	1117.776017035903	1
2	5601	1118.064962755307	2
2	5602	1118.509461536071	1
2	5605	1119.452088998257	0
2	5613	1119.787707084717	1
2	5614	1120.390833986363	0
2	5618	1121.14528476196	1
2	5619	1121.296327058597	0
2	5623	1121.356437596493	1
2	5625	1121.965684904933	2
2	5626	1122.179223418141	1
2	5629	1123.239987672119	0
2	5636	1124.85083463082	1
2	5637	1125.203526741358	0
2	5641	1125.443603379905	1
2	5642	1126.055774540732	0
2	5649	1127.054294872927	1
2	5651	1127.114738723895	2
2	5652	1127.838794434442	1
2	5657	1128.847240117284	0
2	5666	1130.450745407581	1
2	5668	1130.488384803473	2
2	5669	1130.879601404628	1
2	5675	1131.551983535167	2
2	5676	1131.737053484095	1
2	5680	1131.772653458957	2
2	5681	1132.717970125561	1
2	5684	1133.742143201919	0
2	5688	1134.248655025459	1
2	5689	1134.547563566731	0
2	5695	1135.259283553617	1
2	5696	1135.423304899407	0
2	5703	1136.855343547171	1
2	5704	1137.390459372194	0
2	5716	1139.929289628298	1
2	5717	1140.251623164767	0
2	5721	1140.409034249836	1
2	5723	1141.123342460144	2
2	5724	1141.395506744923	1
2	5728	1141.551766448474	2
2	5731	1142.515554286258	1
2	5734	1143.533902271928	0
2	5738	1143.725916750502	1
2	5739	1144.557867728172	0
2	5756	1148.477414670964	1
2	5757	1148.615943644195	0
2	5761	1148.707639364159	1
2	5762	1149.57300247075	0
2	5766	1150.027049946331	1
2	5769	1150.495617529191	0
2	5773	1150.559349464081	1
2	5777	1151.538299426049	2
2	5778	1151.659967859927	1
2	5781	1152.845061369519	0
2	5785	1153.389635173141	1
2	5788	1153.662359397671	0
2	5792	1154.182457599678	1
2	5793	1154.630332445632	0
2	5800	1156.397052443955	1
2	5801	1156.903630857449	0
2	5805	1156.94796821659	1
2	5807	1157.785638595476	2
2	5808	1157.807151731197	1
2	5812	1158.236936554763	2
2	5815	1158.647723703552	1
2	5819	1159.034942415845	2
2	5820	1159.484185623843	1
2	5823	1160.548494724557	0
2	5830	1162.181544138587	1
2	5832	1162.249791222758	2
2	5833	1162.451262972225	1
2	5836	1163.362089896389	0
2	5843	1165.248439493058	1
2	5844	1165.701125372574	0
2	5856	1168.004487436591	1
2	5859	1168.530903267115	0
2	5870	1170.605009313484	1
2	5871	1170.699730329122	0
2	5881	1172.744244065116	1
2	5884	1173.350937221851	0
2	5888	1173.705615716868	1
2	5893	1174.472429926414	0
2	5900	1176.141002607729	1
2	5902	1176.22750606973	2
2	5903	1176.483958166372	1
2	5908	1177.635911719315	0
2	5915	1178.850450550268	1
2	5916	1179.36757208854	0
2	5922	1180.045732884443	1
2	5923	1180.222150594462	0
2	5933	1182.542528313877	1
2	5934	1183.199104985874	0
2	5946	1185.81376451091	1
2	5947	1186.350279291253	0
2	5953	1187.235925341715	1
2	5954	1187.351328233163	0
2	5966	1189.81215547051	1
2	5968	1189.868765473112	2
2	5969	1190.421373156736	1
2	5972	1191.289750096945	0
2	5976	1192.213375391582	1
2	5977	1192.253957653602	0
2	5981	1192.481718772171	1
2	5984	1193.302642633484	0
2	6001	1197.293515313549	1
2	6002	1197.351377370486	0
2	6019	1200.40287746278	1
2	6022	1201.155999615787	0
2	6028	1202.211148160295	1
2	6029	1202.226197735591	0
2	6038	1204.107008532541	1
2	6039	1204.274279798473	0
2	6048	1205.682382527014	1
2	6049	1206.504323231614	0
2	6058	1207.700763421504	1
2	6059	1208.362312689516	0
2	6076	1211.545979239015	1
2	6078	1212.159843047731	2
2	6079	1212.179918552655	1
2	6086	1213.193065689038	0
2	6092	1214.209645188106	1
2	6093	1214.35806289725	0
2	6105	1217.482207015498	1
2	6106	1217.583693517372	0
2	6113	1218.616043482627	1
2	6117	1219.002273811817	2
2	6118	1219.460742262751	1
2	6121	1220.44182123011	0
2	6128	1221.558750725634	1
2	6130	1221.672937535423	2
2	6131	1222.405821487308	1
2	6138	1223.466702488158	0
2	6142	1224.531328281119	1
2	6143	1224.581880030315	0
2	6147	1224.6890667552	1
2	6148	1225.557473242189	0
2	6155	1226.697045853994	1
2	6157	1226.8922185381	2
2	6158	1227.624119855183	1
2	6161	1228.435503116901	0
2	6165	1229.073346080407	1
2	6166	1229.250372913851	0
2	6170	1229.267494848353	1
2	6171	1230.141889529395	0
2	6177	1231.234848222921	1
2	6178	1231.338983908574	0
2	6182	1231.782186635815	1
2	6183	1232.165074224024	0
2	6187	1232.676977974928	1
2	6188	1233.070310135278	0
2	6200	1235.203602357958	1
2	6203	1235.82344020279	0
2	6207	1236.318472925013	1
2	6209	1236.885276650689	2
2	6210	1236.962444945144	1
2	6214	1238.035210487794	2
2	6215	1238.11686164541	1
2	6219	1238.231875553667	2
2	6220	1239.268471908195	1
2	6225	1240.228763077593	0
2	6229	1240.605927220952	1
2	6230	1241.058412836304	0
2	6237	1242.117909950752	1
2	6239	1242.160754633834	2
2	6240	1242.809276327209	1
2	6243	1243.873569635951	0
2	6255	1245.988156770141	1
2	6256	1246.690305274815	0
2	6260	1247.234500308961	1
2	6261	1247.760336405967	0
2	6275	1250.712260962966	1
2	6276	1250.796038029805	0
2	6283	1252.286175136473	1
2	6285	1252.379011397093	2
2	6286	1252.886003461011	1
2	6290	1253.54329632895	2
2	6291	1253.870145492811	1
2	6295	1254.055071799085	2
2	6296	1254.7020947298	1
2	6301	1255.648132758584	0
2	6305	1256.108890896249	1
2	6306	1256.80092368554	0
2	6310	1256.984287583397	1
2	6311	1257.743526620973	0
2	6318	1258.653800355395	1
2	6319	1259.459899580195	0
2	6323	1259.739795186202	1
2	6326	1260.625216689515	0
2	6330	1261.031513391444	1
2	6331	1261.510321799941	0
2	6335	1262.43854144759	1
2	6336	1262.50766297625	0
2	6340	1262.70422404728	1
2	6341	1263.549489451196	0
2	6345	1264.232907573268	1
2	6346	1264.70532722538	0
2	6353	1265.891776430084	1
2	6354	1266.629594282616	0
2	6426	1280.887996162662	1
2	6427	1281.259574361328	0
2	6531	1304.02543032117	1
2	6533	1304.175209652509	2
2	6534	1304.27919541681	1
2	6539	1305.142835490962	0
2	6551	1307.400370839338	1
2	6553	1307.667282895497	2
2	6555	1308.356766756332	3
2	6556	1308.373384603669	2
2	6561	1309.458468064663	1
2	6565	1309.642860740685	2
2	6566	1310.496718851474	1
2	6570	1310.54098342698	2
2	6572	1311.288477974708	3
2	6573	1311.471877767515	2
2	6576	1312.276202960961	1
2	6579	1313.23827631557	0
2	6583	1313.607367273095	1
2	6585	1313.664080989368	2
2	6586	1314.110655249745	1
2	6590	1314.878757988968	2
2	6591	1315.203931521062	1
2	6595	1315.235955385396	2
2	6596	1316.005096292399	1
2	6600	1316.06632652791	2
2	6601	1317.124845799148	1
2	6604	1318.139889485758	0
2	6608	1318.571642008437	1
2	6611	1319.144946826432	0
2	6615	1319.751570000574	1
2	6617	1319.837263196465	2
2	6618	1319.984191839486	1
2	6622	1320.091467145552	2
2	6623	1321.126145353071	1
2	6626	1322.150315366122	0
2	6633	1323.748146106446	1
2	6636	1324.40363621972	0
2	6642	1324.572879306382	1
2	6644	1324.654213846806	2
2	6646	1324.760032298846	3
2	6648	1324.907839612806	4
2	6649	1325.314526678896	3
2	6653	1325.901288139872	4
2	6654	1326.418844610168	3
2	6658	1326.643654150226	4
2	6660	1327.20220711084	5
2	6661	1327.539761762036	4
2	6665	1327.956856667525	5
2	6667	1328.621214783746	6
2	6668	1328.641050808778	5
2	6672	1328.705259986785	6
2	6673	1329.830691024004	5
2	6677	1330.202668767083	6
2	6678	1330.873523331522	5
2	6682	1331.966927992566	6
2	6683	1332.004941805354	5
2	6687	1333.114400330467	6
2	6688	1333.134583922564	5
2	6692	1333.315461522864	6
2	6693	1334.10490914322	5
2	6696	1335.224102903712	4
2	6700	1335.379518591981	5
2	6701	1336.145498357709	4
2	6704	1337.205987293921	3
2	6708	1338.06178623439	4
2	6709	1338.185301350798	3
2	6713	1338.328334716695	4
2	6714	1339.337115434926	3
2	6717	1340.373997179881	2
2	6721	1340.382096503831	3
2	6722	1341.298959532935	2
2	6726	1342.323394677133	3
2	6727	1342.468930262137	2
2	6731	1342.614404462508	3
2	6732	1343.314033624247	2
2	6736	1343.428200900484	3
2	6737	1344.416066234462	2
2	6740	1345.499577061735	1
2	6743	1346.407229439631	0
2	6747	1347.2128667026	1
2	6748	1347.3866691024	0
2	6752	1347.483493247666	1
2	6754	1347.672326829903	2
2	6755	1348.32668271083	1
2	6758	1349.340095724162	0
2	6762	1349.352333845698	1
2	6763	1350.487437478449	0
2	6767	1351.188040056418	1
2	6768	1351.583349293932	0
2	6778	1354.033965648886	1
2	6780	1354.387733375531	2
2	6781	1354.79541664626	1
2	6786	1355.866723202071	0
2	6790	1356.339678583797	1
2	6792	1356.346417826264	2
2	6793	1356.828319454468	1
2	6797	1357.337641484024	2
2	6798	1357.898105312972	1
2	6801	1359.053787644668	0
2	6811	1361.842519317599	1
2	6812	1361.950402787695	0
2	6816	1362.312885029979	1
2	6818	1362.355694832778	2
2	6821	1362.891641203123	1
2	6827	1363.604962079546	2
2	6828	1363.835402399576	1
2	6832	1364.227298668937	2
2	6834	1364.790569235902	3
2	6835	1364.95508155012	2
2	6839	1364.963044438109	3
2	6841	1365.309732576576	4
2	6842	1365.968661791919	3
2	6846	1366.311653858902	4
2	6847	1366.822352095129	3
2	6850	1367.787210272899	2
2	6854	1367.928338107954	3
2	6855	1368.759644144116	2
2	6858	1369.695323724387	1
2	6862	1370.136592042032	2
2	6863	1370.678846887773	1
2	6867	1371.471214144353	2
2	6868	1371.716272192815	1
2	6872	1372.112756558634	2
2	6873	1372.764792501175	1
2	6877	1373.093916480879	2
2	6881	1373.472862762747	3
2	6882	1373.780328288109	2
2	6886	1374.248169048541	3
2	6887	1374.968052347743	2
2	6891	1375.275051264117	3
2	6893	1375.646665312936	4
2	6894	1375.872738464077	3
2	6897	1376.838270320271	2
2	6901	1377.384505907199	3
2	6902	1377.646943671808	2
2	6905	1378.565304553595	1
2	6909	1379.190906992638	2
2	6910	1379.370827463821	1
2	6913	1380.443436521378	0
2	6917	1381.264181678786	1
2	6918	1381.313770358816	0
2	6925	1382.340991033932	1
2	6926	1383.233454195495	0
2	6930	1384.317714472174	1
2	6931	1384.341943082671	0
2	6935	1384.441505832865	1
2	6939	1384.882135299409	2
2	6941	1384.912667227857	3
2	6942	1385.355230872325	2
2	6946	1385.971552123375	3
2	6947	1386.246666782434	2
2	6951	1386.767490212224	3
2	6952	1387.098499751548	2
2	6955	1388.077031286797	1
2	6959	1388.406507054348	2
2	6960	1388.906937195817	1
2	6964	1389.555686781825	2
2	6965	1390.036703360165	1
2	6968	1390.938016000474	0
2	6972	1391.238367056203	1
2	6974	1391.674875071545	2
2	6975	1392.016909829052	1
2	6978	1393.067801924134	0
2	6982	1393.13323866038	1
2	6983	1394.033267354304	0
2	6987	1394.659587510326	1
2	6988	1394.979649708597	0
2	6992	1395.253315994936	1
2	6995	1395.852826412478	0
2	6999	1396.352235158452	1
2	7000	1396.875881850244	0
2	7072	1412.404924161243	1
2	7073	1413.190324344661	0
2	7082	1415.014640931039	1
2	7083	1415.436359760899	0
2	7167	1431.73441779009	1
2	7168	1432.61414632349	0
2	7180	1435.472603730398	1
2	7181	1435.753603151149	0
2	7195	1438.182238237983	1
2	7196	1438.973967360786	0
2	7208	1441.572141089076	1
2	7209	1441.929133867554	0
2	7221	1443.943488617867	1
2	7226	1444.936969540536	0
2	7237	1446.510860603776	1
2	7238	1446.920866673987	0
2	7269	1452.316035586149	1
2	7270	1452.607352715067	0
2	7277	1454.085195669843	1
2	7278	1454.520092314656	0
2	7285	1455.763009806526	1
2	7287	1455.776948665996	2
2	7288	1456.22670598625	1
2	7296	1457.125795305722	2
2	7297	1457.328116499435	1
2	7301	1457.917128836111	2
2	7302	1458.459962602787	1
2	7306	1458.98720354818	2
2	7307	1459.272490628798	1
2	7311	1459.371759622598	2
2	7313	1460.088552438038	3
2	7314	1460.429413348705	2
2	7317	1461.328010486149	1
2	7320	1462.132372400899	0
2	7327	1464.104720596407	1
2	7328	1464.13122843177	0
2	7332	1464.175182660249	1
2	7334	1464.946005155773	2
2	7337	1465.150612425049	1
2	7341	1465.213855407088	2
2	7344	1466.073884400902	1
2	7347	1467.046206236621	0
2	7351	1467.289562121558	1
2	7352	1467.853328029522	0
2	7359	1469.99973748243	1
2	7361	1470.064806057546	2
2	7362	1470.13747525745	1
2	7366	1471.151603493325	2
2	7367	1471.304437099387	1
2	7371	1471.631866415821	2
2	7372	1472.262582758152	1
2	7375	1473.127922573117	0
2	7379	1473.914624925109	1
2	7380	1474.275608075121	0
2	7387	1475.894063561089	1
2	7389	1476.19443822803	2
2	7390	1476.470268818261	1
2	7395	1477.484847678887	0
2	7399	1478.364788970187	1
2	7400	1478.54069757442	0
2	7407	1480.078598517249	1
2	7408	1480.378367571896	0
2	7417	1482.086083300465	1
2	7418	1482.388348248871	0
2	7427	1483.880489388956	1
2	7428	1484.158767431686	0
2	7435	1485.33974852481	1
2	7436	1485.993714671573	0
2	7442	1486.517613503531	1
2	7445	1486.951063733166	0
2	7449	1487.000383593867	1
2	7450	1487.878464056821	0
2	7454	1487.99470290667	1
2	7458	1488.648594565546	2
2	7459	1488.849897007541	1
2	7463	1489.499662427108	2
2	7464	1489.961362567161	1
2	7468	1489.99508671629	2
2	7469	1490.915954310064	1
2	7473	1491.663616461938	2
2	7474	1491.799521673274	1
2	7478	1492.26236049224	2
2	7479	1492.829938613799	1
2	7483	1492.874694386717	2
2	7484	1493.909274816223	1
2	7488	1493.983685170125	2
2	7489	1495.075327465673	1
2	7493	1495.641887154584	2
2	7495	1495.990559594615	3
2	7496	1496.217825828948	2
2	7499	1497.191661044293	1
2	7503	1498.068270262546	2
2	7504	1498.30637469924	1
2	7508	1498.769850687793	2
2	7512	1499.0400205867	3
2	7513	1499.180371151203	2
2	7516	1500.008465015785	1
2	7520	1500.022168004433	2
2	7521	1500.919171392256	1
2	7524	1502.020851361556	0
2	7528	1502.660097799052	1
2	7529	1502.891863745162	0
2	7536	1504.027624320502	1
2	7538	1505.008983095443	2
2	7539	1505.135845827488	1
2	7544	1505.964425722686	0
2	7548	1506.158536482643	1
2	7549	1506.808615069454	0
2	7553	1506.997089519936	1
2	7554	1507.87004453958	0
2	7578	1512.115959809704	1
2	7579	1512.631459387196	0
2	7601	1517.679099394898	1
2	7602	1517.737526087081	0
2	7614	1519.893735155012	1
2	7617	1520.96767492461	0
2	7633	1523.310310084918	1
2	7635	1523.845868000498	2
2	7636	1523.94556284844	1
2	7642	1524.40331537214	2
2	7643	1524.965850708904	1
2	7646	1526.152221091828	0
2	7650	1527.217337689743	1
2	7651	1527.281573219589	0
2	7655	1527.389545145677	1
2	7656	1528.353602110121	0
2	7662	1529.121280612181	1
2	7663	1529.315153345458	0
2	7670	1531.068545518974	1
2	7671	1531.15732580348	0
2	7678	1532.613121928235	1
2	7680	1532.890419941901	2
2	7682	1533.032549486381	3
2	7683	1533.324549407131	2
2	7688	1534.346656236044	1
2	7692	1534.413047330218	2
2	7693	1535.256660904727	1
2	7696	1536.240708517275	0
2	7700	1536.295315711314	1
2	7702	1537.04313819096	2
2	7703	1537.085787523343	1
2	7706	1537.94057106468	0
2	7710	1537.972053359477	1
2	7711	1538.820558959517	0
2	7715	1539.016440536024	1
2	7716	1539.69291708599	0
2	7723	1541.059968358856	1
2	7725	1541.349945983978	2
2	7727	1541.37576129917	3
2	7728	1541.904645315643	2
2	7733	1542.837242454934	1
2	7736	1543.96639255005	0
2	7743	1544.894536095327	1
2	7746	1545.592941047429	0
2	7755	1546.719428106823	1
2	7757	1547.271043776686	2
2	7759	1547.357683072925	3
2	7760	1547.769187823395	2
2	7763	1548.858997784174	1
2	7766	1550.028877397618	0
2	7770	1550.255685696525	1
2	7771	1550.829462545729	0
2	7775	1550.964280175022	1
2	7776	1551.679048441714	0
2	7783	1553.036149418613	1
2	7785	1553.418576216869	2
2	7786	1553.700116308117	1
2	7792	1554.707477496427	2
2	7793	1554.728197332648	1
2	7796	1555.656558076748	0
2	7800	1556.188646352004	1
2	7801	1556.577645357781	0
2	7808	1558.021814684606	1
2	7810	1558.369745130494	2
2	7811	1558.449426888944	1
2	7818	1559.467968976674	0
2	7827	1560.517418005054	1
2	7828	1561.331221502916	0
2	7840	1563.740798095812	1
2	7841	1564.49747169026	0
2	7845	1564.608940604763	1
2	7849	1564.947976120544	2
2	7850	1565.671425780643	1
2	7853	1566.749353616767	0
2	7857	1567.440250480032	1
2	7858	1567.835877776135	0
2	7862	1568.111211147413	1
2	7863	1568.84402494029	0
2	7873	1570.987704622661	1
2	7875	1571.236501140482	2
2	7876	1571.498784791947	1
2	7883	1572.47933483607	0
2	7887	1573.033114208345	1
2	7888	1573.663220634487	0
2	7895	1574.571069644709	1
2	7897	1575.006145652337	2
2	7898	1575.655726383523	1
2	7903	1576.67595292515	0
2	7907	1577.360974143692	1
2	7908	1577.767671891664	0
2	7912	1578.268921904245	1
2	7915	1578.645317343612	0
2	7922	1580.000877846374	1
2	7924	1580.065702759911	2
2	7925	1580.452898901318	1
2	7929	1580.740412996117	2
2	7930	1581.582022766386	1
2	7934	1582.278128809617	2
2	7935	1582.435650501855	1
2	7939	1582.589830983673	2
2	7940	1583.510988566269	1
2	7944	1584.413563977153	2
2	7945	1584.63289933632	1
2	7951	1585.362714212382	2
2	7952	1585.760343658075	1
2	7956	1586.117952640145	2
2	7957	1586.806788794499	1
2	7961	1587.236483879269	2
2	7963	1587.418325839455	3
2	7964	1587.729258857563	2
2	7968	1588.304708548311	3
2	7969	1588.692396231357	2
2	7972	1589.856128925819	1
2	7976	1590.501928506576	2
2	7977	1591.023682628002	1
2	7980	1592.135607565369	0
2	7984	1592.37252751273	1
2	7985	1593.240570747375	0
2	7989	1594.106024432275	1
2	7990	1594.278306402627	0
2	7994	1594.830722804227	1
2	7995	1595.154149437125	0
2	7999	1595.653911329158	1
2	8000	1596.076249458629	0
2	8009	1597.646535039856	1
2	8010	1597.966585438221	0
2	8014	1598.32504366384	1
2	8015	1598.793169319618	0
2	8021	1599.240171579718	1
2	8023	1599.436551238497	2
2	8024	1599.845747892081	1
2	8027	1600.849290616705	0
2	8034	1601.918407286338	1
2	8036	1602.30381155564	2
2	8038	1602.555715386508	3
2	8039	1602.82157883438	2
2	8044	1603.763650212145	1
2	8047	1604.713644056382	0
2	8054	1606.450380167147	1
2	8056	1606.539996650981	2
2	8057	1606.613734562775	1
2	8062	1607.538842920387	0
2	8066	1607.815838213706	1
2	8067	1608.6478359104	0
2	8071	1609.672030570849	1
2	8072	1609.694212464137	0
2	8079	1610.995085525785	1
2	8081	1611.067491316089	2
2	8083	1611.093817305854	3
2	8084	1611.610722074644	2
2	8087	1612.520829735776	1
2	8090	1613.454958072105	0
2	8102	1615.331757263608	1
2	8104	1615.55787284357	2
2	8105	1616.212225366835	1
2	8113	1616.4553107757	2
2	8114	1617.121010671542	1
2	8117	1617.986867928305	0
2	8121	1618.348167702248	1
2	8123	1618.733098776977	2
2	8124	1618.967495834348	1
2	8128	1619.306136494256	2
2	8129	1619.788170406209	1
2	8133	1620.19114355928	2
2	8134	1620.955575562162	1
2	8137	1622.086238506796	0
2	8141	1622.252297898056	1
2	8143	1622.6491899072	2
2	8145	1622.788262954782	3
2	8146	1623.275615426699	2
2	8150	1624.101442760002	3
2	8151	1624.43318042549	2
2	8156	1625.480067601415	1
2	8160	1625.644605649767	2
2	8161	1626.488957936118	1
2	8165	1626.939896186587	2
2	8167	1627.372002797942	3
2	8168	1627.588541191431	2
2	8172	1627.706002679978	3
2	8173	1628.660977559803	2
2	8176	1629.506908295197	1
2	8180	1629.935801771772	2
2	8181	1630.454553711215	1
2	8187	1630.978018183749	2
2	8188	1631.493798568087	1
2	8191	1632.576136333948	0
2	8201	1634.730395917165	1
2	8202	1635.856543846042	0
2	8213	1637.420074745386	1
2	8214	1638.027067091302	0
2	8226	1640.210427790993	1
2	8228	1640.710294070123	2
2	8229	1640.83814226285	1
2	8236	1642.025790785238	0
2	8243	1643.27554719035	1
2	8244	1643.702688021943	0
2	8250	1644.389207384661	1
2	8251	1644.765178977683	0
2	8255	1645.104139599148	1
2	8257	1645.743346665674	2
2	8259	1645.832399610507	3
2	8260	1645.931945642534	2
2	8264	1646.953201166344	3
2	8265	1647.016934598222	2
2	8268	1648.212022358164	1
2	8272	1649.030770522675	2
2	8274	1649.15592769202	3
2	8275	1649.17992494142	2
2	8279	1649.812457781838	3
2	8280	1650.198570310961	2
2	8283	1651.251393115133	1
2	8287	1651.315849372618	2
2	8288	1652.127307501234	1
2	8291	1653.043338124346	0
2	8295	1653.212129946277	1
2	8296	1654.087682208311	0
2	8300	1654.52494879613	1
2	8302	1654.924628172799	2
2	8303	1655.241791272428	1
2	8307	1655.725191723976	2
2	8309	1655.813659128043	3
2	8310	1656.321709609855	2
2	8314	1656.803152105046	3
2	8316	1656.835092057383	4
2	8317	1657.392646381896	3
2	8321	1657.773895657259	4
2	8322	1658.396312519055	3
2	8325	1659.397400258467	2
2	8328	1660.579780139015	1
2	8331	1661.500854625073	0
2	8338	1662.849149460965	1
2	8340	1663.090475814548	2
2	8343	1663.841900815987	1
2	8346	1664.813213912663	0
2	8350	1665.199468396429	1
2	8351	1665.97123313731	0
2	8363	1668.144840044269	1
2	8365	1668.516200188736	2
2	8367	1668.82956466076	3
2	8368	1668.852862679105	2
2	8375	1669.851810646508	1
2	8380	1670.849064208459	0
2	8387	1672.894091671768	1
2	8388	1673.131131961088	0
2	8392	1673.302564412875	1
2	8395	1674.003312918808	0
2	8399	1674.586551861554	1
2	8400	1674.851611615609	0
2	8473	1690.428949334416	1
2	8476	1690.878283241468	0
2	8488	1693.24863186146	1
2	8489	1693.684414174112	0
2	8501	1695.421347649	1
2	8504	1696.436721486489	0
2	8511	1697.749003863437	1
2	8513	1697.843878809919	2
2	8515	1698.037929503306	3
2	8516	1698.461169290247	2
2	8523	1699.606692365075	1
2	8526	1700.609320447019	0
2	8530	1701.178428894347	1
2	8531	1701.737431528403	0
2	8535	1701.806666953169	1
2	8538	1702.765487541056	0
2	8548	1705.041403086715	1
2	8549	1705.615920610524	0
2	8556	1707.484497691328	1
2	8557	1707.623629021256	0
2	8571	1710.271006824068	1
2	8574	1710.609452430609	0
2	8588	1712.96068983675	1
2	8590	1713.42862616821	2
2	8591	1713.484394844513	1
2	8598	1714.469892193641	0
2	8602	1715.055149737833	1
2	8603	1715.461533180609	0
2	8607	1715.899047532012	1
2	8608	1716.474688210509	0
2	8615	1717.796208552216	1
2	8616	1718.405974965341	0
2	8620	1719.167722238567	1
2	8621	1719.415946770165	0
2	8625	1719.709509200546	1
2	8626	1720.27151534472	0
2	8633	1722.222409562225	1
2	8634	1722.282724397335	0
2	8643	1723.533494913052	1
2	8644	1724.382434466932	0
2	8653	1725.821618897855	1
2	8654	1726.478591330428	0
2	8663	1727.421189996132	1
2	8664	1728.360196143094	0
2	8676	1731.021097579823	1
2	8679	1731.679842104654	0
2	8688	1733.304197447874	1
2	8689	1733.759778640869	0
2	8701	1735.769520058863	1
2	8704	1736.706831822528	0
2	8708	1736.810560679674	1
2	8713	1737.656816702506	0
2	8720	1738.764353745278	1
2	8721	1739.433676548099	0
2	8730	1740.286989385995	1
2	8731	1741.270769869799	0
2	8766	1748.634808386224	1
2	8772	1749.12607186847	2
2	8773	1749.168134626823	1
2	8776	1749.970755730646	0
2	8788	1752.357450663709	1
2	8789	1752.854395707215	0
2	8803	1755.323136906079	1
2	8804	1755.826365886798	0
2	8811	1757.783174988313	1
2	8812	1758.206246319676	0
2	8816	1758.216653689445	1
2	8817	1759.16915725738	0
2	8824	1760.679583868405	1
2	8825	1761.102200410313	0
2	8829	1761.711950189429	1
2	8830	1762.197104404013	0
2	8837	1763.620465595127	1
2	8841	1764.069182344146	2
2	8842	1764.314569509014	1
2	8845	1765.121813121236	0
2	8849	1765.202068266206	1
2	8850	1766.167075834221	0
2	8854	1766.180231831348	1
2	8855	1767.305569252076	0
2	8859	1767.989344218364	1
2	8860	1768.2442709687	0
2	8867	1769.249535120749	1
2	8868	1770.187262586208	0
2	8872	1770.618296770796	1
2	8873	1771.129838440457	0
2	8885	1773.725016540851	1
2	8886	1773.960200245009	0
2	8896	1776.775989077026	1
2	8897	1777.206213330273	0
2	8964	1790.602162779585	1
2	8965	1790.864537882786	0
2	9006	1797.904769488359	1
2	9009	1798.629092155657	0
2	9048	1806.306431408012	1
2	9049	1806.468595116288	0
2	9062	1807.949038585522	1
2	9063	1808.425008222815	0
2	9072	1810.353938233883	1
2	9075	1810.533985104114	0
2	9083	1811.450666287039	1
2	9085	1811.530537978363	2
2	9086	1811.667236765549	1
2	9089	1812.712086975091	0
2	9100	1814.093369642971	1
2	9102	1814.250432737321	2
2	9105	1814.536675108206	1
2	9108	1815.426513109431	0
2	9114	1815.773260080526	1
2	9115	1816.300082577188	0
2	9119	1816.632373239969	1
2	9120	1817.425666426104	0
2	9132	1819.742495554423	1
2	9136	1820.172496428676	2
2	9139	1820.508358476758	1
2	9142	1821.681770099774	0
2	9159	1824.997714289917	1
2	9160	1825.651882077548	0
2	9164	1826.0625598203	1
2	9165	1826.677450449839	0
2	9169	1827.427185390064	1
2	9170	1827.666570819244	0
2	9174	1827.990271034054	1
2	9176	1828.554989335808	2
2	9177	1828.592679367848	1
2	9184	1829.722420005482	0
2	9188	1829.741573853331	1
2	9190	1830.392266215555	2
2	9191	1830.609277732652	1
2	9194	1831.655997483787	0
2	9198	1831.959036768794	1
2	9199	1832.6089490854	0
2	9203	1833.022234201575	1
2	9204	1833.764625492581	0
2	9208	1834.268390319681	1
2	9209	1834.614780584425	0
2	9213	1835.033595518375	1
2	9215	1835.134982059252	2
2	9216	1835.565499369502	1
2	9220	1836.013407349339	2
2	9221	1836.613371362798	1
2	9225	1836.91003697169	2
2	9226	1837.464104904402	1
2	9230	1837.522721417773	2
2	9232	1837.758396025002	3
2	9233	1838.286250307206	2
2	9236	1839.283344194367	1
2	9240	1839.608306255992	2
2	9241	1840.241808039396	1
2	9245	1840.526060793165	2
2	9247	1840.723363020236	3
2	9248	1841.223937427792	2
2	9252	1841.954360022203	3
2	9257	1842.400688530299	2
2	9261	1843.317196830802	3
2	9262	1843.37965646766	2
2	9265	1844.47062632067	1
2	9268	1845.30267274564	0
2	9272	1845.893640309807	1
2	9274	1846.034866101452	2
2	9275	1846.284925985316	1
2	9279	1847.067550054033	2
2	9280	1847.408219169991	1
2	9284	1847.762527903464	2
2	9286	1847.763563197275	3
2	9287	1848.472961671537	2
2	9290	1849.467685461955	1
2	9293	1850.535969865115	0
2	9297	1850.823317462722	1
2	9298	1851.582742931487	0
2	9302	1852.134883148007	1
2	9303	1852.593540049138	0
2	9307	1852.884678213571	1
2	9309	1853.068556553568	2
2	9310	1853.616986270695	1
2	9314	1854.05490377044	2
2	9315	1854.637742431722	1
2	9319	1855.037728457444	2
2	9320	1855.690142733491	1
2	9323	1856.516928523666	0
2	9327	1856.817019359282	1
2	9328	1857.336176407038	0
2	9332	1858.210783672728	1
2	9335	1858.507588620557	0
2	9339	1858.785621472641	1
2	9341	1859.136735253152	2
2	9342	1859.528253976329	1
2	9346	1860.224732379858	2
2	9347	1860.486931643802	1
2	9351	1860.608975423328	2
2	9353	1861.327464537621	3
2	9354	1861.503007334451	2
2	9357	1862.531535751725	1
2	9361	1862.775818090652	2
2	9362	1863.35786474224	1
2	9366	1863.3750629102	2
2	9368	1863.395540567501	3
2	9369	1864.219134814831	2
2	9372	1865.279993400982	1
2	9377	1866.184824232271	0
2	9381	1866.743737983103	1
2	9383	1866.924309709212	2
2	9384	1867.152147708533	1
2	9389	1868.154083763973	0
2	9396	1869.603542466311	1
2	9398	1869.740228227074	2
2	9399	1870.156356035338	1
2	9402	1871.054135595241	0
2	9406	1872.10219791951	1
2	9407	1872.243473012259	0
2	9411	1872.610945260776	1
2	9413	1873.0832115234	2
2	9414	1873.218424336685	1
2	9417	1874.08872458197	0
2	9424	1875.481704432546	1
2	9426	1875.785198083994	2
2	9427	1876.271041588558	1
2	9430	1877.213144516179	0
2	9434	1877.407066633824	1
2	9436	1877.605412605714	2
2	9438	1878.002787413565	3
2	9439	1878.203659314548	2
2	9443	1878.656889046113	3
2	9444	1879.363224522841	2
2	9447	1880.475106898953	1
2	9451	1880.476098097688	2
2	9452	1881.431519394533	1
2	9455	1882.626104224918	0
2	9459	1883.367005236719	1
2	9460	1883.638600024001	0
2	9477	1887.403690999603	1
2	9478	1887.703513336068	0
2	9487	1888.724740936357	1
2	9488	1889.494555033071	0
2	9495	1891.210739497073	1
2	9496	1891.357910606338	0
2	9507	1892.687273361957	1
2	9508	1893.486838805562	0
2	9517	1894.610088750226	1
2	9518	1895.320370497814	0
2	9531	1899.230566593346	1
2	9534	1899.353399629312	0
2	9563	1904.591195359856	1
2	9566	1905.178429683279	0
2	9572	1905.890942934268	1
2	9573	1906.068486089613	0
2	9577	1907.18880157575	1
2	9578	1907.26181924127	0
2	9585	1908.53419990407	1
2	9587	1908.937860567927	2
2	9588	1909.215204113423	1
2	9591	1910.323469444811	0
2	9598	1911.694624961258	1
2	9602	1912.036268343735	2
2	9603	1912.189365806412	1
2	9609	1912.656842114912	2
2	9612	1913.319127930868	1
2	9618	1914.075661158639	2
2	9621	1914.452058558985	1
2	9624	1915.260283128432	0
2	9628	1915.369280248591	1
2	9629	1916.239217365514	0
2	9635	1916.975156299421	1
2	9636	1917.046457314938	0
2	9645	1918.383848563208	1
2	9648	1919.103613910712	0
2	9660	1921.439502219412	1
2	9662	1921.850724654088	2
2	9663	1921.966935792081	1
2	9668	1922.773427382465	0
2	9674	1923.806509367279	1
2	9675	1923.884264352805	0
2	9679	1924.912830671838	1
2	9680	1924.952991457543	0
2	9690	1927.386350810907	1
2	9692	1927.645878715899	2
2	9695	1928.412595563827	1
2	9700	1929.397634792028	0
2	9710	1931.217828134872	1
2	9711	1932.273825579117	0
2	9720	1933.351734718633	1
2	9723	1934.121574893947	0
2	9727	1934.959417540116	1
2	9728	1935.037485235817	0
2	9735	1936.579014683406	1
2	9736	1937.022557045313	0
2	9740	1937.562705143995	1
2	9743	1938.0660439275	0
2	9747	1938.338904191081	1
2	9748	1939.205221010724	0
2	9763	1942.215270260583	1
2	9764	1943.046728788203	0
2	9768	1943.122994561649	1
2	9769	1944.161093707176	0
2	9776	1945.635042191607	1
2	9777	1946.246697980704	0
2	9789	1949.151888187729	1
2	9790	1949.165578720233	0
2	9799	1950.796809184927	1
2	9802	1951.186168421506	0
2	9809	1953.097632019719	1
2	9810	1953.172477546036	0
2	9820	1955.47166199344	1
2	9827	1956.440219621248	0
2	9838	1957.932594370216	1
2	9839	1958.420825345702	0
2	9848	1960.034478287747	1
2	9849	1960.444731443543	0
2	9858	1961.614119471718	1
2	9859	1962.533896703906	0
2	9868	1963.840680737004	1
2	9869	1964.332315090187	0
2	9880	1965.841101456381	1
2	9881	1966.51010919435	0
2	9918	1973.547304030337	1
2	9921	1974.029517191818	0
2	9927	1974.574480483454	1
2	9928	1974.980995593576	0
2	9932	1975.080287930133	1
2	9933	1976.051947214717	0
2	9939	1976.146561843817	1
2	9940	1977.172732362414	0
2	9950	1979.942469005921	1
2	9951	1980.441993227026	0
2	9965	1982.488941604068	1
2	9968	1983.282424508112	0
2	10003	1991.244051319867	1
2	10008	1991.52863114363	0
2	10063	2002.517849133298	1
2	10064	2002.939267744853	0
2	10068	2003.301042090801	1
2	10070	2003.30312921162	2
2	10073	2004.062004292927	1
2	10076	2005.088708120383	0
2	10083	2006.752788577192	1
2	10084	2006.971131940636	0
2	10088	2007.414846756516	1
2	10089	2007.94313250881	0
2	10096	2009.27242265446	1
2	10097	2009.798738594245	0
2	10114	2014.088388729164	1
2	10117	2014.265015761073	0
2	10124	2015.383192050177	1
2	10127	2016.003702007032	0
2	10136	2017.18197037728	1
2	10142	2017.85870964385	2
2	10143	2017.998501087523	1
2	10146	2018.86381561084	0
2	10150	2019.478624574788	1
2	10151	2019.702169754527	0
2	10155	2019.913391301144	1
2	10156	2020.798243370078	0
2	10163	2021.990147444149	1
2	10164	2022.897580769736	0
2	10173	2024.400208513344	1
2	10174	2024.850524704795	0
2	10191	2028.551550328435	1
2	10192	2028.755854345284	0
2	10206	2031.704553261741	1
2	10207	2032.000830313083	0
2	10221	2034.071403225313	1
2	10224	2034.805381161705	0
2	10312	2055.34569457213	1
2	10313	2055.781032880846	0
2	10330	2059.902003609111	1
2	10331	2059.996986593477	0
2	10335	2060.395633543217	1
2	10338	2060.909438494019	0
2	10349	2062.072471230269	1
2	10351	2062.436056144779	2
2	10352	2062.866548595282	1
2	10357	2063.700489466435	0
2	10364	2065.157157238721	1
2	10369	2065.772347762699	0
2	10373	2065.951236951797	1
2	10375	2066.005082424859	2
2	10380	2066.848024487107	1
2	10384	2067.338778309053	2
2	10385	2067.800066089242	1
2	10389	2067.972492952779	2
2	10394	2068.958379555385	1
2	10398	2069.114263676912	2
2	10403	2069.763670381329	1
2	10406	2070.820605880006	0
2	10410	2071.036207332288	1
2	10411	2071.687246299333	0
2	10415	2072.368942427889	1
2	10416	2072.857465512197	0
2	10420	2072.915114484013	1
2	10421	2073.755132121298	0
2	10425	2074.321994054573	1
2	10426	2074.558626449	0
2	10430	2074.683629144947	1
2	10431	2075.43409980683	0
2	10445	2077.959109337812	1
2	10446	2078.399075675089	0
2	10450	2078.985980541127	1
2	10451	2079.283290819809	0
2	10463	2081.436704328531	1
2	10466	2082.358966491263	0
2	10484	2086.553100794967	1
2	10486	2086.886611386342	2
2	10489	2087.117066344324	1
2	10494	2087.959454078771	0
2	10504	2090.293670962403	1
2	10505	2090.878149473931	0
2	10509	2091.493784355288	1
2	10510	2091.679633443321	0
2	10527	2095.087376656682	1
2	10532	2095.883103854287	0
2	10539	2096.768837441963	1
2	10540	2097.836319789462	0
2	10549	2099.211075796924	1
2	10550	2099.491140640419	0
2	10559	2100.597652629009	1
2	10560	2101.519285260312	0
2	10572	2104.062969165299	1
2	10573	2104.369559635393	0
2	10582	2105.90460493981	1
2	10583	2106.29156491075	0
2	10590	2108.01877991601	1
2	10591	2108.03090387367	0
2	10601	2110.341369282998	1
2	10603	2110.531056910187	2
2	10604	2111.253477137147	1
2	10609	2112.216119922216	0
2	10618	2113.333271327779	1
2	10619	2114.243852082437	0
2	10626	2116.036924954945	1
2	10627	2116.204427976331	0
2	10638	2117.620123315916	1
2	10639	2118.312106444205	0
2	10648	2120.432443754768	1
2	10649	2120.511774066633	0
2	10653	2121.120665873756	1
2	10654	2121.347049452721	0
2	10668	2124.128959245818	1
2	10669	2124.199505896943	0
2	10678	2125.960899859634	1
2	10679	2126.470735482855	0
2	10691	2129.396844063989	1
2	10692	2129.524762944953	0
2	10699	2130.529343041215	1
2	10700	2131.29989613535	0
2	10704	2131.388916786808	1
2	10707	2132.468355631438	0
2	10711	2132.491979291417	1
2	10712	2133.551396415458	0
2	10719	2134.610745377121	1
2	10723	2134.669142963109	2
2	10724	2135.404529664182	1
2	10727	2136.432851329614	0
2	10731	2136.440815060981	1
2	10734	2137.399637820833	0
2	10746	2139.990230527809	1
2	10748	2140.036219693287	2
2	10749	2140.54078146562	1
2	10755	2141.309785246507	2
2	10756	2141.672004329208	1
2	10760	2141.690575098977	2
2	10761	2142.558199438899	1
2	10764	2143.642818454913	0
2	10777	2146.956894665136	1
2	10779	2147.172348168385	2
2	10780	2147.629775844496	1
2	10785	2148.550273804907	0
2	10789	2149.001346856228	1
2	10790	2149.741690565814	0
2	10794	2150.155040831279	1
2	10795	2150.857454641984	0
2	10799	2151.533786539055	1
2	10800	2151.848410268855	0
2	10807	2152.856290630228	1
2	10808	2153.938614271843	0
2	10818	2156.26126408215	1
2	10820	2157.022115135834	2
2	10821	2157.155375377165	1
2	10824	2158.29555033127	0
2	10838	2160.405154135779	1
2	10841	2160.88631525038	0
2	10845	2160.946647459509	1
2	10848	2161.790988075623	0
2	10857	2163.22083480984	1
2	10858	2163.635351668188	0
2	10862	2164.335170234515	1
2	10863	2164.53232932592	0
2	10867	2165.142258822818	1
2	10870	2165.475609503763	0
2	10874	2165.717889027592	1
2	10875	2166.397966219468	0
2	10879	2166.456330531542	1
2	10880	2167.517670215277	0
2	10884	2167.782960993287	1
2	10885	2168.480108651502	0
2	10889	2168.71908567198	1
2	10890	2169.427244593931	0
2	10897	2170.684790662173	1
2	10899	2171.229354343525	2
2	10900	2171.543819217739	1
2	10906	2172.497563648431	2
2	10907	2172.712207842415	1
2	10910	2173.903859970609	0
2	10920	2176.424228703601	1
2	10921	2176.917531374267	0
2	10927	2177.396201070679	1
2	10928	2177.980300475361	0
2	10934	2178.266819256608	1
2	10935	2178.926556919219	0
2	10939	2178.941586802113	1
2	10941	2179.329623821827	2
2	10944	2179.952517359873	1
2	10947	2180.796813008079	0
2	10954	2182.056415723584	1
2	10957	2182.865590117948	0
2	10966	2184.106880248346	1
2	10968	2184.409977830817	2
2	10969	2184.863002510818	1
2	10973	2185.520379399064	2
2	10974	2185.756095214544	1
2	10979	2186.818004013674	0
2	10986	2187.917847353154	1
2	10987	2188.946846842656	0
2	10991	2189.54572718238	1
2	10992	2189.828767784296	0
2	11004	2192.290518905185	1
2	11007	2192.892624313088	0
2	11014	2194.136085401944	1
2	11019	2195.146838323476	0
2	11025	2195.660704658944	1
2	11029	2195.788733279194	2
2	11030	2196.24294720663	1
2	11033	2197.102955248098	0
2	11037	2197.427162371681	1
2	11038	2198.050831482357	0
2	11045	2199.874703359165	1
2	11046	2200.010266884586	0
2	11050	2200.61999622638	1
2	11051	2200.96870672431	0
2	11055	2201.120575413147	1
2	11056	2201.851638688968	0
2	11063	2203.525272335381	1
2	11064	2204.110504990333	0
2	11068	2204.159344167376	1
2	11071	2204.960209006706	0
2	11075	2205.090291030353	1
2	11076	2205.914634113556	0
2	11080	2206.635943320524	1
2	11081	2206.77168991443	0
2	11090	2208.342425285563	1
2	11091	2208.600683663397	0
2	11098	2209.691996769944	1
2	11101	2210.674481977972	0
2	11149	2220.811186369878	1
2	11150	2221.418315050641	0
2	11305	2256.027800898941	1
2	11306	2256.177200757416	0
2	11317	2257.792263884564	1
2	11319	2257.935159707062	2
2	11320	2258.156611217634	1
2	11323	2259.156430417654	0
2	11327	2259.652471178969	1
2	11329	2259.667734941482	2
2	11332	2260.212308933102	1
2	11338	2260.752957027791	2
2	11341	2261.400237746612	1
2	11344	2262.220105973427	0
2	11351	2263.263193551285	1
2	11353	2264.298602656163	2
2	11354	2264.32313481791	1
2	11359	2265.283249918353	0
2	11363	2265.423918371741	1
2	11365	2266.307825018485	2
2	11366	2266.32768025294	1
2	11370	2266.579855096112	2
2	11371	2267.174396285583	1
2	11374	2268.289566052501	0
2	11378	2268.391179573849	1
2	11380	2268.61332556692	2
2	11381	2269.25939489238	1
2	11385	2269.901735868506	2
2	11386	2270.184416271262	1
2	11389	2271.057764631491	0
2	11396	2271.982777228469	1
2	11398	2272.072412173768	2
2	11400	2272.75235915435	3
2	11401	2272.839287525211	2
2	11406	2273.946594990399	1
2	11411	2275.114525930006	0
2	11415	2275.530422628031	1
2	11416	2276.000898656789	0
2	11420	2276.644900696035	1
2	11421	2276.897184520848	0
2	11425	2276.997461626144	1
2	11426	2278.027509542163	0
2	11430	2278.552462234385	1
2	11431	2278.876855046842	0
2	11438	2280.503863516927	1
2	11439	2281.111716945544	0
2	11443	2281.337956378829	1
2	11444	2281.972522781771	0
2	11448	2282.360525061276	1
2	11450	2282.398646057645	2
2	11452	2282.545867034363	3
2	11453	2282.948600698058	2
2	11457	2283.431024691405	3
2	11458	2284.127901050523	2
2	11462	2285.229001499889	3
2	11463	2285.253521836158	2
2	11467	2285.345549686928	3
2	11468	2286.419720975943	2
2	11472	2287.004580849975	3
2	11473	2287.474077035748	2
2	11476	2288.378231726289	1
2	11479	2289.386723144893	0
2	11483	2289.441736684856	1
2	11484	2290.560389997792	0
2	11488	2291.325195889872	1
2	11489	2291.575977830664	0
2	11496	2293.388004504478	1
2	11497	2293.454889776633	0
2	11501	2293.933428168201	1
2	11502	2294.375973293354	0
2	11509	2295.415243651162	1
2	11510	2296.156811990105	0
2	11514	2296.481988017287	1
2	11518	2296.876603821557	2
2	11519	2297.108213508949	1
2	11522	2298.00649869375	0
2	11526	2298.113194128675	1
2	11528	2298.469410528069	2
2	11529	2298.91275583448	1
2	11533	2298.951606159061	2
2	11535	2299.49633805888	3
2	11538	2299.773141193466	2
2	11541	2300.911376599578	1
2	11544	2301.773251456844	0
2	11548	2301.801537075873	1
2	11550	2302.716402579248	2
2	11551	2302.724783250114	1
2	11555	2302.947066484592	2
2	11557	2302.971186428619	3
2	11558	2303.583234232089	2
2	11562	2303.949161936376	3
2	11563	2304.682449305414	2
2	11567	2305.075185352018	3
2	11569	2305.338525637902	4
2	11570	2305.713249850164	3
2	11573	2306.518777474372	2
2	11577	2306.774539844999	3
2	11578	2307.319961907698	2
2	11582	2307.857703710207	3
2	11583	2308.465862851853	2
2	11586	2309.607850062086	1
2	11590	2309.722408963496	2
2	11591	2310.728390449642	1
2	11595	2310.843108843366	2
2	11597	2311.497944704138	3
2	11598	2311.86218098894	2
2	11602	2311.963919874945	3
2	11605	2312.871346083919	2
2	11609	2313.254454747221	3
2	11611	2313.299604945623	4
2	11612	2313.737888622826	3
2	11615	2314.673411141226	2
2	11618	2315.732615035197	1
2	11622	2315.953302573424	2
2	11624	2316.000420814645	3
2	11626	2316.541652312828	4
2	11627	2316.739511682822	3
2	11631	2316.884878686971	4
2	11632	2317.77646017995	3
2	11635	2318.764329600225	2
2	11639	2319.274210536917	3
2	11640	2319.840677991214	2
2	11643	2320.716914380978	1
2	11647	2321.481647008592	2
2	11648	2321.579921524304	1
2	11651	2322.625517196751	0
2	11655	2322.758716558935	1
2	11657	2323.264543933543	2
2	11658	2323.739372052981	1
2	11661	2324.715444977099	0
2	11668	2325.932728136846	1
2	11669	2327.07244912524	0
2	11676	2328.537085972524	1
2	11677	2329.225469576179	0
2	11681	2329.920263002403	1
2	11683	2330.227384723241	2
2	11684	2330.22783471661	1
2	11688	2331.146200018881	2
2	11690	2331.28746055844	3
2	11691	2331.3703759441	2
2	11696	2332.246467067286	1
2	11699	2333.339145736381	0
2	11703	2334.338248957097	1
2	11704	2334.355145844802	0
2	11712	2334.93268567638	1
2	11714	2335.044378321688	2
2	11716	2335.050487840726	3
2	11717	2335.400598723612	2
2	11720	2336.469531810175	1
2	11724	2336.704859305889	2
2	11726	2337.09271387427	3
2	11727	2337.484969239201	2
2	11731	2338.15848562892	3
2	11732	2338.360413294643	2
2	11735	2339.194625758178	1
2	11739	2340.034312337062	2
2	11740	2340.230363959524	1
2	11744	2340.703440109	2
2	11745	2341.405412804692	1
2	11748	2342.377702427733	0
2	11755	2344.138544751574	1
2	11756	2344.473600946258	0
2	11763	2345.862586476745	1
2	11764	2346.37805078056	0
2	11786	2351.212659187164	1
2	11787	2351.265759079608	0
2	11796	2352.713186672968	1
2	11798	2352.837169648869	2
2	11801	2353.06795557326	1
2	11808	2354.104707152474	0
2	11814	2354.230848083737	1
2	11815	2355.180332850929	0
2	11822	2356.660763149188	1
2	11823	2357.152491031665	0
2	11827	2357.361228028593	1
2	11829	2358.295002183641	2
2	11830	2358.338736907005	1
2	11833	2359.339014287185	0
2	11840	2360.993315769805	1
2	11841	2361.015396803417	0
2	11861	2365.276539890489	1
2	11866	2365.894199134861	0
2	11873	2366.834596653053	1
2	11875	2367.03100702231	2
2	11876	2367.886348455478	1
2	11879	2369.005849422221	0
2	11889	2371.492677552442	1
2	11891	2372.365288110715	2
2	11892	2372.417351895463	1
2	11898	2372.717011243402	2
2	11901	2373.40115037233	1
2	11906	2374.31947342575	0
2	11910	2374.411561544036	1
2	11911	2375.427364336312	0
2	11915	2375.611681659903	1
2	11916	2376.558706410587	0
2	11920	2376.605394342568	1
2	11921	2377.464626479414	0
[...]
6	122465	24451.646722803402	496.0306524145
6	122484	24456.759768436521	492.00099821504
6	122487	24457.576024870619	1797.9017152643
6	122503	24461.190235838805	2974.3942260899
6	122518	24463.940059486356	10539.469252563
6	122524	24465.74548701723	313.84753149028
6	122527	24466.575270106875	1631.6664063189
6	122584	24475.493626176054	3164.8958299573
6	122621	24483.087583763945	471.816497992
6	122844	24526.0554284479	4123.1479107175
6	122880	24534.53101034048	3594.3458627492
6	122900	24538.457565595908	354.01413413414
6	122923	24543.235616872879	505.48208810764
6	122941	24547.366793242423	506.43189542122
6	123025	24563.171610605486	755.68312433434
6	123028	24564.288694994293	1083.023974041
6	123055	24569.679687922402	353.75530217744
6	123823	24718.111544779919	1205.0246973814
6	123934	24739.338750143206	1166.7920135037
6	124026	24759.506583133101	657.57021702298
6	124101	24775.319798035495	1124.4718802368
6	124106	24776.479974413052	1121.1567040488
6	124114	24778.561388433021	855.71227673373
6	124212	24797.337587378401	665.04768553975
6	124299	24814.392947868857	2971.8079043072
6	124531	24860.777706420276	364.41425949891
6	124564	24868.113094067615	1446.3439334191
6	124592	24874.254800013774	337.50831427558
6	124608	24877.907665093565	1121.0660452283
6	124638	24883.904346816843	325.52893829926
6	124742	24903.545226396756	1400.3213316827
6	124929	24941.435312297984	215.40788081848
6	124970	24950.247525606161	1375.2545712057
6	125060	24967.740547048621	1697.1093498401
6	125070	24969.907845418196	550.74995150432
6	125168	24989.614432803768	195.16810242059
6	125196	24995.190167884196	3153.3806415749
6	125289	25012.056105395631	1621.3659308414
6	125296	25012.891564822794	1615.7950172418
6	125318	25017.270810522736	545.82335613712
6	125342	25023.063515138944	1322.3610902768
6	125425	25040.766506309566	191.55214251672
6	125520	25059.574576240909	875.83836517629
6	125526	25061.692266268973	513.74925995625
6	125544	25065.698024504297	715.36923205853
6	125563	25068.498455467952	4351.7275228649
6	125608	25077.658335844931	1918.6504496379
6	125688	25094.01618284764	1040.7352212938
6	125898	25135.207223570013	508.51275339236
6	125905	25136.018152336536	497.58854190828
6	125914	25139.019224469496	481.62052171023
6	125919	25140.211955690889	472.80755723453
6	125995	25155.357719200888	461.49996091379
6	126024	25160.577244417781	778.28983339967
6	126161	25186.751150579417	446.82306846222
6	126258	25204.970005615188	2866.5939335708
6	126446	25243.426614036918	824.18053071389
6	126452	25245.082812734735	3162.6182639557
6	126462	25247.181127114542	5286.6141839095
6	126541	25262.455876039566	275.99076342668
6	126659	25286.010743616467	494.38819478729
6	126695	25292.018900514152	295.31751961556
6	127114	25374.923894742636	2551.8938566062
6	127185	25390.278463439123	382.61105842775
6	127190	25391.387861526889	1103.5815518755
6	127228	25398.765637043902	390.34569995838
6	127247	25403.91239398014	1102.9249113356
6	127250	25405.069947014695	1099.298376598
6	127257	25406.116767438726	1256.4991802862
6	127275	25410.066130180231	4113.890956147
6	127283	25412.339038095756	2940.5135307235
6	127291	25414.2350441907	1410.7092929382
6	127304	25417.431385977886	1241.8468937134
6	127350	25428.09911144054	372.40462541959
6	127361	25430.988447526139	2309.9974153315
6	127379	25434.857495934558	885.31417495046
6	127732	25502.230914599024	1674.6537245774
6	127765	25508.945666692634	1135.5337000231
6	127775	25511.158266626899	4783.5541517514
6	127844	25525.991734504556	1149.405716297
6	127857	25528.828332584766	1148.8600726064
6	127912	25539.367806130599	609.70057068741
6	128222	25599.540133348523	403.66756641625
6	128300	25615.353443042605	1381.6478816086
6	128410	25637.516767767209	665.69136810673
6	128582	25674.361382397217	2346.0147739904
6	128598	25678.332290665943	323.00720163634
6	129035	25762.101278239069	2338.624557562
6	129075	25770.250912463246	2848.5715895458
6	129099	25776.051383209182	1415.6345907505
6	129107	25777.919753925829	1953.5183974191
6	129121	25781.855592026795	281.18210962095
6	129152	25788.299654225494	1186.1168520094
6	129174	25792.378451974923	1168.4095283782
6	129379	25830.601922385441	1112.659557236
6	129452	25847.988586968697	252.98664625021
6	129485	25854.999669210195	2604.9409802048
6	129522	25863.921187468293	5991.6759482314
6	129673	25888.984825746856	3074.6292537093
6	129696	25893.897006745033	1629.3355790076
6	129711	25896.86208877857	633.43722344053
6	129732	25901.357635434766	1469.0440914991
6	129798	25914.769595092489	1474.9938363666
6	129813	25917.885530529033	591.60636368997
6	129991	25951.324202382054	1135.6647612622
6	130042	25961.899785257178	930.86921694773
6	130061	25966.696745027182	3799.977137732
6	130095	25972.140107713036	1470.7670864413
6	130249	26003.00646772166	1676.0154427921
6	130262	26006.07160356357	1482.6307572853
6	130275	26009.021649241311	570.15953095544
6	130281	26010.935700411307	3128.7004405394
6	130305	26014.995711419316	4438.3046277802
6	130338	26021.925690889595	1979.0512613695
6	130370	26028.306784813809	2880.1640890677
6	130381	26031.206522094136	939.44905579626
6	130427	26041.056020112759	541.73286499714
6	130434	26042.156517323437	3437.7307149631
6	130501	26055.334750032011	943.24516313851
6	130546	26064.528116879944	1146.2491830829
6	130609	26077.04984428543	919.23301214225
6	130669	26089.774989048162	260.92245496228
6	130674	26090.713844568798	1149.6068959117
6	130682	26092.882315857665	526.93031877636
6	130698	26096.950820622177	922.15488853677
6	130891	26134.659182024796	4075.691567843
6	130897	26136.6845272698	268.58524266323
6	130902	26137.691702766486	947.96424609732
6	130943	26146.973865486544	1180.1300413994
6	130968	26152.062417178556	2047.1362692507
6	130988	26155.984287380475	1913.510884477
6	131066	26172.143557119419	1747.9457707099
6	131091	26177.066707902264	909.43567226487
6	131119	26182.818138403681	503.791412359
6	131174	26193.496293385002	2249.3936416557
6	131257	26208.2672858411	260.48907985176
6	131383	26233.873745750125	1756.878098898
6	131395	26236.129366687826	5966.6932744706
6	131462	26249.40903972718	495.70843741917
6	131499	26258.673204940326	1740.6182188864
6	131506	26259.693822646561	259.71890827572
6	131518	26261.73110887739	2511.0660302951
6	131521	26262.908534267034	1925.2436691526
6	131529	26264.689283831372	1728.1598019529
6	131532	26265.567398670643	1384.176859112
6	131545	26268.506504226803	809.1956704808
6	131671	26293.390914723698	1681.3449794082
6	131722	26303.650101784012	231.04047024212
6	131816	26322.589674336882	516.37421111712
6	131885	26336.114938291582	764.11303471479
6	131918	26342.917571983441	225.03527372726
6	131929	26345.616565690424	2125.3717474536
6	131937	26347.602098077211	226.67152650571
6	131945	26349.306028402645	495.95366508304
6	131950	26350.217133069832	1957.6471824801
6	131984	26357.990187068799	2461.7770016804
6	131989	26359.163072878452	744.1416560581
6	131994	26360.024793077031	487.31697332539
6	132009	26363.131123823443	1139.003280951
6	132246	26409.983095620714	729.25761092987
6	132303	26421.48530831854	221.61018599463
6	132397	26441.428481722486	213.07039080303
6	132402	26442.320744883598	208.13963456989
6	132409	26443.159477519387	2737.656487374
6	132412	26444.132245627654	204.29183415618
6	132435	26449.272251506851	476.68836276565
6	132451	26453.209740551891	471.11188290025
6	132921	26545.261434447628	262.28183983247
6	132982	26558.241380369432	755.31580617993
6	133067	26575.57087370255	448.17232373558
6	133121	26588.496889295104	1360.1705254663
6	133126	26589.50259813103	709.74660574135
6	133153	26594.718433205271	3550.4499890273
6	133193	26602.835682555334	215.07670389013
6	133198	26603.961780939018	943.20732854015
6	133224	26609.803928107721	3281.7582745836
6	133227	26610.73066133079	202.42252892712
6	133235	26612.795472197932	202.16593159555
6	133240	26613.822577449073	1311.8674978211
6	133326	26630.206974029681	1627.9666279489
6	133417	26646.51458800477	2183.7701408006
6	133433	26650.404693799885	1244.3323319096
6	133460	26655.445775099611	952.25382420365
6	133494	26661.544508222724	1246.7017137234
6	133538	26671.46662729378	2181.6428837923
6	133544	26673.222022219982	414.00034646232
6	133583	26682.391861366714	206.55049499182
6	133588	26683.315118229436	2121.8854917205
6	133619	26687.97346402225	644.77180416489
6	133675	26697.426205174019	1592.384893875
6	133730	26708.457291100497	654.56346408466
6	133773	26717.799553206886	422.25428210267
6	133858	26734.858633069551	656.3445139295
6	133932	26749.32830898142	428.82861275115
6	133985	26762.350834772222	1212.2140135073
6	134016	26769.102268741045	1589.019991623
6	134025	26770.279951866109	656.99173983953
6	134031	26771.980536614311	919.52312846663
6	134036	26772.962851623491	2040.0586571166
6	134051	26776.264069215347	2694.1149228527
6	134054	26777.167409012885	2377.913630683
6	134076	26781.609549442072	2371.7755345198
6	134092	26785.796294798189	3151.8555180899
6	134100	26787.662090126285	616.99754084493
6	134118	26791.604254384665	1147.8563715608
6	134123	26792.500768496981	2018.7551943536
6	134146	26797.445776644023	623.06830633093
6	134200	26808.65073372782	396.55153923975
6	134228	26814.592393008106	620.55050040321
6	134380	26842.528140802169	885.51342788872
6	134713	26909.923757552121	1169.7997835058
6	135128	26989.878425542868	3540.2948220497
6	135142	26993.835109458535	304.97229163404
6	135169	26998.580575268294	497.75694450763
6	135172	26999.395539851624	719.38598998417
6	135208	27007.149217287775	723.44628408727
6	135220	27009.235245453145	5330.2284931562
6	135281	27019.835713801299	1470.8080485214
6	135289	27022.064867087965	1201.1641070472
6	135327	27030.10119397766	462.43768030442
6	135389	27043.282545210284	4608.134712963
6	135432	27050.696787805439	1142.5589050703
6	135444	27052.621673658353	437.64992697112
6	135540	27071.833373026786	256.42330506296
6	135543	27072.668694648569	1154.4260258296
6	135589	27082.757095667212	2276.5838959256
6	135611	27086.924011955553	2801.2229040521
6	135614	27087.809313868315	885.64637938711
6	135632	27091.90056868396	3127.8267104082
6	135638	27093.92554201442	443.22060352345
6	135641	27094.789310725454	1148.4559425689
6	135648	27095.755023746054	2623.0413662639
6	135674	27101.059952301952	1396.6654584528
6	135687	27103.949086761057	442.93367948177
6	135707	27107.900110052854	863.33602844952
6	135724	27110.73093704195	436.32144516105
6	135759	27117.472269167056	195.95753106826
6	135895	27146.210174244134	648.97525753557
6	136042	27174.988979008009	2482.2426731283
6	136045	27175.936244861928	1374.3028113633
6	136072	27180.732068483957	1356.7925407108
6	136086	27185.009686679261	1345.8067348172
6	136123	27192.011159266213	1352.0884515405
6	136177	27201.808817167914	841.90470833749
6	136510	27266.294731745272	659.34846565656
6	136561	27276.898703287972	2294.3395016976
6	136599	27285.550942498877	3155.5733831249
6	137092	27380.874329780009	960.76417553463
6	137165	27396.053470524089	751.72247812402
6	137459	27453.957775665417	4343.5216269387
6	137502	27462.435357002325	518.25064012049
6	137542	27470.288397001911	2404.1563888965
6	137647	27491.438565530039	946.11974987151
6	137684	27498.579398342657	804.85342000406
6	137856	27532.295955113203	793.82388568763
6	137864	27534.407151615408	514.9716082163
6	137960	27555.022391607585	786.72220025531
6	138022	27567.513786173865	373.9671064285
6	138030	27569.54688392577	533.19811827165
6	138422	27645.693261656046	830.20696503181
6	138442	27650.034370606367	304.0248792744
6	138487	27661.002625585413	1040.7473383945
6	138496	27662.129689976266	840.74234203313
6	138530	27670.275453527058	271.67300704587
6	138536	27671.95821668028	815.2582172925
6	138539	27672.969895125805	249.89414016609
6	138565	27676.665993987648	818.96855080299
6	138635	27690.424339147816	232.85964525141
6	138862	27735.786548074125	1677.0303438098
6	138876	27737.973094413871	1022.7337218076
6	139527	27865.212715307035	651.10150757277
6	139532	27866.211075420369	3096.6013263884
6	139540	27868.205831717857	635.54350786853
6	139548	27870.127877906495	3095.6998825953
6	139680	27894.643493444817	552.64961472629
6	139744	27906.43874698232	828.40729458108
6	140132	27983.89561910617	3182.1651125052
6	140201	27998.993743532216	570.95745707758
6	140225	28003.108802183224	1348.5266034931
6	140393	28037.022530871508	334.83686277746
6	140413	28040.763495706273	2019.825241445
6	140430	28043.877817953442	2560.6670513488
6	140614	28077.887648220238	330.72972504146
6	141022	28160.448588121094	342.5784527139
6	141030	28162.501709438179	1831.33851839
6	141042	28166.361767180701	1820.4144121548
6	141047	28167.466994066228	572.83652106162
6	141132	28185.465379427903	983.99088850214
6	141172	28193.28323577416	1387.8320940585
6	141238	28205.078195667797	2915.251373792
6	141295	28215.816729569685	563.07376595112
6	141322	28220.849386168243	319.61071527102
6	141760	28308.640246753083	920.40269028211
6	141826	28322.769992647659	1224.0142028149
6	141831	28323.808548783664	644.65559416678
6	141916	28341.292187058985	2579.9592019008
6	141948	28347.796890166367	1374.4583189686
6	141964	28351.528716126049	1372.7162820122
6	142045	28368.485888015535	314.86721797977
6	142053	28370.213137158435	312.6770160581
6	142066	28373.491652793401	311.03507379299
6	142097	28380.690416696258	305.23959150403
6	142110	28383.635858006366	298.03929896119
6	142123	28386.384433351141	2853.9653827887
6	142152	28391.175557536595	243.09029638812
6	142239	28408.113358908203	1841.4478897353
6	142242	28409.28241414005	596.63431594018
6	142304	28421.194168521798	822.37795376339
6	142610	28482.038585348203	3295.382199153
6	142662	28494.500669202263	308.16585981448
6	142735	28509.191846491544	1290.0662357121
6	143046	28568.948351164401	330.5453318177
6	143054	28571.026085020747	327.84076068797
6	143114	28582.950983921025	3279.5347530583
6	143210	28601.521589613943	5942.4305732048
6	143241	28608.343865350125	1187.7158728855
6	143301	28620.986737875785	4919.1233356299
6	143464	28652.616634000521	2199.0465037507
6	143472	28654.966095628738	314.62460673931
6	143536	28669.12363428954	1661.9349278358
6	143575	28676.420567387958	611.03417615251
6	143603	28682.219625937531	1155.2504625644
6	143844	28726.257021293941	1699.7982242719
6	143889	28735.874918604237	1174.6101773388
6	143910	28740.552105000209	1542.8501120634
6	143956	28750.580210676199	889.4264282092
6	144018	28762.545508095312	1127.5507756741
6	144028	28764.572502465981	564.58708611324
6	144053	28769.756156583006	1131.1728598152
6	144103	28779.176949384405	2588.8286835742
6	144249	28809.041364596569	230.37559143672
6	144284	28816.057980558993	885.26282656927
6	144324	28824.311836528842	5764.35585272
6	144338	28828.358888809354	215.1178525292
6	144417	28844.326766909537	3131.4283037779
6	144458	28851.488810547599	1741.418369517
6	144493	28860.452811752045	829.81125863956
6	144510	28863.248516603438	2850.2879904037
6	144572	28877.663450979413	1722.6056615916
6	144592	28881.580187722733	1713.6546240678
6	144617	28886.8374566592	2591.9930736535
6	144713	28905.376787595611	202.84544502436
6	144718	28906.45567580878	190.50966628402
6	144726	28908.547459249173	762.85768115512
6	144747	28913.51910741485	764.55398671651
6	145036	28971.355452055182	422.18461361351
6	145066	28977.21085865905	741.88701058039
6	145127	28990.263331939349	747.83702416665
6	145174	28999.704365681553	416.67844751476
6	145183	29002.463875161924	185.25392868385
6	145259	29017.708174974071	1007.8574368403
6	145264	29018.867806106778	392.39111499466
6	145319	29027.893573210455	2361.9459652796
6	145343	29033.43947983158	1006.1692953384
6	145351	29035.184513359864	4171.1398271202
6	145366	29038.432730071966	999.16193176956
6	145369	29039.359553217583	1896.6915537775
6	145493	29063.675556165792	186.45864984226
6	145545	29075.784420076919	391.62379104213
6	145563	29079.511301861958	976.44752747174
6	145573	29081.470958599516	385.8887103209
6	145576	29082.424789203771	386.58868987721
6	145610	29088.725978346982	940.56236934346
6	145645	29095.796477794063	1549.0205134108
6	145869	29139.699039368029	3037.1943936182
6	145877	29141.728423381947	718.53157584937
6	145880	29142.869153210871	1288.8847010845
6	145958	29158.663591265191	212.10603449524
6	145963	29159.656359390893	1294.6752590745
6	145973	29161.598652540405	2381.8348635164
6	146003	29167.659448659026	2804.3577532177
6	146059	29179.579196292978	662.44677394404
6	146088	29184.603292158224	399.94669444962
6	146151	29197.286350999191	205.55044516999
6	146206	29208.279416680965	924.9062152793
6	146244	29216.468701365008	618.29019265977
6	146255	29219.479339682288	2575.4953154082
6	146287	29225.85422233527	208.25943601312
6	146367	29239.791810599318	609.05222912128
6	146440	29255.279296267011	2579.7599524873
6	146451	29258.64001594789	2342.6070695396
6	146488	29266.883929342102	209.43291777879
6	146507	29269.595623955387	597.39500145037
6	146510	29270.697060440551	1218.4554374824
6	146553	29279.360400947161	387.84931147598
6	146565	29281.480011024024	588.82694640435
6	146575	29283.470300562378	1157.5361245192
6	146591	29287.32583811728	376.71151304915
6	146599	29289.601804264054	566.04245811509
6	146604	29290.683171164129	566.41149414291
6	146676	29304.294104200299	864.17978875506
6	146976	29362.804470282675	181.79157344262
6	146981	29363.750455482	4079.9903605622
6	146992	29366.27816363077	184.55515700552
6	147102	29387.368569529591	2041.242927043
6	147240	29415.058562124312	424.68982172108
6	147357	29438.187776575213	2075.1302751375
6	147405	29447.992956960828	217.92115865425
6	147436	29455.175411819921	2018.2421780055
6	147508	29469.377265835621	1123.3259298461
6	147519	29472.656895393201	3010.7953794419
6	147535	29476.185469561044	2786.1201163778
6	147552	29481.299772928909	1984.2819127346
6	147679	29504.0233387904	225.11040255786
6	147682	29504.929521500481	1437.7375988411
6	147862	29540.509583410782	1397.8438336902
6	147932	29554.035403432208	256.50882046262
6	147950	29557.985830446216	1743.9356952287
6	147972	29562.276615817636	631.80131663913
6	148078	29584.866206184473	3435.1867736793
6	148172	29603.239785006807	1390.4407088514
6	148175	29604.267480081578	415.45342198027
6	148191	29607.939354194772	1044.1649591078
6	148226	29614.774277651009	2261.7042362783
6	148258	29622.768197647275	1003.4061727775
6	148325	29636.158623550346	779.21797750031
6	148335	29637.933927092588	600.49716613422
6	148456	29659.613460690137	3866.7408406807
6	148465	29663.008751856052	385.89814448587
6	148486	29667.676461305172	2654.7459669802
6	148545	29683.552992807589	579.9649315661
6	148550	29684.638334829062	1881.4691373785
6	148643	29699.687986112925	1845.234724304
6	148682	29706.282954499945	549.65253044791
6	148707	29712.904396799467	122.31200719945
6	148760	29726.297049246711	1152.7393984738
6	148768	29728.26189188583	300.69675216567
6	148798	29732.372876440158	727.28435830002
6	148866	29746.007068875135	513.27018597585
6	148869	29746.932148728875	1124.2044986185
6	148880	29749.932723172271	502.5992005658
6	148888	29751.898053219338	105.36912170525
6	148979	29769.652635020001	693.14952615372
6	149010	29775.072681004817	1384.8541004715
6	149091	29790.215273984597	2766.7361936667
6	149104	29793.212878759281	696.52940518425
6	149152	29802.789937046712	243.11881894428
6	149162	29804.998187277263	673.34793706474
6	149215	29815.912899893133	672.40899483574
6	149267	29825.879114502466	506.14235808687
6	149292	29831.258596990801	2631.6059804347
6	149382	29847.747951043382	121.59003141561
6	149419	29856.56364037188	2545.8515386554
6	149454	29863.307977030318	461.11207871648
6	149491	29872.439125858324	3241.1066672258
6	149683	29908.158507750819	281.81320862798
6	149718	29915.671991416422	687.82332502529
6	149740	29921.478392613754	895.60044155159
6	149747	29922.490039758087	288.15192835376
6	149753	29924.305659000651	1087.1353888721
6	149815	29936.285158150345	460.36160355784
6	149823	29938.214893713761	4458.2133838972
6	149866	29947.923630160727	458.97309277841
6	149898	29955.947756605296	673.38598067095
6	149950	29965.673166863041	276.78920751039
6	149990	29974.062666849213	2176.9101119378

