version 2
run Second_exit_8-17-20191017-13:44:08-1972
attr configname Second_exit_8
attr datetime 20191017-13:44:08
attr experiment Second_exit_8
attr inifile omnetpp.ini
attr iterationvars ""
attr iterationvarsf ""
attr measurement ""
attr network ResponseTimeNetwork
attr processid 1972
attr repetition 17
attr replication #17
attr resultdir results
attr runnumber 17
attr seedset 17
param **.Source.interArrivalTime exponential(5s)
param **.jobPriority bernoulli(0.6)
param **.PS.serviceTimeU1 "uniform(0.8s, 1.2s)"
param **.PS.serviceTimeU2 "uniform(1.8s, 2.2s)"
param **.SS1.serviceTime exponential(1s)
param **.SS2.serviceTime exponential(1.2s)
param **.PS.exitProbability bernoulli(0.8)

vector 0 ResponseTimeNetwork.SS1 queueLength:vector ETV
attr interpolationmode sample-hold
attr title "queue length, vector"
vector 1 ResponseTimeNetwork.SS2 queueLength:vector ETV
attr interpolationmode sample-hold
attr title "queue length, vector"
vector 2 ResponseTimeNetwork.QueueU1 queueLength:vector ETV
attr interpolationmode sample-hold
attr title "queue length, vector"
vector 3 ResponseTimeNetwork.QueueU2 queueLength:vector ETV
attr interpolationmode sample-hold
attr title "queue length, vector"
vector 4 ResponseTimeNetwork.sink lifeTimeU1:vector ETV
attr interpolationmode none
attr title "lifetime of arrived jobs U1, vector"
attr unit s
vector 5 ResponseTimeNetwork.sink lifeTime:vector ETV
attr interpolationmode none
attr title "lifetime of arrived jobs, vector"
attr unit s
vector 6 ResponseTimeNetwork.sink lifeTimeU2:vector ETV
attr interpolationmode none
attr title "lifetime of arrived jobs U2, vector"
attr unit s
2	0	0	0
2	15	4.527245380953	1
2	16	4.885700214088	0
2	29	6.662318518731	1
2	30	6.880728701868	0
2	67	13.447282321752	1
2	70	14.159877058204	0
2	79	15.181024827292	1
2	80	16.08349205292	0
2	89	17.516466464284	1
2	90	18.041313349262	0
2	99	20.01316805535	1
2	100	20.219305307504	0
2	106	21.219680961653	1
2	107	21.237304736946	0
2	114	22.366672308876	1
2	116	22.95545238152	2
2	117	23.248502687265	1
2	122	24.403695659892	0
2	126	24.474095304266	1
2	127	25.387644989875	0
2	134	26.544274820266	1
2	135	27.580430735176	0
2	150	30.864766637257	1
2	151	31.809087361855	0
2	155	31.899081673212	1
2	156	32.94080926943	0
2	160	33.214781186108	1
2	161	33.896959066478	0
2	170	35.58420625754	1
2	171	36.084352836723	0
2	185	39.255177696413	1
2	186	39.406824400696	0
2	230	50.014499091708	1
2	231	50.805363481506	0
2	240	52.250965952617	1
2	243	52.998718458056	0
2	255	55.196663106892	1
2	256	55.742017558418	0
2	272	59.792648589672	1
2	273	59.967631389528	0
2	282	61.850425157204	1
2	283	62.190764073331	0
2	287	62.30452670859	1
2	288	63.239646124609	0
2	292	63.500430070888	1
2	293	64.071706660792	0
2	300	66.120013877383	1
2	301	66.154346514262	0
2	310	67.584253458879	1
2	313	68.402425407722	0
2	317	69.125424422161	1
2	318	69.403332050621	0
2	340	75.930440172581	1
2	341	76.801471680294	0
2	352	78.79777787777	1
2	353	78.831438324026	0
2	360	80.765531905552	1
2	361	80.880514315686	0
2	385	85.241862333705	1
2	386	86.401102972171	0
2	395	87.833496201257	1
2	398	88.434301137506	0
2	409	89.84723660032	1
2	411	90.115810658082	2
2	412	90.433535202454	1
2	415	91.39161039102	0
2	422	92.563671919482	1
2	423	93.287720794651	0
2	427	93.493563838489	1
2	432	94.46506766691	0
2	439	95.382627537905	1
2	441	95.567600748369	2
2	442	96.142040959886	1
2	447	97.119305236778	0
2	486	104.83901665492	1
2	487	104.871820539377	0
2	504	108.948622249221	1
2	506	109.023995992273	2
2	507	109.137100655168	1
2	510	110.10275710677	0
2	527	113.218896387116	1
2	530	113.82795480681	0
2	539	114.926269758135	1
2	542	115.896566829136	0
2	548	116.438617077934	1
2	550	116.964400299212	2
2	551	117.034111884753	1
2	555	117.545310925117	2
2	556	117.974943250562	1
2	560	118.80264652241	2
2	561	118.849359735339	1
2	564	119.654846107545	0
2	571	120.553270048885	1
2	573	120.646908825217	2
2	575	121.435144192914	3
2	576	121.65156607428	2
2	583	122.469711606441	1
2	587	122.816202943581	2
2	588	123.627084149005	1
2	592	124.040346106764	2
2	593	124.712873942176	1
2	597	124.98526821514	2
2	598	125.621402361201	1
2	601	126.815661686895	0
2	610	127.897124702391	1
2	611	128.902328955246	0
2	622	129.903459312152	1
2	624	130.119927413366	2
2	625	130.956320779449	1
2	630	132.13032745724	0
2	637	133.397741579054	1
2	638	133.895136314308	0
2	647	134.946588978451	1
2	648	135.694088428331	0
2	660	138.192882138382	1
2	661	138.771102432026	0
2	675	140.837610516867	1
2	678	141.704543127263	0
2	685	143.209338758402	1
2	686	143.788508624355	0
2	697	145.844722586504	1
2	698	146.050010007205	0
2	710	148.235694508068	1
2	711	149.094115031655	0
2	817	183.757384902892	1
2	818	184.001795989105	0
2	830	186.331841308619	1
2	831	186.916365511639	0
2	842	188.128020537227	1
2	843	189.001172260864	0
2	870	195.933108632563	1
2	871	196.39000831909	0
2	889	201.266748928788	1
2	890	201.437013176598	0
2	901	202.785139187059	1
2	904	203.517850753714	0
2	923	206.682207438846	1
2	924	207.226687340301	0
2	934	209.876349251509	1
2	937	210.417023974985	0
2	946	212.134504294664	1
2	949	212.406497988991	0
2	960	214.157983023516	1
2	961	214.575841774001	0
2	968	215.691952139977	1
2	969	216.614717593091	0
2	978	217.597512675312	1
2	979	218.590236930876	0
2	1033	228.237372272372	1
2	1036	229.120119257597	0
2	1045	230.806731580368	1
2	1046	231.377611981937	0
2	1055	233.05891218197	1
2	1056	233.265267434297	0
2	1065	235.016807521527	1
2	1067	235.31071546128	2
2	1069	235.448463338383	3
2	1070	235.522136728512	2
2	1073	236.692760675633	1
2	1076	237.623523319559	0
2	1088	239.816796026078	1
2	1091	240.598276842245	0
2	1095	241.02783351621	1
2	1098	241.633398339384	0
2	1102	242.019012355371	1
2	1103	242.675157433514	0
2	1107	243.708950577649	1
2	1108	243.867428310819	0
2	1112	244.600654025143	1
2	1113	244.706642125499	0
2	1119	245.238516019715	1
2	1120	245.819594660074	0
2	1124	246.083328565136	1
2	1125	246.757467305705	0
2	1129	247.437139079293	1
2	1130	247.896222810864	0
2	1134	247.943102689491	1
2	1135	248.775162860982	0
2	1139	249.352146391257	1
2	1140	249.683616172008	0
2	1144	249.824055791872	1
2	1145	250.758111104879	0
2	1149	251.262470735086	1
2	1150	251.789293632887	0
2	1154	251.855116385757	1
2	1156	252.019800691752	2
2	1157	252.827404936727	1
2	1160	253.6738338551	0
2	1164	253.874580138854	1
2	1165	254.719120465729	0
2	1169	255.552350925532	1
2	1170	255.708626435089	0
2	1177	257.110299947453	1
2	1178	257.683668697763	0
2	1185	258.760292714493	1
2	1188	259.659664917595	0
2	1198	262.311232836942	1
2	1199	262.806463300201	0
2	1246	272.577145172187	1
2	1247	272.637503548104	0
2	1254	273.740935193013	1
2	1257	274.59678740897	0
2	1264	276.221602166307	1
2	1265	276.299491323389	0
2	1277	278.3402899402	1
2	1279	278.709825554687	2
2	1280	279.059208926603	1
2	1285	279.885227875735	0
2	1289	280.416668454307	1
2	1290	281.0657393401	0
2	1305	284.234386023173	1
2	1306	284.733470655604	0
2	1315	285.987266821493	1
2	1317	286.113907172435	2
2	1318	286.800845547112	1
2	1323	288.000035514122	0
2	1330	289.331814780663	1
2	1331	289.719978038686	0
2	1335	289.744454000569	1
2	1338	290.595636175851	0
2	1342	291.546908520886	1
2	1343	291.707525590527	0
2	1347	292.251513499147	1
2	1348	292.569941794965	0
2	1355	294.159839712512	1
2	1356	294.42756398851	0
2	1370	299.881209809103	1
2	1372	299.99663272676	2
2	1373	300.743023940708	1
2	1376	301.639037847027	0
2	1380	301.683204714219	1
2	1382	302.338479487349	2
2	1383	302.818991559159	1
2	1387	303.073056264232	2
2	1388	303.817250812773	1
2	1392	303.900005056275	2
2	1395	304.807639095255	1
2	1398	305.882186803848	0
2	1410	308.369388835427	1
2	1411	308.655282623108	0
2	1415	308.965327057768	1
2	1416	309.664364303063	0
2	1430	312.338360279513	1
2	1431	313.334248441268	0
2	1435	314.269375394751	1
2	1436	314.33755666427	0
2	1440	314.714041220958	1
2	1442	315.027984266469	2
2	1443	315.319025730245	1
2	1446	316.372769368716	0
2	1450	316.601837310669	1
2	1451	317.228501928315	0
2	1460	319.341085835751	1
2	1461	319.809042298446	0
2	1470	324.425516798862	1
2	1471	324.947330185882	0
2	1475	325.306626439152	1
2	1477	325.5974959529	2
2	1481	325.788181908443	3
2	1483	325.801982894096	4
2	1484	325.830650409515	3
2	1488	326.584461548704	4
2	1489	326.990624628699	3
2	1493	327.384659933492	4
2	1496	328.132347577921	3
2	1499	329.141698820534	2
2	1503	329.197487066889	3
2	1505	329.677524931087	4
2	1506	330.110792265291	3
2	1510	330.531222733349	4
2	1511	331.213197542465	3
2	1515	331.868917551305	4
2	1516	332.180700903403	3
2	1520	333.194522950422	4
2	1521	333.308672235458	3
2	1525	333.855273557407	4
2	1526	334.149075963366	3
2	1530	334.27551805932	4
2	1532	334.566586581732	5
2	1533	334.952393251489	4
2	1536	335.975349719933	3
2	1539	337.137655249721	2
2	1542	338.165274511668	1
2	1546	338.441385285256	2
2	1548	338.767883584113	3
2	1549	339.20227552738	2
2	1552	340.007632402069	1
2	1556	340.440965847984	2
2	1558	340.701331273921	3
2	1560	340.990395968153	4
2	1562	340.994978813677	5
2	1563	341.134721962473	4
2	1567	341.773105604096	5
2	1569	342.038197955537	6
2	1570	342.168586361798	5
2	1574	343.125674912699	6
2	1575	343.197435545287	5
2	1579	343.703119038588	6
2	1580	344.042535756919	5
2	1584	344.453092033462	6
2	1585	345.154203721713	5
2	1589	345.846767973939	6
2	1590	345.971962516214	5
2	1594	346.361425551649	6
2	1595	347.044294040016	5
2	1599	347.16409836277	6
2	1600	348.207941489591	5
2	1604	348.807147640311	6
2	1605	349.255380964576	5
2	1608	350.358405550866	4
2	1614	351.0419032245	5
2	1615	351.390598049125	4
2	1619	352.106752763922	5
2	1620	352.511009826714	4
2	1624	352.746342435792	5
2	1625	353.520142610667	4
2	1629	354.417534089771	5
2	1630	354.424495558457	4
2	1634	355.030168468575	5
2	1635	355.553667046891	4
2	1641	356.045170098586	5
2	1643	356.190635384859	6
2	1644	356.486927989141	5
2	1648	356.739749338444	6
2	1649	357.629256572404	5
2	1653	358.201758731907	6
2	1654	358.49181626301	5
2	1658	358.599976178441	6
2	1659	359.43293053407	5
2	1662	360.373957330098	4
2	1666	360.575350570332	5
2	1668	360.798445849103	6
2	1671	361.511510495858	5
2	1675	362.188156086949	6
2	1676	362.506079477275	5
2	1680	363.619504104427	6
2	1681	363.70514933301	5
2	1684	364.534344725701	4
2	1687	365.46362288298	3
2	1691	366.617225409446	4
2	1692	366.657345060836	3
2	1696	366.918790501091	4
2	1697	367.681283982116	3
2	1701	368.425427262082	4
2	1702	368.836359433568	3
2	1706	368.873240301789	4
2	1707	369.803681865352	3
2	1711	370.706521549444	4
2	1712	370.815061543341	3
2	1716	371.480629013811	4
2	1718	371.491268343019	5
2	1719	371.862500582746	4
2	1723	372.005648126463	5
2	1724	372.697276951576	4
2	1727	373.71283574404	3
2	1731	373.748625142003	4
2	1733	373.976230445088	5
2	1734	374.756264204176	4
2	1738	375.196488140728	5
2	1739	375.854681070259	4
2	1743	375.89352374255	5
2	1745	376.269893591134	6
2	1746	376.711545900831	5
2	1750	377.725061941509	6
2	1751	377.866552865056	5
2	1755	378.724148591822	6
2	1756	378.91083707094	5
2	1762	379.121984482391	6
2	1764	379.153193221665	7
2	1765	380.028822262509	6
2	1769	380.458473700878	7
2	1770	380.95613733569	6
2	1774	381.068878937674	7
2	1776	381.753034104291	8
2	1777	382.049222448113	7
2	1780	382.943667024484	6
2	1784	383.781385416558	7
2	1785	383.841604510432	6
2	1788	384.806853834091	5
2	1792	384.924464125146	6
2	1793	385.871400301082	5
2	1797	386.136468575323	6
2	1798	386.955226599814	5
2	1802	386.969057284218	6
2	1803	388.116331992408	5
2	1807	389.099159690487	6
2	1808	389.129081719571	5
2	1811	390.206179448513	4
2	1815	390.426826041338	5
2	1816	391.352448799105	4
2	1819	392.26261579545	3
2	1822	393.216847352327	2
2	1825	394.371967169752	1
2	1829	394.603680852528	2
2	1830	395.317012535052	1
2	1835	396.278135867061	0
2	1841	396.79543120252	1
2	1842	397.117670676036	0
2	1849	398.55806315092	1
2	1850	399.02789994899	0
2	1854	399.371321206521	1
2	1857	400.038286010565	0
2	1861	400.534887515716	1
2	1863	400.803188360027	2
2	1864	400.96252171194	1
2	1868	401.536637368182	2
2	1869	401.782276923506	1
2	1872	402.822240268177	0
2	1879	404.50543803004	1
2	1880	405.000096533465	0
2	1887	406.026651613412	1
2	1888	406.751412258035	0
2	1908	410.838386373312	1
2	1909	411.495185956841	0
2	1913	411.516032725376	1
2	1915	411.580915390921	2
2	1916	412.484090486092	1
2	1920	413.413372695774	2
2	1922	413.460847140979	3
2	1923	413.556270294839	2
2	1928	414.675726324522	1
2	1932	415.052868454565	2
2	1934	415.405793183807	3
2	1935	415.666354162076	2
2	1939	416.127006677263	3
2	1941	416.383475038502	4
2	1942	416.621458601595	3
2	1946	417.229369126174	4
2	1947	417.50250365298	3
2	1951	418.093931561901	4
2	1953	418.406875032271	5
2	1954	418.490922919025	4
2	1958	418.815617803463	5
2	1959	419.370938651	4
2	1962	420.309967559685	3
2	1966	420.541935242477	4
2	1968	420.561980622369	5
2	1969	421.244349859578	4
2	1973	422.033330336232	5
2	1974	422.407595901301	4
2	1978	422.75770823327	5
2	1979	423.605667259933	4
2	1983	423.900988331749	5
2	1984	424.589419466553	4
2	1987	425.538009410647	3
2	1991	425.965566067847	4
2	1992	426.379322170296	3
2	1995	427.343359843658	2
2	1999	427.447767001782	3
2	2001	428.052086445234	4
2	2002	428.439949720835	3
2	2006	428.894311895217	4
2	2007	429.610752393787	3
2	2011	429.661994204321	4
2	2013	430.144805772964	5
2	2014	430.727723960315	4
2	2018	431.143392442996	5
2	2019	431.820851810851	4
2	2022	432.760478379966	3
2	2025	433.632618259468	2
2	2029	433.803037950131	3
2	2031	434.325607038324	4
2	2032	434.568567033221	3
2	2036	434.745449948338	4
2	2037	435.485503145882	3
2	2041	435.590685700795	4
2	2043	435.746010157401	5
2	2044	436.429432434046	4
2	2050	436.593466599749	5
2	2052	437.043176186916	6
2	2053	437.54291886307	5
2	2056	438.668711296019	4
2	2059	439.719772540142	3
2	2062	440.787692677991	2
2	2066	441.307620255522	3
2	2068	441.314317566237	4
2	2069	441.945139058323	3
2	2073	442.168610543298	4
2	2075	442.336764789187	5
2	2076	442.88901592653	4
2	2080	443.422766808181	5
2	2082	443.509652821009	6
2	2083	444.025232292355	5
2	2087	444.027958705071	6
2	2088	445.138919398577	5
2	2091	445.979482276474	4
2	2095	446.272509726073	5
2	2096	446.927810563256	4
2	2100	447.422262234991	5
2	2102	447.460209367967	6
2	2103	448.014008007401	5
2	2106	449.143399068822	4
2	2109	450.03504648145	3
2	2112	450.906297043261	2
2	2116	451.277509923278	3
2	2117	451.941907574811	2
2	2120	452.798315150865	1
2	2124	453.270502632639	2
2	2125	453.96969537038	1
2	2129	454.658068288935	2
2	2130	455.066500024047	1
2	2133	455.984084279571	0
2	2137	456.055825643725	1
2	2138	457.001511420697	0
2	2142	457.701891489467	1
2	2144	457.755558571885	2
2	2145	458.02986304538	1
2	2149	458.033415031659	2
2	2151	458.688485974216	3
2	2152	459.003360670913	2
2	2155	459.941426792663	1
2	2159	460.014256148214	2
2	2161	460.43018111483	3
2	2162	461.020427234672	2
2	2166	461.254545066423	3
2	2167	462.198921151381	2
2	2170	463.310776855811	1
2	2174	463.657480145978	2
2	2176	463.924221652803	3
2	2177	464.263958069417	2
2	2180	465.395900092381	1
2	2184	465.640356969663	2
2	2186	465.89830552176	3
2	2187	466.211915190159	2
2	2190	467.313645217395	1
2	2194	468.008138431578	2
2	2195	468.436917474414	1
2	2199	468.835503204988	2
2	2200	469.374922438818	1
2	2204	469.406191068895	2
2	2206	469.857470373813	3
2	2207	470.444796082391	2
2	2210	471.311273825368	1
2	2214	471.792245440898	2
2	2215	472.208966974741	1
2	2221	472.267434492723	2
2	2222	473.190021191923	1
2	2225	474.179086172408	0
2	2234	475.716456450825	1
2	2235	476.403677562544	0
2	2239	476.546376332073	1
2	2240	477.587775544556	0
2	2269	485.340284185032	1
2	2270	485.411206151558	0
2	2308	491.378391350152	1
2	2311	492.296254077939	0
2	2315	492.371386606138	1
2	2316	493.305797719596	0
2	2325	494.906311549252	1
2	2326	495.190020535992	0
2	2350	499.963214889717	1
2	2351	500.63760548645	0
2	2357	500.788727421174	1
2	2358	501.478858075396	0
2	2367	503.549646269999	1
2	2368	503.772873132316	0
2	2375	504.861694639607	1
2	2377	505.485513564422	2
2	2378	505.700507886627	1
2	2381	506.532161799831	0
2	2398	510.289942448281	1
2	2400	510.359243957182	2
2	2401	510.666622193916	1
2	2407	511.20229024492	2
2	2410	511.481924089896	1
2	2414	512.034402532841	2
2	2415	512.569149234252	1
2	2419	512.936779293605	2
2	2420	513.442535485899	1
2	2425	514.466370449135	0
2	2429	514.527117154136	1
2	2431	514.661253248378	2
2	2432	515.512491408562	1
2	2436	516.254189370297	2
2	2437	516.647459901882	1
2	2441	516.766679778458	2
2	2443	517.2611045875	3
2	2444	517.778257937276	2
2	2448	517.891288594153	3
2	2449	518.599349237804	2
2	2453	518.740978465454	3
2	2454	519.653571234655	2
2	2458	519.947458356067	3
2	2459	520.477281301108	2
2	2463	521.258631697591	3
2	2464	521.377143391047	2
2	2467	522.526718414214	1
2	2471	523.378757332104	2
2	2472	523.452235127531	1
2	2476	523.909917189492	2
2	2477	524.5386072741	1
2	2480	525.392734608065	0
2	2484	525.669129337654	1
2	2486	526.40332750215	2
2	2487	526.512174815975	1
2	2491	527.462359526991	2
2	2492	527.517671749193	1
2	2496	528.00710059115	2
2	2498	528.375982830486	3
2	2499	528.581168553523	2
2	2502	529.491152194712	1
2	2506	530.022194350485	2
2	2507	530.495725079171	1
2	2510	531.49475240783	0
2	2535	536.320870362278	1
2	2536	536.951772821054	0
2	2540	537.14722677104	1
2	2547	537.880894416303	0
2	2553	538.132632991683	1
2	2555	538.143026356024	2
2	2556	538.724455381569	1
2	2559	539.589700134203	0
2	2563	539.695276018761	1
2	2565	539.72798483762	2
2	2567	539.823615932426	3
2	2568	540.627283681289	2
2	2572	540.902581486123	3
2	2573	541.631483541348	2
2	2579	542.031597283583	3
2	2580	542.614440307033	2
2	2584	542.621046771227	3
2	2585	543.765262904682	2
2	2588	544.56983116112	1
2	2592	544.63733423947	2
2	2593	545.560982565221	1
2	2597	545.565740365806	2
2	2598	546.701399141189	1
2	2601	547.569047890429	0
2	2605	548.231467235564	1
2	2606	548.622638796468	0
2	2613	549.685356991388	1
2	2614	550.503433435515	0
2	2626	552.75065033414	1
2	2629	553.716164950106	0
2	2636	554.780406193825	1
2	2637	555.893132741295	0
2	2643	556.766717830964	1
2	2644	556.998175545421	0
2	2651	558.07096641202	1
2	2652	559.211440800608	0
2	2661	560.806731126796	1
2	2662	561.31250007992	0
2	2674	563.729265201088	1
2	2675	564.12047857988	0
2	2817	594.572326718254	1
2	2820	594.939975680464	0
2	2829	596.930883962842	1
2	2830	596.966534307373	0
2	2842	599.305003438521	1
2	2843	599.80720899902	0
2	2850	600.839945402757	1
2	2855	601.946595391591	0
2	2866	603.083834162394	1
2	2868	603.753760859343	2
2	2869	603.894283977297	1
2	2872	604.78869213104	0
2	2876	605.11857892681	1
2	2878	605.174840598849	2
2	2879	605.748064733629	1
2	2883	605.993058182833	2
2	2888	606.806002901454	1
2	2891	607.785371803452	0
2	2895	607.941513273336	1
2	2897	608.154004114025	2
2	2898	608.596848396078	1
2	2901	609.755037402321	0
2	2905	610.464510521863	1
2	2907	610.661527082555	2
2	2908	610.922156422079	1
2	2912	611.576738698558	2
2	2914	611.626887458694	3
2	2915	612.006285272871	2
2	2918	612.857361129072	1
2	2922	613.082587476608	2
2	2923	613.69768051203	1
2	2927	613.774563350143	2
2	2928	614.576774303388	1
2	2931	615.542392040469	0
2	2935	615.624748537467	1
2	2937	616.170868475176	2
2	2938	616.683627779462	1
2	2942	616.760088980279	2
2	2943	617.794710982644	1
2	2947	618.293429206134	2
2	2948	618.656965585572	1
2	2952	618.742028199423	2
2	2953	619.593095345476	1
2	2957	619.93967939869	2
2	2958	620.414802393464	1
2	2962	620.670887996271	2
2	2964	620.72959777899	3
2	2965	621.387794268557	2
2	2969	621.515567929119	3
2	2970	622.460307943595	2
2	2974	622.721123526983	3
2	2975	623.543666094222	2
2	2978	624.362844251522	1
2	2982	624.473789480297	2
2	2984	624.782744601599	3
2	2985	625.292406755739	2
2	2991	626.041769522261	3
2	2992	626.42416604595	2
2	2996	626.459221404539	3
2	2998	626.589319471639	4
2	3000	626.955390636087	5
2	3001	627.227861762193	4
2	3004	628.346209464648	3
2	3008	629.254012271553	4
2	3009	629.462297967409	3
2	3013	629.527513740665	4
2	3014	630.280751188246	3
2	3018	630.633071015909	4
2	3019	631.096252296825	3
2	3022	631.903042447341	2
2	3026	632.326536279853	3
2	3027	632.790278419626	2
2	3031	633.381145839152	3
2	3032	633.744532182028	2
2	3036	634.37133995257	3
2	3037	634.724588111376	2
2	3040	635.604749285297	1
2	3044	635.646338601099	2
2	3045	636.792130358198	1
2	3049	637.341059822146	2
2	3050	637.794926923939	1
2	3054	637.836522244278	2
2	3055	638.855503964943	1
2	3059	639.386471872379	2
2	3060	639.905154301279	1
2	3063	640.779514216219	0
2	3067	641.193027031402	1
2	3068	641.950097188686	0
2	3078	644.292795251301	1
2	3079	644.746841806599	0
2	3096	648.732678791782	1
2	3097	648.958234975726	0
2	3131	655.182897300437	1
2	3132	655.881011168059	0
2	3144	658.008233974498	1
2	3146	658.130995469419	2
2	3147	658.562062578141	1
2	3150	659.370441312022	0
2	3156	660.017785014892	1
2	3159	660.427344598207	0
2	3166	661.998545894272	1
2	3167	662.523860788863	0
2	3173	662.813014487092	1
2	3176	663.502651469089	0
2	3180	664.108550333308	1
2	3181	664.692796479031	0
2	3185	665.133946283119	1
2	3186	665.873465423617	0
2	3190	666.479577912225	1
2	3191	666.801692022249	0
2	3198	668.137510219788	1
2	3199	668.779214159172	0
2	3205	669.018752002338	1
2	3208	669.651178269699	0
2	3212	670.35430174378	1
2	3213	670.709285645239	0
2	3217	671.343893717266	1
2	3218	671.741046793532	0
2	3222	671.920640739224	1
2	3223	672.752747154568	0
2	3230	674.810588454854	1
2	3231	674.8624023669	0
2	3235	675.296373309312	1
2	3236	675.975959148125	0
2	3240	676.166234883246	1
2	3242	676.630263581349	2
2	3243	677.102940918838	1
2	3246	678.162979247847	0
2	3255	679.351715047193	1
2	3257	679.640596313018	2
2	3258	680.198629307428	1
2	3262	680.438816464999	2
2	3264	680.719352248827	3
2	3267	681.035595729535	2
2	3271	682.030973588426	3
2	3272	682.143687353802	2
2	3276	682.213314590875	3
2	3277	683.09868748063	2
2	3281	683.779639081116	3
2	3282	684.122857859598	2
2	3286	684.501297230274	3
2	3287	685.011096500007	2
2	3290	685.98947004616	1
2	3294	686.382755564706	2
2	3296	686.614838273439	3
2	3297	686.792439644558	2
2	3301	687.202898207946	3
2	3304	687.775329946594	2
2	3308	688.092724788192	3
2	3310	688.718348517069	4
2	3311	688.932765291406	3
2	3315	689.543707047392	4
2	3317	689.896535088316	5
2	3318	689.925555611177	4
2	3321	690.901952579113	3
2	3325	691.342679475248	4
2	3328	691.709973927548	3
2	3331	692.561708830817	2
2	3335	692.605098991897	3
2	3336	693.400882698743	2
2	3340	694.357886057719	3
2	3341	694.386820841262	2
2	3344	695.559647002311	1
2	3347	696.624453768747	0
2	3351	696.76370403195	1
2	3353	696.965543231234	2
2	3354	697.53802756477	1
2	3357	698.673616247399	0
2	3361	699.155686999083	1
2	3363	699.161540447044	2
2	3365	699.389432916055	3
2	3368	699.628057480565	2
2	3371	700.80823286442	1
2	3375	701.608080539034	2
2	3376	701.824191151987	1
2	3380	702.150164543587	2
2	3381	702.882475179116	1
2	3385	702.909407267186	2
2	3386	703.794911772719	1
2	3389	704.936196722145	0
2	3393	705.624716196852	1
2	3395	705.977828710319	2
2	3397	706.040189433816	3
2	3398	706.119737194068	2
2	3404	706.345729640633	3
2	3405	707.243267511725	2
2	3409	707.486150837385	3
2	3410	708.194261664301	2
2	3414	708.707185738073	3
2	3415	709.392405724581	2
2	3418	710.571101814564	1
2	3421	711.615652045384	0
2	3428	712.476232111663	1
2	3430	712.937350711951	2
2	3431	713.40889912393	1
2	3435	713.515714542351	2
2	3436	714.576456573476	1
2	3440	715.033372700216	2
2	3441	715.502019964402	1
2	3445	715.570472711229	2
2	3446	716.471546681841	1
2	3450	717.032624677288	2
2	3451	717.537245205288	1
2	3456	718.487151022685	0
2	3460	719.321690508719	1
2	3461	719.487759881244	0
2	3465	720.088913052099	1
2	3467	720.260739183437	2
2	3468	720.356230690108	1
2	3472	721.055179648501	2
2	3473	721.399054072389	1
2	3477	721.710262294544	2
2	3479	721.737266419113	3
2	3480	722.400356880912	2
2	3483	723.587591617146	1
2	3487	724.459560859307	2
2	3488	724.575081129522	1
2	3491	725.732558944226	0
2	3500	726.964658753193	1
2	3502	727.218736573434	2
2	3504	727.417106979769	3
2	3506	727.475670552493	4
2	3508	727.535716291051	5
2	3509	727.768876349797	4
2	3512	728.791618100611	3
2	3515	729.727433703711	2
2	3520	730.615405805932	1
2	3523	731.493825682403	0
2	3533	734.309550079143	1
2	3535	734.507085323257	2
2	3536	734.517092258447	1
2	3542	734.949067679639	2
2	3545	735.478390383032	1
2	3548	736.601552453042	0
2	3552	736.679914427431	1
2	3554	736.746074825724	2
2	3556	737.02764439501	3
2	3559	737.641045169123	2
2	3562	738.729663527254	1
2	3566	739.132799811013	2
2	3567	739.814159952719	1
2	3571	740.075949773521	2
2	3573	740.368575289368	3
2	3574	740.957017290369	2
2	3577	742.131447699257	1
2	3580	743.046090772525	0
2	3584	743.660629046398	1
2	3585	743.957960045301	0
2	3592	745.293393744964	1
2	3593	745.662111412418	0
2	3670	764.012155567932	1
2	3671	764.629170077352	0
2	3695	769.656797636659	1
2	3696	769.92760749171	0
2	3714	773.469130579854	1
2	3715	773.684508325486	0
2	3722	775.067932391553	1
2	3723	775.826260332158	0
2	3737	777.885227378429	1
2	3738	778.762086854642	0
2	3757	782.523528832188	1
2	3761	783.077735854218	2
2	3762	783.219069775333	1
2	3765	784.106685687182	0
2	3769	784.740433288097	1
2	3772	785.303747694613	0
2	3776	785.997927515206	1
2	3777	786.130902564944	0
2	3781	786.503889539769	1
2	3786	787.151220245519	0
2	3796	789.049090082412	1
2	3798	789.323935194185	2
2	3799	789.724705045624	1
2	3802	790.911128264712	0
2	3806	791.080326716036	1
2	3808	791.589380796505	2
2	3811	791.920836218027	1
2	3816	792.971341631701	0
2	3820	793.199041782825	1
2	3822	793.199348279388	2
2	3825	794.059576006746	1
2	3829	794.062608634983	2
2	3830	794.998856635531	1
2	3834	795.898400191029	2
2	3835	796.14864970711	1
2	3838	796.981674756063	0
2	3848	799.224292742837	1
2	3850	799.461382316182	2
2	3853	800.227232537838	1
2	3857	800.350313970962	2
2	3860	801.319397280226	1
2	3863	802.245540737315	0
2	3870	803.528100753996	1
2	3871	804.346362783155	0
2	3880	805.986658299025	1
2	3881	806.442926487374	0
2	3890	808.300872957622	1
2	3892	808.345147724845	2
2	3893	808.600099452911	1
2	3896	809.434354124265	0
2	3900	810.52376225942	1
2	3901	810.528153809486	0
2	3905	810.758489139731	1
2	3907	810.836736408187	2
2	3910	811.655221672496	1
2	3914	811.799822790002	2
2	3917	812.745378527371	1
2	3921	812.951587776496	2
2	3922	813.692022298323	1
2	3926	813.957750832471	2
2	3927	814.876479643816	1
2	3931	815.844106847909	2
2	3932	815.964116239408	1
2	3936	816.621297003045	2
2	3937	816.776461626729	1
2	3940	817.841466961941	0
2	3944	818.541193482092	1
2	3946	818.848856120149	2
2	3947	818.929371333169	1
2	3951	819.539516570752	2
2	3952	819.909460001672	1
2	3955	821.023034928972	0
2	3964	821.991669388556	1
2	3966	822.029423036403	2
2	3968	822.127457979392	3
2	3969	822.91351132053	2
2	3974	823.96699615731	1
2	3977	824.949445276382	0
2	3981	825.223529030439	1
2	3982	825.985990826088	0
2	3986	826.621934241751	1
2	3987	827.015374313715	0
2	3994	828.196324910508	1
2	3995	829.016988677858	0
2	4003	829.636390252906	1
2	4004	829.858893681085	0
2	4017	832.696958901578	1
2	4019	832.808289768747	2
2	4024	833.631512685445	1
2	4029	834.603302915347	0
2	4033	834.831514930374	1
2	4034	835.713533783657	0
2	4038	836.21531454675	1
2	4039	836.551083422871	0
2	4043	836.757016542804	1
2	4045	836.9539106818	2
2	4046	837.489688095031	1
2	4049	838.343752679089	0
2	4055	839.101730918337	1
2	4057	839.257796632347	2
2	4058	839.402165187569	1
2	4062	839.854908474463	2
2	4063	840.390449697198	1
2	4067	841.488088945503	2
2	4068	841.588151372457	1
2	4071	842.683830550173	0
2	4078	843.773615561235	1
2	4080	844.791629118475	2
2	4081	844.816015702905	1
2	4084	845.799478728929	0
2	4096	848.017271443826	1
2	4100	848.208061082065	2
2	4101	848.477767777582	1
2	4104	849.587104401411	0
2	4110	850.07932926758	1
2	4114	850.347878045526	2
2	4116	850.614807135243	3
2	4117	850.699390022875	2
2	4120	851.79626492788	1
2	4123	852.776522710499	0
2	4127	853.232052700808	1
2	4129	853.770449097009	2
2	4130	853.801645285775	1
2	4133	854.628784306207	0
2	4140	856.096422012165	1
2	4141	856.589082370093	0
2	4150	858.011722180127	1
2	4151	858.351110787084	0
2	4155	858.500185114668	1
2	4157	858.626516422233	2
2	4158	859.18363547367	1
2	4165	860.121625246992	0
2	4172	861.552876480673	1
2	4174	861.648108870408	2
2	4176	862.293269144824	3
2	4177	862.297119834879	2
2	4182	863.485986718675	1
2	4185	864.524920879351	0
2	4189	865.026861911122	1
2	4190	865.524096883694	0
2	4194	866.002586516562	1
2	4195	866.593424224062	0
2	4199	867.004570021724	1
2	4200	867.419101470383	0
2	4207	868.697895896294	1
2	4208	869.418766372697	0
2	4214	869.515464322043	1
2	4215	870.448425259301	0
2	4222	871.458328706989	1
2	4224	871.806534259133	2
2	4225	872.33868025192	1
2	4228	873.273568677855	0
2	4237	875.088380148621	1
2	4238	875.180312785179	0
2	4245	876.512297229145	1
2	4246	877.398889590287	0
2	4260	879.886058121521	1
2	4263	880.576387848752	0
2	4267	881.54375296737	1
2	4268	881.645753586805	0
2	4274	881.892849791379	1
2	4275	882.590001269477	0
2	4282	883.538807638122	1
2	4284	884.067433475434	2
2	4285	884.481538688159	1
2	4288	885.519703108771	0
2	4292	886.309809158437	1
2	4295	886.49984389334	0
2	4302	887.684671955356	1
2	4303	888.42353639151	0
2	4309	889.034914553906	1
2	4310	889.275197200524	0
2	4314	890.060381766655	1
2	4315	890.328524505114	0
2	4319	890.403959711408	1
2	4320	891.389501608582	0
2	4330	894.122548621633	1
2	4331	894.582204385427	0
2	4340	896.643584194032	1
2	4341	896.704529941687	0
2	4350	898.33581591145	1
2	4351	898.794926889567	0
2	4363	901.071936238216	1
2	4364	901.789549705527	0
2	4376	903.988207044456	1
2	4379	904.791783027212	0
2	4393	906.751311939505	1
2	4396	907.514065906825	0
2	4408	910.189088784142	1
2	4411	910.575458219042	0
2	4420	911.866947645692	1
2	4421	912.598344400199	0
2	4430	913.618487572431	1
2	4431	914.44618774536	0
2	4442	915.257178976841	1
2	4443	916.269466940267	0
2	4452	917.272439768904	1
2	4454	917.879575073471	2
2	4456	918.088843572435	3
2	4457	918.417846429861	2
2	4460	919.37416928676	1
2	4464	919.669817711547	2
2	4467	920.434383455338	1
2	4470	921.495671909442	0
2	4474	921.620305794259	1
2	4475	922.424207657529	0
2	4482	924.040527967751	1
2	4483	924.393220645143	0
2	4497	926.649339596976	1
2	4498	927.274410162912	0
2	4502	928.058756692651	1
2	4504	928.151373597224	2
2	4505	928.42628555647	1
2	4511	928.552152733076	2
2	4512	929.529135973611	1
2	4515	930.502120850747	0
2	4519	930.550488585938	1
2	4521	930.867297052481	2
2	4523	930.93949733738	3
2	4524	931.62203256567	2
2	4528	931.966608536116	3
2	4529	932.701656824304	2
2	4532	933.740471412102	1
2	4535	934.742800773727	0
2	4539	935.209711959235	1
2	4540	935.6531780208	0
2	4547	936.906260897858	1
2	4549	937.665628716983	2
2	4550	937.71863114941	1
2	4555	938.837158155954	0
2	4559	939.194596650486	1
2	4560	939.642564630555	0
2	4564	939.850017231304	1
2	4565	940.506436420651	0
2	4569	941.050070984164	1
2	4570	941.486233393987	0
2	4574	942.069436584189	1
2	4575	942.632602286198	0
2	4579	942.969757254622	1
2	4580	943.475815218081	0
2	4595	947.016531773931	1
2	4596	947.214397951448	0
2	4600	947.75052336463	1
2	4602	948.057065747102	2
2	4603	948.068972801836	1
2	4608	948.927451766887	0
2	4615	950.731827306727	1
2	4617	950.836233260229	2
2	4619	951.095047710435	3
2	4620	951.118179227737	2
2	4626	951.475181032197	3
2	4628	951.56643280452	4
2	4629	951.987487876461	3
2	4633	952.724502832792	4
2	4634	952.901325984159	3
2	4637	953.853894841251	2
2	4641	954.441321207148	3
2	4643	954.507902715295	4
2	4644	954.941317099378	3
2	4648	955.719825261083	4
2	4649	956.102472545159	3
2	4652	957.108535523944	2
2	4655	958.107313857086	1
2	4659	958.511183503897	2
2	4660	959.11062321062	1
2	4664	959.133687924152	2
2	4666	959.408819398105	3
2	4667	960.180598946147	2
2	4671	960.836404662722	3
2	4672	961.091815683384	2
2	4675	961.927105545018	1
2	4678	962.976684809242	0
2	4682	963.193587768782	1
2	4683	963.877141429063	0
2	4690	965.626604028688	1
2	4691	965.876890741985	0
2	4695	965.974944046175	1
2	4697	966.728015478492	2
2	4698	966.729329077944	1
2	4703	967.81901309476	0
2	4707	968.763597046708	1
2	4708	968.86625011726	0
2	4712	969.042482222555	1
2	4714	969.498336224297	2
2	4715	970.041626352488	1
2	4718	970.852903081614	0
2	4733	973.711911110738	1
2	4734	974.674422682865	0
2	4746	976.660059806663	1
2	4750	977.305905892561	2
2	4751	977.463524477134	1
2	4755	977.60606012491	2
2	4759	978.038358697347	3
2	4762	978.640482809159	2
2	4768	978.884833680549	3
2	4769	979.670884604237	2
2	4773	979.902810085602	3
2	4774	980.553819731667	2
2	4778	981.081261111838	3
2	4779	981.55116223241	2
2	4783	981.897330117768	3
2	4785	982.245196571762	4
2	4786	982.731318876564	3
2	4790	983.153414561533	4
2	4791	983.691185066334	3
2	4795	984.061193075757	4
2	4796	984.732013306438	3
2	4800	984.743872559897	4
2	4801	985.736764091204	3
2	4805	986.229359988764	4
2	4806	986.566061949681	3
2	4809	987.498522200573	2
2	4812	988.497696455892	1
2	4817	989.624472737543	0
2	4823	989.890998760477	1
2	4824	990.439016356829	0
2	4831	991.529028091159	1
2	4832	992.342800805669	0
2	4836	992.511146460203	1
2	4837	993.430954827599	0
2	4844	994.915704992063	1
2	4846	995.088582136129	2
2	4848	995.097094721287	3
2	4850	995.409344864165	4
2	4852	995.464143496085	5
2	4853	995.607925192963	4
2	4858	996.621151342753	3
2	4862	997.139049266354	4
2	4863	997.523090708021	3
2	4869	997.904365188252	4
2	4870	998.552177850574	3
2	4874	998.754439589187	4
2	4875	999.566097237773	3
2	4878	1000.595014733679	2
2	4882	1001.132298393947	3
2	4883	1001.637818667523	2
2	4886	1002.554011887822	1
2	4890	1002.985757401947	2
2	4892	1003.007885893969	3
2	4894	1003.242833157633	4
2	4895	1003.652614033267	3
2	4899	1003.831301881857	4
2	4903	1004.485236696032	5
2	4904	1004.490206608594	4
2	4908	1005.006172079696	5
2	4909	1005.650156633135	4
2	4912	1006.577033540092	3
2	4915	1007.6253389467	2
2	4918	1008.731980475176	1
2	4922	1008.925012264152	2
2	4924	1009.079723515077	3
2	4925	1009.809763240114	2
2	4929	1010.729712156254	3
2	4930	1010.83769126511	2
2	4934	1012.005227449553	3
2	4935	1012.036586896095	2
2	4939	1012.398280194338	3
2	4940	1012.957698779877	2
2	4943	1013.954934058755	1
2	4947	1013.989221734344	2
2	4948	1014.890632367923	1
2	4952	1015.567495352485	2
2	4953	1015.817406228787	1
2	4956	1016.718738016809	0
2	4963	1018.329345278374	1
2	4964	1018.712634092519	0
2	4970	1019.125748565759	1
2	4971	1019.57605856978	0
2	4978	1021.25242085459	1
2	4980	1021.476972187576	2
2	4981	1021.558529197375	1
2	4986	1022.571784065335	0
2	4993	1024.150804125995	1
2	4994	1024.598481346245	0
2	4998	1024.827333434772	1
2	4999	1025.592607796329	0
2	5003	1025.609663760206	1
2	5004	1026.497662229321	0
2	5010	1027.33836670874	1
2	5011	1027.389946698721	0
2	5015	1027.648859601331	1
2	5017	1027.753317977555	2
2	5019	1027.770869601833	3
2	5021	1028.106884825216	4
2	5022	1028.35928797242	3
2	5027	1029.232087175592	2
2	5030	1030.268419314592	1
2	5034	1030.329691560901	2
2	5035	1031.214541466205	1
2	5039	1032.036782372587	2
2	5041	1032.215191994667	3
2	5042	1032.360890254422	2
2	5045	1033.322305082294	1
2	5049	1033.915606631648	2
2	5050	1034.406238458908	1
2	5053	1035.227051520019	0
2	5060	1036.651089961711	1
2	5061	1037.252142178776	0
2	5067	1038.256489309911	1
2	5068	1038.268506752463	0
2	5072	1038.85877568878	1
2	5073	1039.096438870342	0
2	5080	1040.403323969277	1
2	5081	1040.830524337893	0
2	5088	1041.920281641065	1
2	5089	1042.889547536658	0
2	5101	1044.905816251934	1
2	5102	1045.65166810392	0
2	5111	1046.864366399181	1
2	5112	1047.706677743649	0
2	5124	1049.520806531209	1
2	5125	1050.444950405644	0
2	5134	1052.53334124879	1
2	5135	1052.539042395023	0
2	5139	1053.101490655301	1
2	5141	1053.331598923433	2
2	5142	1053.408255500202	1
2	5146	1053.883679696703	2
2	5148	1054.057484707505	3
2	5149	1054.578173050885	2
2	5152	1055.558792760079	1
2	5158	1056.637529180844	2
2	5159	1056.719909360302	1
2	5162	1057.591547329487	0
2	5166	1058.540185050918	1
2	5167	1058.65055600558	0
2	5171	1059.02138125607	1
2	5172	1059.76705153924	0
2	5179	1061.008865239259	1
2	5180	1061.547458995269	0
2	5189	1063.066462634622	1
2	5190	1063.249051234541	0
2	5206	1065.870596724029	1
2	5208	1066.021797624717	2
2	5209	1066.568387830393	1
2	5214	1067.673391228491	0
2	5221	1069.071208306419	1
2	5223	1069.619342050458	2
2	5224	1069.807733977256	1
2	5231	1070.62385295671	0
2	5246	1073.430538482388	1
2	5248	1073.96910028967	2
2	5253	1074.568255742868	1
2	5258	1075.469868036681	0
2	5272	1077.925514866501	1
2	5273	1078.312019890403	0
2	5290	1081.412103169224	1
2	5291	1082.184052185104	0
2	5298	1083.059282982317	1
2	5301	1084.129158756086	0
2	5312	1085.802477335044	1
2	5313	1085.866981928186	0
2	5317	1086.926488724341	1
2	5318	1087.001600818378	0
2	5330	1089.004813461108	1
2	5331	1089.899432986458	0
2	5338	1091.046220739757	1
2	5344	1091.558604620546	2
2	5345	1092.117195340009	1
2	5350	1093.015206193128	0
2	5354	1093.352869060904	1
2	5355	1093.895256730398	0
2	5364	1095.254057003815	1
2	5366	1095.802881677898	2
2	5367	1095.866503811764	1
2	5370	1096.667882932207	0
2	5374	1096.790283855221	1
2	5376	1097.009161618027	2
2	5377	1097.771121676868	1
2	5381	1098.227753847609	2
2	5382	1098.598709685678	1
2	5386	1099.680138536123	2
2	5387	1099.79700223752	1
2	5391	1100.036721846134	2
2	5392	1100.988935576702	1
2	5396	1101.57145260458	2
2	5397	1101.84056839286	1
2	5400	1102.661057230594	0
2	5412	1104.7953183966	1
2	5413	1105.574553312684	0
2	5417	1106.090746170238	1
2	5418	1106.513933190002	0
2	5422	1106.539767585248	1
2	5425	1107.409542247231	0
2	5429	1107.582175149611	1
2	5430	1108.306345042071	0
2	5434	1109.227717037804	1
2	5435	1109.278229910551	0
2	5439	1109.58826804504	1
2	5440	1110.423894333324	0
2	5444	1110.811833149586	1
2	5445	1111.426957816581	0
2	5449	1112.242353019839	1
2	5450	1112.517682076662	0
2	5454	1112.678739660954	1
2	5455	1113.347867803971	0
2	5459	1113.942522138712	1
2	5460	1114.401901613592	0
2	5472	1116.933710218414	1
2	5473	1117.469976869735	0
2	5479	1118.129014093126	1
2	5480	1118.495484608735	0
2	5487	1119.851096046573	1
2	5489	1120.10789156576	2
2	5490	1120.307243842582	1
2	5493	1121.184260921038	0
2	5505	1124.361035368622	1
2	5506	1124.375020134959	0
2	5513	1125.803981070169	1
2	5514	1126.383115679256	0
2	5527	1127.650491679734	1
2	5530	1128.52772423946	0
2	5539	1129.945422172669	1
2	5541	1130.263218767924	2
2	5542	1130.474276199422	1
2	5545	1131.427854518916	0
2	5549	1131.981880257866	1
2	5550	1132.261626140445	0
2	5554	1132.376854044764	1
2	5556	1132.440018001582	2
2	5559	1133.385305407688	1
2	5563	1133.676568607486	2
2	5564	1134.447651275013	1
2	5567	1135.468648898926	0
2	5571	1135.676841028019	1
2	5573	1136.356637745175	2
2	5574	1136.467557130427	1
2	5578	1136.683683576913	2
2	5580	1137.372592672691	3
2	5581	1137.386357719217	2
2	5584	1138.537313770548	1
2	5588	1139.101943467695	2
2	5589	1139.606928554688	1
2	5593	1139.853231424557	2
2	5594	1140.802136971195	1
2	5597	1141.979039724682	0
2	5601	1142.076228002553	1
2	5604	1142.964076371257	0
2	5608	1143.234503798701	1
2	5611	1143.920275168632	0
2	5615	1144.555321886207	1
2	5616	1144.774819652316	0
2	5626	1147.570933825984	1
2	5627	1147.849143316921	0
2	5636	1149.700886187523	1
2	5637	1149.822713372809	0
2	5651	1152.040361417078	1
2	5652	1152.877180093387	0
2	5684	1161.20442018947	1
2	5687	1161.762236974807	0
2	5795	1182.483776916766	1
2	5796	1183.255363937326	0
2	5816	1185.824721624151	1
2	5819	1186.228127528586	0
2	5828	1188.100043761575	1
2	5829	1188.545376033195	0
2	5869	1196.277756686203	1
2	5870	1196.945165266331	0
2	5880	1198.968633928106	1
2	5881	1199.814374719794	0
2	5896	1201.536659444224	1
2	5897	1201.834153923626	0
2	5914	1205.373779097771	1
2	5915	1206.180189893628	0
2	5922	1207.399920927885	1
2	5925	1208.174276854797	0
2	5934	1209.618742725438	1
2	5935	1210.045702680062	0
2	5939	1210.30799728169	1
2	5942	1210.853814301408	0
2	5948	1211.645063085484	1
2	5949	1211.868073670427	0
2	5953	1212.024153233418	1
2	5954	1212.797356776847	0
2	5977	1217.569532945398	1
2	5981	1217.846817343566	2
2	5982	1218.415573933767	1
2	5990	1218.803460212109	2
2	5991	1219.496218005242	1
2	5994	1220.687456862489	0
2	5998	1220.711674470208	1
2	5999	1221.529296313273	0
2	6003	1221.83649194391	1
2	6004	1222.687531204382	0
2	6008	1222.711294453072	1
2	6009	1223.525706247939	0
2	6013	1223.981245637542	1
2	6014	1224.664456533222	0
2	6018	1224.705461661485	1
2	6019	1225.529208544037	0
2	6023	1226.391665866536	1
2	6024	1226.464421429625	0
2	6031	1227.844357243954	1
2	6032	1228.516545309173	0
2	6039	1230.172749926469	1
2	6041	1230.336714426701	2
2	6042	1230.568808143539	1
2	6045	1231.400742966914	0
2	6056	1232.934729859274	1
2	6057	1233.065124259004	0
2	6061	1234.001105973394	1
2	6062	1234.226032945094	0
2	6066	1234.370907391648	1
2	6067	1235.369902769056	0
2	6071	1235.502672353062	1
2	6072	1236.56928700446	0
2	6079	1237.989243784011	1
2	6081	1238.086836804565	2
2	6082	1238.473931037773	1
2	6085	1239.600465123773	0
2	6091	1240.198719891404	1
2	6092	1240.559341187541	0
2	6096	1241.15773184907	1
2	6098	1241.383461400706	2
2	6099	1241.712312684067	1
2	6102	1242.755703665268	0
2	6106	1243.197792933574	1
2	6108	1243.346030321307	2
2	6110	1243.506149337259	3
2	6111	1243.851322655239	2
2	6115	1244.07212005096	3
2	6116	1244.750064532504	2
2	6121	1245.739236589473	1
2	6125	1245.896420753291	2
2	6127	1246.474089468572	3
2	6128	1246.810442851343	2
2	6132	1247.033410829074	3
2	6133	1247.98524571671	2
2	6137	1247.991215483518	3
2	6139	1248.943869347888	4
2	6140	1249.148977353096	3
2	6143	1250.072124549232	2
2	6147	1250.312967070827	3
2	6149	1250.709103082623	4
2	6150	1250.985343416918	3
2	6154	1251.277109687038	4
2	6156	1252.098543785226	5
2	6157	1252.132937767215	4
2	6160	1253.094224625591	3
2	6164	1253.316104687056	4
2	6166	1253.408614561829	5
2	6167	1254.118012977063	4
2	6170	1255.084359546143	3
2	6174	1255.308250134895	4
2	6176	1255.674568234563	5
2	6177	1256.147924257859	4
2	6180	1257.282997114721	3
2	6184	1257.375459912156	4
2	6185	1258.378916414778	3
2	6189	1258.393208031421	4
2	6190	1259.215527370896	3
2	6194	1259.66534075782	4
2	6195	1260.285965679072	3
2	6198	1261.16784633831	2
2	6202	1261.282854904007	3
2	6203	1262.04401832125	2
2	6207	1262.236332657043	3
2	6208	1263.179031951771	2
2	6212	1263.402521964395	3
2	6213	1264.374960413434	2
2	6216	1265.350778988701	1
2	6219	1266.454098649089	0
2	6223	1266.49011329327	1
2	6224	1267.639659212109	0
2	6231	1269.345104856642	1
2	6232	1269.564401633803	0
2	6236	1270.365996543012	1
2	6238	1270.472886521683	2
2	6239	1270.527659841206	1
2	6242	1271.371123856165	0
2	6249	1273.114487728003	1
2	6250	1273.308208267063	0
2	6254	1274.344420863214	1
2	6255	1274.396283656217	0
2	6261	1274.706179070671	1
2	6264	1275.328645047311	0
2	6268	1275.574097165263	1
2	6270	1275.610666372091	2
2	6272	1276.189690309981	3
2	6273	1276.443108433437	2
2	6277	1276.499270248455	3
2	6278	1277.542151894	2
2	6284	1278.046426562825	3
2	6286	1278.366995827369	4
2	6288	1278.473964711558	5
2	6289	1278.52680057003	4
2	6292	1279.676439716898	3
2	6296	1280.337203725393	4
2	6297	1280.616235346485	3
2	6300	1281.532432668701	2
2	6304	1281.746669989317	3
2	6305	1282.582635478627	2
2	6308	1283.511105487634	1
2	6312	1284.269853838897	2
2	6313	1284.319689575162	1
2	6316	1285.178775617339	0
2	6320	1285.969526541959	1
2	6321	1286.001548561033	0
2	6330	1287.846952152312	1
2	6331	1288.000658070527	0
2	6340	1289.675964487528	1
2	6341	1289.784950491086	0
2	6345	1290.031521333202	1
2	6349	1290.682228827529	2
2	6350	1290.951612671696	1
2	6354	1291.775757131294	2
2	6355	1291.913334487703	1
2	6359	1292.025257411336	2
2	6361	1292.245409713143	3
2	6363	1292.516283577751	4
2	6364	1292.818866234038	3
2	6367	1293.685536694013	2
2	6371	1294.470570337488	3
2	6372	1294.61141294171	2
2	6376	1295.017867341905	3
2	6377	1295.720967357092	2
2	6380	1296.569698013317	1
2	6384	1297.50631950926	2
2	6385	1297.749231023852	1
2	6388	1298.763808470637	0
2	6392	1298.880543650863	1
2	6394	1299.040381559821	2
2	6395	1299.65477232863	1
2	6399	1300.035408703915	2
2	6400	1300.654198997326	1
2	6404	1301.49112314733	2
2	6405	1301.627467434246	1
2	6408	1302.515792733196	0
2	6415	1303.760235836916	1
2	6416	1304.494487654649	0
2	6420	1304.804416031034	1
2	6424	1305.14248267712	2
2	6425	1305.36160636437	1
2	6429	1305.425201393335	2
2	6431	1305.511931848791	3
2	6432	1306.345886068185	2
2	6437	1307.15691546048	1
2	6441	1307.173319061232	2
2	6443	1307.514931010219	3
2	6444	1308.336663422687	2
2	6447	1309.271783425985	1
2	6451	1309.936080196419	2
2	6453	1310.107410944329	3
2	6454	1310.35099748238	2
2	6458	1310.451375255046	3
2	6459	1311.458507491415	2
2	6463	1311.575509333375	3
2	6464	1312.411055072629	2
2	6468	1313.173852766702	3
2	6469	1313.514813998946	2
2	6473	1313.654858938521	3
2	6475	1313.810855311753	4
2	6476	1314.59133901908	3
2	6479	1315.408456469932	2
2	6483	1316.251829875824	3
2	6484	1316.350160819524	2
2	6488	1317.21720664929	3
2	6489	1317.363729237438	2
2	6493	1317.697516354551	3
2	6495	1317.763101476753	4
2	6496	1318.425078643252	3
2	6499	1319.504035251074	2
2	6503	1319.533614005969	3
2	6504	1320.398704301984	2
2	6508	1321.270824179993	3
2	6509	1321.572096596238	2
2	6513	1321.848174293776	3
2	6516	1322.603820019447	2
2	6519	1323.554077977639	1
2	6522	1324.635695703093	0
2	6526	1324.912695552387	1
2	6528	1325.366801521205	2
2	6529	1325.501520916212	1
2	6533	1325.945176589332	2
2	6534	1326.575216559738	1
2	6538	1326.956780799462	2
2	6539	1327.516434319176	1
2	6543	1327.612163478032	2
2	6544	1328.520181288429	1
2	6548	1328.883843614338	2
2	6549	1329.59184942725	1
2	6553	1329.711337539522	2
2	6556	1330.580919620068	1
2	6560	1331.220415994344	2
2	6561	1331.478796225832	1
2	6564	1332.490071593457	0
2	6568	1332.700701260304	1
2	6569	1333.482587969535	0
2	6573	1334.59278961104	1
2	6574	1334.604548529488	0
2	6581	1336.213498234585	1
2	6583	1336.358603678114	2
2	6584	1336.626830316474	1
2	6588	1337.562218696464	2
2	6590	1337.63982496796	3
2	6591	1337.70250622346	2
2	6594	1338.753465095022	1
2	6598	1339.082645983293	2
2	6599	1339.778422532928	1
2	6602	1340.869911787239	0
2	6606	1341.095979451521	1
2	6608	1341.67108570093	2
2	6611	1341.950848768883	1
2	6615	1342.150593788559	2
2	6618	1343.101231448025	1
2	6622	1343.82458200931	2
2	6623	1344.106090987705	1
2	6627	1344.172976151368	2
2	6630	1345.084302069664	1
2	6633	1346.208895922404	0
2	6640	1347.379456182484	1
2	6642	1347.438974618356	2
2	6644	1347.572183294328	3
2	6646	1347.906027484625	4
2	6647	1348.066123161789	3
2	6651	1348.267220880652	4
2	6652	1348.911694175888	3
2	6657	1349.954576160431	2
2	6661	1350.34513303743	3
2	6662	1351.099124875151	2
2	6666	1351.09917416059	3
2	6668	1351.879132999533	4
2	6669	1351.990743593544	3
2	6673	1352.106635897849	4
2	6674	1352.922387296472	3
2	6677	1353.880561546095	2
2	6681	1353.946274554402	3
2	6683	1353.985179941705	4
2	6684	1354.99074907028	3
2	6688	1354.996192714577	4
2	6689	1356.16382416454	3
2	6692	1357.260536653966	2
2	6695	1358.417603874903	1
2	6699	1358.955769435633	2
2	6701	1359.063439612575	3
2	6702	1359.233133584864	2
2	6705	1360.035703854028	1
2	6710	1361.179261974383	0
2	6714	1361.918618008521	1
2	6715	1362.020432197999	0
2	6719	1362.472078468896	1
2	6721	1362.62037556649	2
2	6722	1363.129819564473	1
2	6725	1364.05940396576	0
2	6757	1370.326630464355	1
2	6758	1371.118776942089	0
2	6762	1371.616302676616	1
2	6763	1372.171061550498	0
2	6767	1372.895373492267	1
2	6770	1373.1978266614	0
2	6774	1373.331067829464	1
2	6777	1374.190784439023	0
2	6781	1374.577963874787	1
2	6783	1374.584944744752	2
2	6785	1374.643025630104	3
2	6786	1375.147402636937	2
2	6791	1376.227223328638	1
2	6795	1376.607704702307	2
2	6796	1377.169110951803	1
2	6799	1378.36162832123	0
2	6803	1378.501460770729	1
2	6804	1379.29500046172	0
2	6814	1382.301475336648	1
2	6817	1382.655644434829	0
2	6821	1383.156523195189	1
2	6823	1383.310197097208	2
2	6825	1383.346195070204	3
2	6826	1383.75749348807	2
2	6831	1384.740955156412	1
2	6834	1385.864388891634	0
2	6838	1386.13625129936	1
2	6840	1386.672036726911	2
2	6841	1386.939053356227	1
2	6845	1387.899789585417	2
2	6846	1388.091452198055	1
2	6849	1388.895755858112	0
2	6853	1389.101538495989	1
2	6854	1389.790583611231	0
2	6858	1390.150193470994	1
2	6860	1390.391468838384	2
2	6861	1390.920302837666	1
2	6865	1391.12521965538	2
2	6866	1391.918199454665	1
2	6869	1392.89994361256	0
2	6873	1393.508836342683	1
2	6875	1393.666701536358	2
2	6876	1393.703320623792	1
2	6880	1393.805959753863	2
2	6881	1394.865921223673	1
2	6884	1395.841044285099	0
2	6888	1396.078740893416	1
2	6889	1397.014859518453	0
2	6904	1400.1613676929	1
2	6905	1400.454034972234	0
2	6914	1401.630159416795	1
2	6917	1402.538104392259	0
2	6947	1409.478436067497	1
2	6948	1409.565538913986	0
2	6957	1410.55013788499	1
2	6958	1411.569523448168	0
2	6962	1412.462672649757	1
2	6965	1412.701452487285	0
2	6969	1412.707088509783	1
2	6971	1413.314284566715	2
2	6972	1413.579718870434	1
2	6975	1414.687306170582	0
2	6979	1414.985521473104	1
2	6980	1415.772719283353	0
2	6987	1416.696910677388	1
2	6989	1417.169562825939	2
2	6990	1417.695360179849	1
2	6993	1418.841893441275	0
2	6997	1419.493434949958	1
2	6998	1419.981301818926	0
2	7002	1419.99288597701	1
2	7003	1420.812595147871	0
2	7010	1422.069216229597	1
2	7012	1422.225641253513	2
2	7013	1422.70298322779	1
2	7017	1422.778114100149	2
2	7020	1423.674240961716	1
2	7023	1424.50777131752	0
2	7027	1425.168263226828	1
2	7028	1425.634920484711	0
2	7032	1425.915483915286	1
2	7033	1426.607016044342	0
2	7037	1426.99978173068	1
2	7038	1427.637776898452	0
2	7042	1427.951189410596	1
2	7044	1428.334653365155	2
2	7045	1428.522159281791	1
2	7049	1428.58335809213	2
2	7051	1428.606165155373	3
2	7052	1429.640415073232	2
2	7056	1430.415396089247	3
2	7057	1430.579161923983	2
2	7061	1431.466877579575	3
2	7062	1431.631754447286	2
2	7066	1432.052286504171	3
2	7067	1432.818693416611	2
2	7071	1433.505415590531	3
2	7073	1433.603819174149	4
2	7074	1433.695102819566	3
2	7077	1434.588492708512	2
2	7081	1434.962342960841	3
2	7082	1435.698630605404	2
2	7086	1435.765587116967	3
2	7088	1436.538440412092	4
2	7089	1436.887074426048	3
2	7092	1437.79627795373	2
2	7098	1438.729423155753	3
2	7099	1438.844608573941	2
2	7103	1439.419398600794	3
2	7104	1439.789462489029	2
2	7108	1440.345400660224	3
2	7109	1440.761991190398	2
2	7113	1441.343208915978	3
2	7114	1441.803175452398	2
2	7117	1442.658920880826	1
2	7120	1443.797141771437	0
2	7124	1443.802598894896	1
2	7125	1444.722405725112	0
2	7129	1445.209363669276	1
2	7130	1445.826158880209	0
2	7134	1446.626864692242	1
2	7135	1446.905478570656	0
2	7139	1447.10999694321	1
2	7140	1447.749868602165	0
2	7144	1448.03336785459	1
2	7145	1448.635728182782	0
2	7149	1449.469449960364	1
2	7150	1449.563488566828	0
2	7154	1449.724559339444	1
2	7155	1450.398251745709	0
2	7162	1451.614903329409	1
2	7164	1451.734222373155	2
2	7165	1452.122239789505	1
2	7171	1452.261909944721	2
2	7172	1452.926045696483	1
2	7176	1453.255856283956	2
2	7177	1453.967514938162	1
2	7180	1454.806668117316	0
2	7184	1455.259466892882	1
2	7185	1455.925262165768	0
2	7189	1456.000364903725	1
2	7192	1457.071217523562	0
2	7196	1458.016470297655	1
2	7197	1458.227956649428	0
2	7201	1458.363351746258	1
2	7202	1459.209496919019	0
2	7206	1459.443585917056	1
2	7207	1460.331491354247	0
2	7211	1461.281755925164	1
2	7212	1461.381964329583	0
2	7216	1461.743663697856	1
2	7218	1461.86811826711	2
2	7219	1462.564426758838	1
2	7222	1463.581599977006	0
2	7226	1464.537684979587	1
2	7227	1464.665177602553	0
2	7231	1465.254232919459	1
2	7232	1465.473324008425	0
2	7236	1465.688639629135	1
2	7237	1466.580062624299	0
2	7255	1471.04078890901	1
2	7256	1471.493393236164	0
2	7260	1471.583015672561	1
2	7261	1472.35490312618	0
2	7267	1473.009969633037	1
2	7268	1473.545429252319	0
2	7274	1474.18734627235	1
2	7275	1474.67303693448	0
2	7320	1485.096191298271	1
2	7321	1485.155647531476	0
2	7346	1489.192515840527	1
2	7347	1489.26645446359	0
2	7356	1490.334152810442	1
2	7357	1491.218689668596	0
2	7369	1494.098920580232	1
2	7370	1494.315915610034	0
2	7381	1495.755385967505	1
2	7382	1496.235729971107	0
2	7386	1497.207273685429	1
2	7387	1497.395270854093	0
2	7394	1498.71830424239	1
2	7397	1499.108487185974	0
2	7401	1499.539653857449	1
2	7402	1500.277167169329	0
2	7419	1504.164316069545	1
2	7421	1504.218342220739	2
2	7423	1504.276618218623	3
2	7424	1504.526051221833	2
2	7431	1505.468969983466	1
2	7437	1506.329269509064	2
2	7438	1506.655926490061	1
2	7442	1507.226566115396	2
2	7443	1507.632828344449	1
2	7447	1508.139300191246	2
2	7449	1508.654396197905	3
2	7450	1508.78791745207	2
2	7453	1509.811046074561	1
2	7457	1510.046768664159	2
2	7458	1510.823221148501	1
2	7462	1511.385039401983	2
2	7463	1511.827765992886	1
2	7467	1512.73522945945	2
2	7468	1512.920690627253	1
2	7471	1513.796281428492	0
2	7475	1514.370790049355	1
2	7476	1514.842355824584	0
2	7480	1515.108548345225	1
2	7482	1515.304835925264	2
2	7485	1516.033823615076	1
2	7489	1516.405572955616	2
2	7490	1516.881499126783	1
2	7493	1517.791626520777	0
2	7497	1518.762631459348	1
2	7498	1518.764881708981	0
2	7502	1519.607600697591	1
2	7503	1519.733835692001	0
2	7507	1520.506927347634	1
2	7508	1520.708950823308	0
2	7512	1521.231294498063	1
2	7513	1521.82940896139	0
2	7517	1521.899466273794	1
2	7519	1522.857487266336	2
2	7520	1522.993868918107	1
2	7524	1523.074172433931	2
2	7525	1524.017627040898	1
2	7529	1524.461707057575	2
2	7530	1525.046106260126	1
2	7533	1525.949628142217	0
2	7537	1526.056464384901	1
2	7538	1527.104768263405	0
2	7564	1533.5536260285	1
2	7565	1534.241634280557	0
2	7576	1535.697906036654	1
2	7579	1536.295324447514	0
2	7588	1537.610080394613	1
2	7589	1538.254728443777	0
2	7615	1542.777813685923	1
2	7616	1543.206825956372	0
2	7625	1545.204467508341	1
2	7626	1545.466577913747	0
2	7633	1546.554966743526	1
2	7634	1547.602721434128	0
2	7641	1548.878296892553	1
2	7643	1549.219188075934	2
2	7646	1549.60446100146	1
2	7653	1550.591078261421	0
2	7657	1550.792161662069	1
2	7658	1551.755743012992	0
2	7665	1553.911037940185	1
2	7666	1553.930457883836	0
2	7675	1555.590695007586	1
2	7676	1555.960416215328	0
2	7685	1556.8509443343	1
2	7686	1557.639613316064	0
2	7700	1559.81384757674	1
2	7701	1560.417425142365	0
2	7705	1561.139497271248	1
2	7706	1561.336767286292	0
2	7715	1562.302745735046	1
2	7718	1563.210708526473	0
2	7722	1563.712996268012	1
2	7723	1564.22074404354	0
2	7730	1565.251208563007	1
2	7733	1566.283619891337	0
2	7742	1567.517217420003	1
2	7743	1568.601507991224	0
2	7755	1570.421686221015	1
2	7758	1571.162263273491	0
2	7770	1573.142751914255	1
2	7773	1574.061120473916	0
2	7779	1574.715275694564	1
2	7780	1575.127897496099	0
2	7784	1575.384908107903	1
2	7785	1576.311993555116	0
2	7789	1576.354033164019	1
2	7790	1577.168758907771	0
2	7797	1578.236909185487	1
2	7799	1578.440334401938	2
2	7800	1579.214561435251	1
2	7803	1580.331867066255	0
2	7807	1580.504081829925	1
2	7808	1581.39215511181	0
2	7812	1581.522009397042	1
2	7813	1582.277888235492	0
2	7817	1582.910533500555	1
2	7818	1583.092475578883	0
2	7822	1583.514828643089	1
2	7823	1584.001381406044	0
2	7827	1584.05292998162	1
2	7828	1585.107867444349	0
2	7832	1586.126896571352	1
2	7833	1586.150148890582	0
2	7837	1586.153547294232	1
2	7838	1587.053547506728	0
2	7850	1589.618854491971	1
2	7851	1589.664042818588	0
2	7858	1591.386871382987	1
2	7861	1591.797743410566	0
2	7870	1593.79100284931	1
2	7871	1593.856577496739	0
2	7875	1593.924757135459	1
2	7876	1595.044932955826	0
2	7883	1596.880087425412	1
2	7884	1597.066042779243	0
2	7890	1597.946846894346	1
2	7891	1598.106796394984	0
2	7898	1599.941798928913	1
2	7899	1600.092685157291	0
2	7903	1600.641100442034	1
2	7906	1600.981419592674	0
2	7910	1601.149698360097	1
2	7912	1601.258316224915	2
2	7913	1601.828850386615	1
2	7917	1602.537327409731	2
2	7918	1602.878094777043	1
2	7922	1603.84317032437	2
2	7923	1603.938633926163	1
2	7927	1604.632673649083	2
2	7928	1605.029076276856	1
2	7932	1605.132924890319	2
2	7934	1605.134343828249	3
2	7935	1605.978922200619	2
2	7938	1606.996859223625	1
2	7942	1607.319559495336	2
2	7944	1607.541481338878	3
2	7946	1607.720282762724	4
2	7947	1608.033124844494	3
2	7950	1609.076124082829	2
2	7953	1609.970122352659	1
2	7957	1610.195217273221	2
2	7959	1610.48362115924	3
2	7960	1610.837745777655	2
2	7963	1611.824451352048	1
2	7966	1612.806052764084	0
2	7970	1613.457183140547	1
2	7971	1613.888514436174	0
2	7975	1613.894354180946	1
2	7977	1613.980419869165	2
2	7979	1614.193308724916	3
2	7980	1614.701678881839	2
2	7984	1615.339572461759	3
2	7986	1615.400539999385	4
2	7987	1615.571161579479	3
2	7991	1615.609666179681	4
2	7993	1616.558095401786	5
2	7994	1616.708424543355	4
2	7998	1617.105283772509	5
2	7999	1617.532851665791	4
2	8003	1618.013804438712	5
2	8005	1618.317251807331	6
2	8006	1618.55662555699	5
2	8009	1619.70949846464	4
2	8013	1619.951103784288	5
2	8014	1620.600766485508	4
2	8018	1621.24508379127	5
2	8019	1621.631563318006	4
2	8023	1622.290268314578	5
2	8024	1622.608931995879	4
2	8028	1622.697239894864	5
2	8029	1623.615945129047	4
2	8032	1624.620778721708	3
2	8035	1625.726862288869	2
2	8039	1625.744130165369	3
2	8040	1626.863662421002	2
2	8043	1628.051847375973	1
2	8047	1628.298979378374	2
2	8049	1628.450578036133	3
2	8051	1628.972336322211	4
2	8052	1629.211761327411	3
2	8057	1630.404440713252	2
2	8060	1631.23207666422	1
2	8064	1631.323391505652	2
2	8065	1632.233055116374	1
2	8068	1633.231377601854	0
2	8072	1633.29079182496	1
2	8073	1634.379388234622	0
2	8080	1635.284744816649	1
2	8082	1635.357037083369	2
2	8085	1636.219089778185	1
2	8091	1636.308085819603	2
2	8092	1637.125594365269	1
2	8097	1637.96263239323	0
2	8101	1639.005789387128	1
2	8102	1639.040125956804	0
2	8106	1639.792229288148	1
2	8107	1639.876433325325	0
2	8114	1641.343282913903	1
2	8115	1642.026057204184	0
2	8122	1643.321597827038	1
2	8124	1643.715300003345	2
2	8126	1644.089616896843	3
2	8127	1644.200177948502	2
2	8133	1645.21239904835	3
2	8134	1645.263791232881	2
2	8138	1645.879654704211	3
2	8139	1646.110478276525	2
2	8143	1646.244264080829	3
2	8145	1646.794285591215	4
2	8146	1647.29225083948	3
2	8150	1648.17080310046	4
2	8151	1648.264452723739	3
2	8154	1649.376307016098	2
2	8159	1650.185801753634	1
2	8163	1650.531511863413	2
2	8165	1650.831871381389	3
2	8166	1651.237443463457	2
2	8170	1651.653768993914	3
2	8171	1652.189522863598	2
2	8174	1652.99068559953	1
2	8178	1653.154896320325	2
2	8180	1653.821943684247	3
2	8181	1653.978502841154	2
2	8185	1654.96998324683	3
2	8186	1654.99782098406	2
2	8190	1655.227367506072	3
2	8191	1655.822039786121	2
2	8195	1656.568909803632	3
2	8196	1657.006725047575	2
2	8200	1657.520351821848	3
2	8201	1658.107034359546	2
2	8204	1658.98423601943	1
2	8207	1660.154340099217	0
2	8211	1661.084923902498	1
2	8212	1661.214739267295	0
2	8219	1662.257673073535	1
2	8222	1662.920307693677	0
2	8239	1666.421896364596	1
2	8240	1666.973436749307	0
2	8248	1668.003448215204	1
2	8249	1668.056883324263	0
2	8253	1668.645985075673	1
2	8254	1669.21243255441	0
2	8258	1669.88581938329	1
2	8260	1670.071307427816	2
2	8261	1670.119860881892	1
2	8264	1670.989259612699	0
2	8268	1671.102348982333	1
2	8270	1671.428147386928	2
2	8271	1671.945012193405	1
2	8275	1672.102442753597	2
2	8276	1672.779816823871	1
2	8281	1673.612137873796	0
2	8288	1675.122604118869	1
2	8289	1675.809210021281	0
2	8296	1677.010105557321	1
2	8299	1677.806882015848	0
2	8308	1679.125463128666	1
2	8309	1679.873752056201	0
2	8332	1685.576030675185	1
2	8333	1685.943399563012	0
2	8437	1708.432042124901	1
2	8438	1708.61142978319	0
2	8445	1709.831306402051	1
2	8448	1710.51256212364	0
2	8461	1712.007155066118	1
2	8462	1712.219778816635	0
2	8483	1715.800058152106	1
2	8486	1716.415332064172	0
2	8496	1718.727163610546	1
2	8499	1719.394870940083	0
2	8623	1742.949052356938	1
2	8624	1743.11348505602	0
2	8631	1744.235271583826	1
2	8634	1745.075824539501	0
2	8643	1747.242653119001	1
2	8644	1747.307402693525	0
2	8653	1748.557610817781	1
2	8654	1749.320390137889	0
2	8663	1750.897771763412	1
2	8666	1751.250547888454	0
2	8672	1751.938635570328	1
2	8673	1752.280184531443	0
2	8680	1753.576483975867	1
2	8682	1753.998547539511	2
2	8683	1754.143953842807	1
2	8687	1754.194094600254	2
2	8690	1755.132952388886	1
2	8694	1756.04092144407	2
2	8695	1756.041705703407	1
2	8699	1756.089086929127	2
2	8700	1756.967533025655	1
2	8704	1757.310475706549	2
2	8705	1758.080490732144	1
2	8709	1758.146364627176	2
2	8710	1759.209969257049	1
2	8713	1760.038444219295	0
2	8717	1760.776745083589	1
2	8718	1760.966862741344	0
2	8722	1761.42598980935	1
2	8723	1761.834935382985	0
2	8730	1763.022073498863	1
2	8732	1763.6854809884	2
2	8733	1763.77085842327	1
2	8736	1764.877445879344	0
2	8745	1766.085551187634	1
2	8747	1766.159057764522	2
2	8748	1766.942228800383	1
2	8751	1768.009331053168	0
2	8755	1768.187600418063	1
2	8758	1769.177887087454	0
2	8765	1770.614263771188	1
2	8766	1771.238337030586	0
2	8778	1773.349911102822	1
2	8779	1774.21882041157	0
2	8787	1774.774500360494	1
2	8788	1775.164787903379	0
2	8792	1775.913666817967	1
2	8793	1775.9790418033	0
2	8800	1777.119952641106	1
2	8801	1777.955571172989	0
2	8808	1778.966910657531	1
2	8809	1779.915727012648	0
2	8813	1779.936320719906	1
2	8816	1780.745049658647	0
2	8820	1780.798473791313	1
2	8821	1781.724389121166	0
2	8825	1782.478398737651	1
2	8826	1782.81392378383	0
2	8830	1783.136294298905	1
2	8831	1783.808046932096	0
2	8843	1786.852153590107	1
2	8844	1787.069326258494	0
2	8851	1788.564031571631	1
2	8852	1789.268759809012	0
2	8859	1790.782881898131	1
2	8860	1791.489930951918	0
2	8874	1793.477628490538	1
2	8877	1794.461657703339	0
2	8884	1796.388330848664	1
2	8885	1796.620426506779	0
2	8892	1798.288230860705	1
2	8895	1798.800382293991	0
2	8912	1802.690570441403	1
2	8913	1802.909563793565	0
2	8917	1803.836109821423	1
2	8918	1803.950213742579	0
2	8950	1810.492632903657	1
2	8951	1811.110066485914	0
2	8959	1811.644048748793	1
2	8960	1811.913524558066	0
2	8969	1813.553203556773	1
2	8970	1814.135753621111	0
2	8974	1814.476658512634	1
2	8975	1815.294845560702	0
2	8985	1817.840921927585	1
2	8987	1818.260112320294	2
2	8988	1818.376215580242	1
2	8993	1819.369412564622	0
2	9004	1820.90380048634	1
2	9005	1821.277845927743	0
2	9012	1822.550610474391	1
2	9013	1822.941622725824	0
2	9017	1823.134126273388	1
2	9019	1823.820673351378	2
2	9022	1824.122780280231	1
2	9025	1825.29493060582	0
2	9034	1827.034243871817	1
2	9035	1827.286706429297	0
2	9039	1827.913146001831	1
2	9040	1828.193406821644	0
2	9044	1828.36629039185	1
2	9048	1828.825340954621	2
2	9049	1828.997121453421	1
2	9052	1830.064113262525	0
2	9059	1831.276580591044	1
2	9060	1832.107429747792	0
2	9072	1834.937608325841	1
2	9073	1835.10258491714	0
2	9077	1835.962799665416	1
2	9078	1836.209788433038	0
2	9082	1836.897276398162	1
2	9083	1837.223206688691	0
2	9101	1841.801798741298	1
2	9102	1841.985697362147	0
2	9113	1843.334860988165	1
2	9117	1843.924693823842	2
2	9118	1844.114387401607	1
2	9121	1845.066136242863	0
2	9125	1845.245554246409	1
2	9126	1846.046690660291	0
2	9143	1849.144227374586	1
2	9146	1849.837777205877	0
2	9153	1850.83408178069	1
2	9154	1851.968677317113	0
2	9160	1852.771822700026	1
2	9161	1852.93184544709	0
2	9165	1853.531531866156	1
2	9166	1854.044187160343	0
2	9175	1855.302746215871	1
2	9177	1855.492825987354	2
2	9178	1856.340184130281	1
2	9183	1857.225853612967	0
2	9187	1857.795588865103	1
2	9188	1858.166507881642	0
2	9192	1858.978943078244	1
2	9193	1859.189046856523	0
2	9200	1860.799853230071	1
2	9201	1861.202175797657	0
2	9205	1861.2636170817	1
2	9209	1861.629556491846	2
2	9211	1861.671761834591	3
2	9213	1862.113814505161	4
2	9214	1862.200152506535	3
2	9217	1863.228921097186	2
2	9220	1864.132078058687	1
2	9223	1864.963749782131	0
2	9229	1865.552721403975	1
2	9230	1865.988749965788	0
2	9234	1866.162526580817	1
2	9235	1866.957973220986	0
2	9245	1868.913823610851	1
2	9246	1869.430812342507	0
2	9253	1870.701964008648	1
2	9254	1871.469278282435	0
2	9297	1881.187141006842	1
2	9298	1881.20305134565	0
2	9307	1882.226469729825	1
2	9308	1882.961447633378	0
2	9312	1883.264572976193	1
2	9313	1884.050135595299	0
2	9327	1886.263306836948	1
2	9330	1887.174668942897	0
2	9342	1889.518203052006	1
2	9343	1890.128051673661	0
2	9350	1891.206555987266	1
2	9353	1892.11724084331	0
2	9360	1893.026331372052	1
2	9365	1893.847559921018	0
2	9371	1894.523639893653	1
2	9372	1894.847610364429	0
2	9379	1896.047332616414	1
2	9381	1897.062732822722	2
2	9382	1897.102747083682	1
2	9388	1897.393579979249	2
2	9389	1898.127486178133	1
2	9392	1899.040066711272	0
2	9404	1902.004368371474	1
2	9406	1902.218158281212	2
2	9407	1902.437321322358	1
2	9410	1903.242967649123	0
2	9414	1903.815337116225	1
2	9415	1904.093502314056	0
2	9419	1904.562842552846	1
2	9420	1905.018139625008	0
2	9424	1905.491147378534	1
2	9425	1906.069024633935	0
2	9429	1906.255802179824	1
2	9431	1906.439267048399	2
2	9432	1906.937842932383	1
2	9436	1906.942672727162	2
2	9437	1907.995259752257	1
2	9441	1908.269261120864	2
2	9443	1908.589454292985	3
2	9444	1909.080839198401	2
2	9450	1909.61712235269	3
2	9451	1910.140310718251	2
2	9455	1910.286161949334	3
2	9456	1911.002568468304	2
2	9460	1911.236990846742	3
2	9461	1912.072315357199	2
2	9465	1912.213031640737	3
2	9466	1913.138176678533	2
2	9470	1913.676601682569	3
2	9471	1914.127442713214	2
2	9474	1915.138353041785	1
2	9477	1916.032418544443	0
2	9483	1916.611502664113	1
2	9485	1917.006231911621	2
2	9486	1917.128799662312	1
2	9490	1918.211171987294	2
2	9491	1918.32807130091	1
2	9495	1918.61691052545	2
2	9496	1919.162174348944	1
2	9500	1919.866102753785	2
2	9501	1920.324715420642	1
2	9506	1921.198378220704	0
2	9510	1921.534162599262	1
2	9511	1922.171619249918	0
2	9529	1926.396330259121	1
2	9533	1926.459706055904	2
2	9534	1927.120510568786	1
2	9539	1928.150332133509	0
2	9556	1931.50699553418	1
2	9558	1932.107625045016	2
2	9559	1932.22556677455	1
2	9563	1932.977523275668	2
2	9564	1933.328403277545	1
2	9568	1933.859120948769	2
2	9569	1934.388789019677	1
2	9573	1934.508736265852	2
2	9576	1935.353369789328	1
2	9579	1936.335678741186	0
2	9583	1936.678974334477	1
2	9585	1937.118497443211	2
2	9586	1937.516642976589	1
2	9590	1937.547119384194	2
2	9591	1938.417082412391	1
2	9595	1938.433016998753	2
2	9596	1939.342613404187	1
2	9600	1939.645166294235	2
2	9601	1940.358636833763	1
2	9605	1940.573727716978	2
2	9606	1941.24087217314	1
2	9609	1942.239747539198	0
2	9613	1942.833010756764	1
2	9614	1943.10667722713	0
2	9618	1943.631184038475	1
2	9619	1944.150618064252	0
2	9623	1945.006870984158	1
2	9624	1945.322827037738	0
2	9628	1945.514541926614	1
2	9629	1946.288707537984	0
2	9636	1947.938122144973	1
2	9637	1948.467261627258	0
2	9646	1950.030962992848	1
2	9647	1950.613958518056	0
2	9651	1950.999575128542	1
2	9652	1951.721004117036	0
2	9656	1952.020039496156	1
2	9657	1952.647102582304	0
2	9661	1953.074072992105	1
2	9662	1953.725901690068	0
2	9666	1954.413802956257	1
2	9667	1954.697106924037	0
2	9674	1956.273852979131	1
2	9676	1956.477848412357	2
2	9677	1956.500711097418	1
2	9682	1957.473371286167	0
2	9689	1958.730132489586	1
2	9690	1959.539774433838	0
2	9697	1961.018654440682	1
2	9698	1961.589056062548	0
2	9743	1971.520948914199	1
2	9744	1972.051371678466	0
2	9766	1976.075423934128	1
2	9769	1976.855010291318	0
2	9776	1978.131523244292	1
2	9783	1979.075524657814	0
2	9789	1979.282558844786	1
2	9791	1979.757509121654	2
2	9792	1980.101189729328	1
2	9795	1981.031600138302	0
2	9801	1981.859850115229	1
2	9802	1981.889399245138	0
2	9806	1982.286145808634	1
2	9809	1982.721967481578	0
2	9813	1982.786539646612	1
2	9814	1983.8497249924	0
2	9821	1984.895530866352	1
2	9822	1985.7101390798	0
2	9828	1986.050484921595	1
2	9830	1986.108518816113	2
2	9831	1986.644472843817	1
2	9834	1987.57953994315	0
2	9838	1988.206829607343	1
2	9839	1988.637635597716	0
2	9843	1988.725080244823	1
2	9844	1989.590743976309	0
2	9848	1990.317507418052	1
2	9850	1990.368258334631	2
2	9851	1990.780783689524	1
2	9855	1991.132041330537	2
2	9856	1991.811252583693	1
2	9860	1991.968258400057	2
2	9861	1992.619562140796	1
2	9865	1992.794524725984	2
2	9866	1993.666384046562	1
2	9870	1993.726179103188	2
2	9871	1994.710751872268	1
2	9876	1995.728006030284	0
2	9880	1996.569552988968	1
2	9882	1996.68965666285	2
2	9883	1996.723818894513	1
2	9887	1996.969559659424	2
2	9888	1997.899057327341	1
2	9891	1998.784337305035	0
2	9895	1999.127974468139	1
2	9897	1999.156993362885	2
2	9898	1999.870931625124	1
2	9902	1999.932110653952	2
2	9903	2000.997713553384	1
2	9907	2001.179239475609	2
2	9909	2001.945729684872	3
2	9911	2002.03421906082	4
2	9912	2002.160486953277	3
2	9915	2003.013867809754	2
2	9919	2003.147906071478	3
2	9921	2003.456181606809	4
2	9924	2004.201561761499	3
2	9927	2005.10319013143	2
2	9930	2006.226368900426	1
2	9933	2007.053291388639	0
2	9937	2007.448063494518	1
2	9938	2007.910351590571	0
2	9942	2007.959705775918	1
2	9944	2008.463110932618	2
2	9945	2009.106247195826	1
2	9949	2009.18830164847	2
2	9951	2009.217790120211	3
2	9953	2009.338475107927	4
2	9955	2009.685723694368	5
2	9956	2010.070777027254	4
2	9959	2010.973560231031	3
2	9963	2010.98523283965	4
2	9964	2011.803901602552	3
2	9972	2012.429865658855	4
2	9973	2012.852050009873	3
2	9977	2012.879742649804	4
2	9979	2013.161973456082	5
2	9980	2013.652309907545	4
2	9983	2014.463742783145	3
2	9987	2014.666310579951	4
2	9988	2015.618236605489	3
2	9991	2016.568452109621	2
2	9994	2017.473262395003	1
2	9999	2018.294900806193	0
2	10005	2019.219481767972	1
2	10006	2019.38700075442	0
2	10010	2019.683304347943	1
2	10011	2020.193350615762	0
2	10015	2020.742230355976	1
2	10016	2021.390981878657	0
2	10020	2021.782383808141	1
2	10021	2022.317637063041	0
2	10025	2022.32630686553	1
2	10026	2023.227378616891	0
2	10030	2023.665782255564	1
2	10031	2024.314063130262	0
2	10040	2025.422556854055	1
2	10041	2026.198873868807	0
2	10047	2026.885762176038	1
2	10048	2027.060514906085	0
2	10055	2028.810241906501	1
2	10056	2028.998449925556	0
2	10063	2029.926641817443	1
2	10065	2030.241924378258	2
2	10066	2030.762682761289	1
2	10073	2031.749459118713	0
2	10080	2033.4205941293	1
2	10081	2033.699587353916	0
2	10085	2033.781757040544	1
2	10086	2034.83422410464	0
2	10092	2035.239630175741	1
2	10093	2035.774521909599	0
2	10097	2035.831456205316	1
2	10098	2036.792330437657	0
2	10102	2037.214133135874	1
2	10103	2037.878142635096	0
2	10121	2041.737833795865	1
2	10124	2042.442402344887	0
2	10130	2042.730655797944	1
2	10131	2043.455759256651	0
2	10145	2046.177250719936	1
2	10146	2046.368287677449	0
2	10155	2047.461831115391	1
2	10157	2047.80010345029	2
2	10158	2048.203242231943	1
2	10161	2049.39390118694	0
2	10165	2049.588414822391	1
2	10166	2050.516843807549	0
2	10170	2050.524827786711	1
2	10172	2050.898210616017	2
2	10175	2051.679099234138	1
2	10179	2052.452816376341	2
2	10180	2052.827194162589	1
2	10183	2053.915932025332	0
2	10187	2054.015287032997	1
2	10188	2054.936558169723	0
2	10195	2056.542494726167	1
2	10196	2056.687017542441	0
2	10203	2058.379885859872	1
2	10206	2058.791929848251	0
2	10215	2060.14727170704	1
2	10217	2060.753953308583	2
2	10218	2060.934775747211	1
2	10222	2061.143771722624	2
2	10223	2061.972363524364	1
2	10226	2062.912993323935	0
2	10230	2063.211695938396	1
2	10232	2063.646602545686	2
2	10233	2063.831225991567	1
2	10237	2064.086898876212	2
2	10238	2064.729616556821	1
2	10244	2064.922971680327	2
2	10246	2065.221884050755	3
2	10247	2065.615188151264	2
2	10250	2066.424681460896	1
2	10254	2067.29148416513	2
2	10255	2067.394349210934	1
2	10258	2068.423106352278	0
2	10262	2068.749118004131	1
2	10264	2069.014806849733	2
2	10266	2069.530679415647	3
2	10267	2069.564216460139	2
2	10270	2070.585550670177	1
2	10273	2071.496189302057	0
2	10280	2072.653126369472	1
2	10282	2072.678887845605	2
2	10283	2073.597676889728	1
2	10287	2073.994170757357	2
2	10288	2074.563327006101	1
2	10292	2074.995653767628	2
2	10293	2075.380934932678	1
2	10297	2075.75031887137	2
2	10298	2076.26467558354	1
2	10302	2076.523395437133	2
2	10305	2077.073512256368	1
2	10309	2077.491244933506	2
2	10312	2078.136861916481	1
2	10316	2078.29975639414	2
2	10319	2079.206268895733	1
2	10323	2079.926634354295	2
2	10324	2080.352600329592	1
2	10327	2081.475381468739	0
2	10334	2083.113708000498	1
2	10335	2083.327839214392	0
2	10339	2083.554591528113	1
2	10342	2084.354802392367	0
2	10346	2084.845359656958	1
2	10347	2085.220024120845	0
2	10351	2085.482502306826	1
2	10352	2086.090258257501	0
2	10358	2086.979493487455	1
2	10360	2087.025499323321	2
2	10361	2087.196785718519	1
2	10367	2088.088226129262	2
2	10368	2088.275877903998	1
2	10372	2088.280139062766	2
2	10373	2089.343997001965	1
2	10376	2090.469245960787	0
2	10380	2090.641393247027	1
2	10381	2091.423042823505	0
2	10385	2091.649634606102	1
2	10386	2092.616682528742	0
2	10390	2093.407583336292	1
2	10391	2093.669455714003	0
2	10395	2093.738559388148	1
2	10396	2094.76533153303	0
2	10403	2095.649654196007	1
2	10404	2096.761706375647	0
2	10418	2100.087958796	1
2	10419	2100.111726428791	0
2	10426	2101.201524498621	1
2	10428	2101.780474171058	2
2	10429	2101.856649417932	1
2	10434	2103.022117649893	0
2	10442	2103.872418585602	1
2	10443	2104.194965237974	0
2	10447	2105.112574369775	1
2	10448	2105.296144013236	0
2	10454	2105.975178847514	1
2	10455	2106.141506142112	0
2	10462	2107.334963906934	1
2	10463	2108.006209200935	0
2	10467	2108.35829592222	1
2	10469	2108.863017230291	2
2	10470	2109.01686415415	1
2	10474	2109.585436103111	2
2	10477	2109.985785559879	1
2	10480	2110.946676185576	0
2	10484	2111.976822231926	1
2	10485	2112.047411820234	0
2	10489	2112.468411013626	1
2	10490	2113.182885936589	0
2	10500	2115.14824827308	1
2	10504	2115.452837521248	2
2	10507	2116.011938108445	1
2	10510	2116.976508580555	0
2	10514	2117.350233269284	1
2	10517	2118.078852700849	0
2	10521	2118.495648844256	1
2	10522	2119.136851646879	0
2	10526	2119.911519598653	1
2	10527	2120.095799691172	0
2	10531	2120.167107311262	1
2	10533	2120.226601762257	2
2	10534	2120.943213263189	1
2	10537	2122.039245345851	0
2	10541	2122.173573239009	1
2	10542	2122.907600237837	0
2	10549	2123.866055635262	1
2	10550	2124.904646068288	0
2	10562	2127.119025343972	1
2	10565	2127.647422140221	0
2	10574	2128.738002127912	1
2	10576	2128.791318792987	2
2	10577	2129.670369413159	1
2	10582	2130.504237961061	0
2	10586	2130.602787017143	1
2	10587	2131.420101267229	0
2	10597	2134.321580544113	1
2	10598	2134.557653966862	0
2	10617	2138.436872901263	1
2	10618	2138.86299227396	0
2	10625	2140.255545680007	1
2	10628	2140.69240067577	0
2	10637	2142.202314371718	1
2	10638	2142.619731638059	0
2	10647	2143.483459726473	1
2	10648	2144.534124299269	0
2	10700	2155.355290932779	1
2	10701	2155.456742550656	0
2	10714	2157.199224046476	1
2	10715	2157.562596541308	0
2	10724	2159.125494948306	1
2	10725	2159.619043175634	0
2	10732	2161.390048133215	1
2	10733	2161.664284836817	0
2	10750	2165.151830812987	1
2	10751	2165.565963381472	0
2	10758	2166.650182248707	1
2	10761	2167.782511259466	0
2	10775	2170.328167148218	1
2	10777	2170.423683384747	2
2	10778	2171.001488650534	1
2	10781	2171.834242527038	0
2	10787	2172.465435200357	1
2	10792	2173.031405978315	0
2	10796	2173.679696087463	1
2	10797	2174.155987151657	0
2	10801	2174.369384998633	1
2	10803	2174.905322312584	2
2	10804	2175.242855630294	1
2	10808	2175.388027469973	2
2	10809	2176.123346073311	1
2	10813	2176.669090173642	2
2	10815	2177.00966922498	3
2	10816	2177.24437534133	2
2	10820	2178.048919862208	3
2	10821	2178.061829441637	2
2	10825	2178.564627293817	3
2	10826	2179.16392630985	2
2	10829	2179.996607563496	1
2	10833	2180.987271918118	2
2	10834	2181.065727155693	1
2	10838	2181.296656703249	2
2	10839	2181.910293672457	1
2	10842	2182.940375485867	0
2	10846	2183.05746589095	1
2	10847	2183.975299003198	0
2	10851	2184.041223020238	1
2	10853	2184.388032326291	2
2	10854	2185.146541740037	1
2	10858	2185.741151738401	2
2	10861	2186.162900477219	1
2	10865	2186.406407981417	2
2	10866	2187.016565238069	1
2	10870	2187.307572801749	2
2	10872	2187.812163755656	3
2	10873	2187.833514861427	2
2	10877	2188.46780672851	3
2	10880	2188.968577187452	2
2	10884	2189.791318148909	3
2	10885	2190.121053840816	2
2	10888	2190.96653735185	1
2	10891	2191.864859444778	0
2	10895	2192.702781830019	1
2	10896	2192.870279200598	0
2	10900	2193.52105474081	1
2	10901	2194.009687595944	0
2	10908	2195.801126853474	1
2	10909	2196.078161422945	0
2	10918	2197.421488608193	1
2	10920	2198.174475309136	2
2	10921	2198.332675025928	1
2	10926	2199.398313162885	0
2	10933	2201.162756605036	1
2	10934	2201.387904702536	0
2	10940	2202.036671713378	1
2	10941	2202.193193145412	0
2	10948	2203.251013078971	1
2	10949	2204.04488017069	0
2	10963	2206.801744023382	1
2	10964	2207.156300756464	0
2	10975	2208.36859172734	1
2	10976	2209.112918819896	0
2	10996	2214.391689574779	1
2	10997	2214.490659305023	0
2	11004	2216.016693796177	1
2	11005	2216.426434670052	0
2	11012	2217.317293710403	1
2	11015	2218.344174943155	0
2	11022	2219.659996982198	1
2	11023	2220.242858154828	0
2	11032	2221.816155325259	1
2	11033	2222.133757030348	0
2	11042	2224.150290504474	1
2	11043	2224.224435810408	0
2	11047	2224.551969884294	1
2	11050	2225.314068484528	0
2	11054	2226.089779865943	1
2	11055	2226.15237375492	0
2	11062	2227.270228963999	1
2	11063	2228.016821076663	0
2	11067	2228.287467878004	1
2	11069	2228.403559383901	2
2	11071	2228.502555708959	3
2	11072	2228.996128898149	2
2	11076	2229.048072188528	3
2	11077	2229.926630674617	2
2	11081	2230.234635793749	3
2	11082	2230.869747219363	2
2	11086	2231.189246974631	3
2	11087	2231.749261543935	2
2	11092	2232.9446483279	1
2	11095	2233.812733762653	0
2	11099	2233.871951251469	1
2	11102	2234.996211836615	0
2	11106	2235.272383512032	1
2	11108	2235.690779219648	2
2	11109	2236.024072790274	1
2	11112	2236.954044895468	0
2	11116	2237.028106471129	1
2	11117	2237.928477977065	0
2	11127	2239.98344610227	1
2	11129	2240.158784863782	2
2	11130	2240.819424896536	1
2	11135	2241.776331971714	0
2	11139	2242.071189945746	1
2	11141	2242.478013332282	2
2	11142	2242.873404305463	1
2	11145	2243.808812586905	0
2	11149	2244.546935704381	1
2	11150	2244.929750568734	0
2	11154	2244.947475804405	1
2	11155	2245.94163778018	0
2	11161	2246.688058319169	1
2	11162	2247.03771247234	0
2	11166	2247.274817203866	1
2	11168	2247.619588077204	2
2	11169	2248.187951610738	1
2	11173	2248.966048931322	2
2	11174	2249.009945670271	1
2	11178	2249.234570197351	2
2	11179	2249.900562643015	1
2	11183	2250.468196840124	2
2	11184	2251.052698926942	1
2	11188	2251.336039003356	2
2	11190	2251.818382572463	3
2	11191	2251.984341731889	2
2	11194	2252.836719393393	1
2	11199	2253.696574304568	0
2	11203	2253.861744830053	1
2	11204	2254.606863813604	0
2	11208	2255.149704327693	1
2	11209	2255.543976435846	0
2	11213	2256.315019294105	1
2	11214	2256.37157541042	0
2	11218	2256.587545386479	1
2	11220	2256.856297030956	2
2	11222	2256.954918040017	3
2	11224	2257.021561457456	4
2	11225	2257.188131559582	3
2	11228	2258.363561558013	2
2	11232	2258.451457267297	3
2	11233	2259.45210035959	2
2	11236	2260.407197038678	1
2	11240	2260.666721856671	2
2	11241	2261.287411361223	1
2	11247	2261.911118877395	2
2	11249	2261.957684796445	3
2	11250	2262.303845776653	2
2	11253	2263.420169333125	1
2	11257	2263.440305369729	2
2	11258	2264.546183884738	1
2	11262	2264.596533632217	2
2	11263	2265.72923121996	1
2	11266	2266.676373970171	0
2	11276	2268.468576186635	1
2	11280	2268.672664847705	2
2	11281	2269.459415172447	1
2	11284	2270.593891730007	0
2	11293	2272.061485908792	1
2	11295	2272.164641648261	2
2	11296	2272.670372689363	1
2	11300	2273.302687229596	2
2	11301	2273.533889451098	1
2	11305	2273.852073007624	2
2	11307	2273.883531306566	3
2	11308	2274.568267185834	2
2	11312	2274.730072736145	3
2	11313	2275.654007849783	2
2	11317	2276.243381814354	3
2	11319	2276.341168673632	4
2	11322	2276.722020980377	3
2	11325	2277.902287497126	2
2	11329	2278.684529836536	3
2	11330	2278.79444962911	2
2	11333	2279.631938778457	1
2	11337	2279.98410903876	2
2	11339	2280.717715553274	3
2	11340	2280.74156812349	2
2	11343	2281.855758992989	1
2	11347	2282.305744804494	2
2	11348	2282.735088543442	1
2	11352	2282.997386762832	2
2	11353	2283.580525901017	1
2	11357	2283.588009594708	2
2	11359	2284.543997174902	3
2	11360	2284.726087893394	2
2	11364	2284.848074227127	3
2	11365	2285.653706457966	2
2	11369	2285.803996468499	3
2	11370	2286.7231651598	2
2	11374	2286.783160497158	3
2	11375	2287.78570726061	2
2	11379	2288.257639545027	3
2	11380	2288.65870420126	2
2	11383	2289.759230772534	1
2	11386	2290.902164291998	0
2	11390	2291.565455042725	1
2	11391	2291.739852093568	0
2	11395	2291.953149278483	1
2	11397	2291.975189767409	2
2	11398	2292.545900712663	1
[...]
6	125228	25014.904799916158	732.24586082155
6	125259	25021.873727974603	720.4486225545
6	125286	25026.959509036625	723.90016150759
6	125315	25034.406241806439	5026.89027382
6	125367	25044.389613789441	1061.6250179929
6	125370	25045.47604317789	6908.2555093281
6	125428	25057.586809407203	2850.8110934876
6	125436	25059.72241689724	646.51047948519
6	125446	25061.562342673289	2775.9787316797
6	125484	25069.493930969044	1021.6175597806
6	125494	25071.538332789328	2417.1035000049
6	125503	25074.544612759475	1018.5581119419
6	125510	25075.555413917389	3447.3217620815
6	125531	25080.291124913127	3421.6591223249
6	125603	25096.973520322268	644.45115578271
6	125608	25098.108246023984	1715.6355694293
6	125618	25099.829132273545	346.46738607201
6	125636	25104.068905316698	1017.1431405874
6	125649	25107.202303297013	1002.7967613194
6	125655	25108.879222488623	2117.2354570669
6	125680	25113.846670185156	2115.5070773463
6	125705	25118.499503231083	2114.2561545666
6	125747	25126.827744174039	2752.802796409
6	125811	25139.326590178942	332.01331218359
6	125822	25142.497499269561	331.6376793112
6	126034	25182.645839173383	1325.9163966259
6	126042	25184.523915888778	615.34310972907
6	126064	25190.453456028959	611.81720819186
6	126377	25254.408850362465	2461.7773749854
6	126382	25255.489835262519	621.05550144073
6	126436	25265.075179689877	3332.0858012071
6	126528	25282.95533513784	2125.6908872139
6	126543	25286.073368003998	1328.0214932582
6	126678	25312.292546279669	4025.510513876
6	126744	25324.490001084875	603.08534557772
6	126765	25329.189583002623	2365.0351785672
6	126792	25334.403585497416	594.45511708864
6	126808	25338.40081636788	597.81803447797
6	126954	25368.153228420146	2375.4132409826
6	126975	25371.137889250029	2377.3862523161
6	127015	25378.47173227876	596.45211719351
6	127067	25390.797507921825	547.92359888488
6	127228	25419.530878940538	842.8731096981
6	127239	25422.520282535289	522.73499953217
6	127405	25457.637959688286	847.05524484692
6	127435	25463.837579137495	198.14293152533
6	127452	25466.641262610944	1187.7916017276
6	127581	25491.001515111177	3454.9128328038
6	127635	25500.330873867624	1506.7003034559
6	127650	25503.363050520827	2946.182345399
6	127680	25509.476328818349	816.15025989284
6	127736	25521.643814876712	6063.0728438327
6	127750	25523.652798498086	786.66833945465
6	127753	25524.635573930051	178.92138782932
6	127758	25525.811043797284	176.27742352107
6	127766	25527.940857725906	166.40336098567
6	127796	25533.693325187023	2549.0490647958
6	127801	25534.875726203843	1412.2184175087
6	127804	25535.751815642918	422.28898784376
6	127850	25545.740468633119	413.93478316479
6	127908	25556.295418308991	1812.6803468829
6	127979	25571.796322307771	751.15851190898
6	127986	25572.983886214754	739.762699654
6	128074	25590.759213820975	1066.1377100944
6	128094	25596.723631099369	192.47594720207
6	128410	25657.342702597785	2615.0920733365
6	128458	25667.312920967336	3901.5581721519
6	128491	25674.260962650399	232.32071313493
6	128496	25675.131339438851	3805.2110894257
6	128504	25677.226178522068	231.8228421241
6	128532	25682.938994540586	2196.1101860349
6	128611	25698.970464704682	2562.7624756647
6	128661	25706.686232887053	2558.5852309247
6	128699	25716.441162956444	2565.3676971906
6	128727	25724.495004403901	2900.7382228295
6	128734	25725.693702183787	4716.6334042494
6	128737	25726.745204001416	684.73553211131
6	128782	25738.139376843194	1345.2091093633
6	128840	25747.837542673232	2872.4062156834
6	128895	25758.323425561874	240.75450973286
6	128928	25763.216957982568	2423.8869404223
6	128978	25772.665986335216	249.24975770893
6	128996	25776.450128508949	1315.7782378017
6	129064	25790.696254282849	259.76579727522
6	129220	25820.704528809555	434.93121595301
6	129251	25827.790099145501	1018.4921933329
6	129315	25839.647066810941	962.83816985433
6	129332	25842.628929588133	254.94263166474
6	129404	25857.00028100454	683.6088087512
6	129455	25867.640790335767	250.10813636565
6	129486	25874.672711354241	698.00850574757
6	129579	25893.05852896583	2431.6344682189
6	129676	25911.667078424457	463.96244156662
6	129709	25918.680235274535	235.03117347127
6	129712	25919.608499665957	994.72248167261
6	129743	25926.563490454506	1300.4901230593
6	129746	25927.745176140617	462.0856176866
6	129837	25944.634075343075	210.71206269193
6	129869	25952.98739323246	1596.3308208161
6	129874	25954.131103159047	3894.3532140161
6	129921	25964.576359728935	4316.8575736994
6	129931	25966.57687252036	2305.9571970563
6	129938	25967.454557710818	198.56891629592
6	130171	26009.895637704643	1229.5569764665
6	130484	26072.606690765198	935.28269724326
6	130552	26086.334647540867	685.66712540618
6	130602	26096.538246403942	217.95501145129
6	130649	26105.685662390785	442.00574505118
6	130771	26129.334802810314	217.09247765198
6	130784	26132.179727831414	3369.9229069598
6	130800	26135.844010593207	3016.4211346802
6	131098	26194.426163996874	1881.9959267054
6	131106	26196.247201745423	908.16216619924
6	131111	26197.383374334617	1884.4991870833
6	131119	26199.171414028785	712.91903288931
6	131122	26199.982164744592	1527.445945676
6	131215	26218.896875167011	2569.7772642941
6	131669	26306.257722847377	466.70380831836
6	131747	26323.154243979259	1435.8330359394
6	131807	26335.35278567656	1159.4873616077
6	131840	26342.817269715324	246.07904175318
6	131852	26346.716901201133	694.33553459705
6	131903	26355.460373959347	6807.0166601727
6	131909	26357.477714474622	226.74189579903
6	131916	26358.329321996804	1130.4936141728
6	131936	26362.439892989427	436.14744301436
6	131945	26365.13301354538	210.74104600003
6	131950	26366.034641774868	207.87627858217
6	131963	26368.975254485414	3881.7806513413
6	131968	26369.777639546648	200.71846734283
6	132020	26379.974760988386	1098.3269971929
6	132141	26404.965905769107	2026.2166303356
6	132147	26407.073387671014	196.55330240493
6	132170	26412.258420911278	445.46699250807
6	132184	26414.2626180434	195.30447684216
6	132203	26417.411526090684	447.10046899095
6	132270	26430.593893765689	898.77435620846
6	132302	26436.166318286613	1066.2688662577
6	132322	26440.653806541424	1959.4480222082
6	132629	26501.383697885123	955.40250199154
6	132794	26533.689095180701	7522.5013510112
6	132983	26571.303553564974	528.40608712897
6	133118	26599.214066050326	325.09475137037
6	133123	26600.359284819973	1468.451709328
6	133126	26601.275098066342	783.82565697829
6	133147	26606.26133846532	781.17600241003
6	133152	26607.346823461199	1034.9936056268
6	133162	26609.037255505691	2835.0510008754
6	133184	26613.047024587387	314.4196275596
6	133239	26624.134690740456	323.10322109236
6	133298	26637.142660446588	1473.7810136437
6	133315	26642.409440275869	1237.0380634751
6	133327	26644.438185033976	550.62237854895
6	133342	26647.368485555547	318.71056523656
6	133357	26650.601672887458	2090.0794562534
6	133708	26719.132854681767	1693.4893056187
6	134010	26777.064880034629	4214.1687117417
6	134025	26780.011497052316	1268.2491026715
6	134094	26794.484595944662	1264.88925418
6	134115	26799.706445572735	6256.2641260464
6	134153	26807.493758043856	1431.7529633191
6	134199	26814.926006691461	802.77970976974
6	134233	26822.885779118191	239.17571614239
6	134294	26835.655235999569	226.5731030239
6	134348	26847.319389790042	1670.1689885017
6	134364	26851.584147721181	1203.4258734686
6	134397	26856.954040832934	1187.6078027217
6	134413	26860.800113445172	1947.7661491538
6	134435	26864.627872246714	175.53615326881
6	134438	26865.440267416021	6923.7074566344
6	134446	26867.215526551498	4391.1246004459
6	134608	26896.929855832204	515.31942821636
6	134686	26912.090510698808	714.0071089341
6	134724	26919.677995288586	164.857621191
6	134727	26920.83912378096	1424.3886015425
6	134783	26930.29361008753	154.98755865625
6	134791	26932.237856186954	1428.124243701
6	134796	26933.03835826789	3679.7502148167
6	134804	26934.978300924161	152.75262489592
6	134815	26937.729493955085	521.69423983097
6	134926	26959.433554453335	523.74224139121
6	134939	26962.521225036705	517.14035189347
6	134947	26964.354317583634	725.07448759016
6	134965	26968.600372252266	1425.2668647405
6	135041	26984.101821480715	400.41488429616
6	135051	26985.935325915297	395.3290472721
6	135054	26987.056988546369	2836.2993238987
6	135079	26992.002513434203	732.79660514756
6	135111	26998.111038692319	1179.8520065838
6	135204	27017.448969210054	408.63081142206
6	135237	27024.369881853204	1862.1514333545
6	135240	27025.422841282584	709.60832856434
6	135243	27026.293207887117	3187.9744769443
6	135251	27028.351033087004	2478.9367379967
6	135281	27034.436230433754	686.72265072162
6	135284	27035.615190510474	1851.2412943018
6	135301	27040.136313832761	177.09011056298
6	135306	27040.957230865699	928.69506548465
6	135330	27046.999119058275	921.31227279734
6	135356	27050.509051318025	3506.908681594
6	135376	27054.472294260306	685.10711521572
6	135409	27061.813164634841	1791.3389722445
6	135422	27064.63133294082	5831.477728407
6	135437	27067.461543921965	346.24419452525
6	135440	27068.322384350865	174.45257160212
6	135514	27082.688289819962	888.03688809121
6	135535	27087.711716221483	695.72625606151
6	135551	27091.182679950097	176.10658749975
6	135586	27097.902727667826	352.10733086419
6	135638	27107.831559430741	1609.5706807109
6	135710	27121.738869266611	3834.9437410988
6	135738	27127.815468381372	6910.3716873777
6	135819	27145.027585963375	710.99313358046
6	135825	27146.954963002197	192.63605884799
6	135891	27160.993904912223	343.41064995168
6	135894	27161.834852783971	4152.7805539738
6	135900	27163.790432489321	647.98120464145
6	135922	27168.071185491823	2041.5336390133
6	135935	27171.029080311798	899.04278729412
6	135992	27180.122111135006	1348.7801144591
6	136166	27214.178232123641	565.65806669739
6	136175	27217.465463602946	3369.0495736337
6	136232	27227.931521840983	5863.2706259264
6	136235	27228.938091767796	551.30630178163
6	136302	27241.887853369147	1984.380802057
6	136332	27249.841110399023	179.29041066846
6	136339	27250.970917128988	872.41706037513
6	136376	27257.864747304033	521.01072348123
6	136387	27260.411459887709	1775.3335595745
6	136420	27267.625086795568	339.26357604259
6	136427	27268.806460818491	161.52246040551
6	136440	27271.778973174776	342.43636272658
6	136445	27272.955007106188	1310.4312766064
6	136453	27274.85092389838	5677.7299268144
6	136493	27283.362753039256	327.88862441313
6	136496	27284.521263043519	1295.0803171458
6	136539	27293.947865136558	1749.8588644966
6	136584	27303.229781295019	752.36252667048
6	136742	27332.57798160206	493.51331357693
6	136765	27337.788439109582	2841.8677289115
6	136785	27342.023810677636	1502.3286409672
6	136904	27365.126010624352	506.19624601373
6	137042	27392.360068408062	525.54540135768
6	137057	27395.345315288601	717.59429463308
6	138442	27667.285278544043	2389.4050882228
6	138552	27688.968275612245	2403.8821446806
6	138575	27694.046634878895	1307.9544012643
6	138649	27709.339845513577	438.83772553353
6	138656	27710.480513780309	600.10539817953
6	138736	27726.456382734259	757.98475729516
6	138749	27729.357053248329	1271.835662448
6	138766	27732.410507751187	565.26113724904
6	138839	27746.418550141461	3592.2747209454
6	138853	27750.077308406427	1466.7010955918
6	138863	27752.033693669575	735.00408854177
6	138929	27765.915625512439	725.74829257204
6	138944	27769.015582855909	3194.9205855645
6	138974	27775.02402405285	1416.7683824217
6	138984	27777.090535351101	348.96532820986
6	139017	27786.086715579711	268.3313901164
6	139022	27787.191492539391	213.79153427537
6	139025	27788.110666370977	188.15031289565
6	139074	27797.19270993483	3171.7368039353
6	139118	27805.1356548643	1620.8753736371
6	139516	27882.904738556617	3796.090134801
6	139541	27888.131056190772	160.64114209862
6	139559	27891.817887770037	5521.698445519
6	139577	27895.675953390567	599.78717278169
6	139582	27896.655387029635	598.30769469959
6	139610	27902.464828320338	1353.194347248
6	139620	27904.676864892828	1858.1939408591
6	139645	27909.579882725725	601.39853749922
6	139692	27918.568499626803	738.85184545792
6	139724	27924.562423995908	731.8916570496
6	139901	27961.691821415005	5221.0920552419
6	139944	27969.309352159993	541.54961118261
6	139961	27972.390487222586	517.43286252251
6	140009	27982.301220203219	472.26520477437
6	140025	27986.224479613947	372.30106389479
6	140035	27987.953760073456	746.43968383412
6	140084	27998.469656094936	2058.4190601951
6	140125	28007.120000302447	7033.8127919273
6	140174	28017.353022344531	5341.6443295364
6	140205	28022.555405473272	1599.7154569061
6	140264	28033.64003238057	1213.3957309609
6	140267	28034.569913084276	1500.0837886247
6	140287	28038.38376353414	726.19795276674
6	140303	28042.192069726466	727.99102759553
6	140324	28047.612634380935	707.81153080617
6	140338	28049.802084715134	128.05927602117
6	140350	28053.554235269623	1030.3219669969
6	140355	28054.506055593426	109.90701211849
6	140380	28059.536800148552	113.1902403353
6	140395	28062.563196029635	2208.9473811955
6	140418	28067.264522195448	2455.5853248175
6	140485	28080.398216831245	4606.3268663225
6	140488	28081.331278221429	113.11635604561
6	140518	28087.489931168248	598.66136560464
6	140599	28104.267632911381	450.43550480998
6	140719	28125.552297388511	1401.5653911244
6	140728	28128.613099244265	457.08617836736
6	140795	28140.861139192926	1402.094253485
6	140811	28144.672367768204	880.53550603631
6	140824	28147.538229113939	1049.518992162
6	140959	28175.284261254718	857.58902377051
6	140975	28177.120250494624	1167.7286474238
6	140995	28181.13806128682	984.88394378333
6	141153	28212.459933349057	1002.6006174148
6	141186	28219.790760776712	152.00803844361
6	141203	28222.738817726015	259.11639468527
6	141408	28266.645278477235	2333.9967156613
6	141422	28270.602802803306	606.86829289846
6	141567	28295.665584150173	2095.448769193
6	141574	28296.57183171523	588.69691633289
6	141736	28330.914933246217	174.65351508158
6	141867	28356.093524396263	482.95675888664
6	142348	28450.007426902869	2464.68787739
6	142353	28450.882993848653	556.63716414559
6	142621	28507.188535010565	419.05782301385
6	142797	28539.52384732182	895.55208955887
6	142854	28550.708660496333	1486.1244297841
6	143302	28637.68125651277	1695.7287215037
6	143307	28638.82991026969	297.1573078123
6	143337	28644.588216489491	263.53775777116
6	143362	28649.850377312054	245.05140962355
6	143372	28651.786247990777	236.12373550544
6	143449	28666.883919703712	211.93807396734
6	143456	28667.917668135495	501.49369732938
6	143473	28672.850996998915	3894.5900590683
6	143488	28675.750379647439	937.21347196072
6	143491	28676.831154701238	770.27395129737
6	143565	28691.007845876303	4148.4494756722
6	143686	28714.374924475732	1683.3434460944
6	143860	28747.586635191677	1386.6738912275
6	143865	28748.725953212971	526.63000768396
6	143925	28760.654504674239	257.49738999543
6	143963	28768.846239605391	1531.7277663995
6	143979	28772.815808760127	1333.3695183161
6	144204	28817.042702778272	1024.4565048711
6	144269	28829.510986020259	835.98162365919
6	144329	28843.325201904151	272.07355991899
6	144354	28848.640699810285	245.93886291915
6	144362	28850.354005489994	243.25694054965
6	144370	28852.38832554783	1937.697793104
6	144428	28862.290634041682	236.75130628772
6	144465	28869.108209784639	1158.0229211089
6	144478	28872.020076500935	1030.1898074389
6	144535	28883.043490639641	1007.0137794949
6	144585	28895.571883074227	483.72104503709
6	144597	28897.418320933856	473.52029527257
6	144617	28901.416858339809	461.48111454011
6	144639	28905.425192143151	246.43392230417
6	144645	28907.344645543152	2103.4825476245
6	144687	28915.551173756307	1740.5175534286
6	144708	28920.492395211326	3082.3675800396
6	144711	28921.320211960597	735.53472162367
6	144724	28924.177703403996	211.56404390248
6	144735	28927.258308329561	208.16463378072
6	144738	28928.143492495676	206.9712544026
6	144814	28942.277519111464	1529.5257765767
6	144819	28943.224583782757	431.75321511081
6	144844	28948.349583762826	430.98336847134
6	144984	28976.185213747657	2277.8949013546
6	144992	28978.346589756514	1365.4218030015
6	145023	28984.955648699531	5842.6789909058
6	145178	29013.765933280475	1196.04277538
6	145334	29043.400888939051	451.27663808536
6	145401	29055.900659225265	902.42960894129
6	145409	29057.824824874045	4673.7710268882
6	145432	29062.775538975874	424.57109756456
6	145469	29071.691350691802	685.28360817505
6	145489	29075.655312607568	416.72834076277
6	145545	29086.438742001205	407.85003126146
6	145558	29089.391063094269	1176.4238349792
6	145566	29091.56957529284	1774.2754831509
6	145629	29103.4663543912	388.283560897
6	145944	29165.388015757165	1093.3228197671
6	145957	29168.621927304695	1085.9840872447
6	145971	29172.910245001352	1197.3610372628
6	145986	29175.804904295912	1198.5321808454
6	146020	29182.133378020617	385.7340643173
6	146083	29195.321621470749	228.44669096282
6	146285	29233.6459580813	4582.425762284
6	146311	29239.851350228063	1240.2306571706
6	146317	29241.973221186775	2160.5269172747
6	146344	29247.340503176994	235.4394732975
6	146355	29250.141743374004	668.86705181659
6	146530	29283.215943949061	929.84848659855
6	146552	29287.149983160614	905.21696666056
6	146588	29295.141986992719	859.34078103028
6	146634	29302.999944486139	2821.5794613798
6	146654	29308.77751789833	1391.2904161064
6	146659	29309.774802937215	620.36832621027
6	146776	29333.425791120013	204.48061521636
6	146822	29341.408322456616	843.04528840941
6	146828	29343.30108526698	586.36285622235
6	146844	29347.341537899194	404.3415228266
6	146903	29358.652405037681	839.845681885
6	146922	29361.675341441991	1865.4610166258
6	147054	29387.979554915471	186.58850086114
6	147100	29398.591964127817	196.59448956253
6	147108	29400.395729359933	1888.6954014942
6	147127	29403.515338440467	197.94081532809
6	147161	29410.967619202607	1795.9802122707
6	147207	29420.593473614608	866.01186392615
6	147215	29422.529944362719	580.44628397819
6	147253	29430.713121040858	421.85100163993
6	147264	29433.211669796373	1293.230622359
6	147269	29434.154359668999	586.23406447416
6	147281	29436.255744877405	403.3629248222
6	147309	29442.529193430247	854.86027123452
6	147319	29444.50524076395	402.10130315069
6	147385	29457.088983169704	594.71778148697
6	147416	29461.733559894509	597.89717053619
6	147475	29474.658225048467	198.7331756354
6	147500	29479.732650035287	838.08829529738
6	147586	29496.142443558615	3714.9767988188
6	147711	29525.743675371582	411.19775969152
6	147714	29526.828173210515	786.41896178895
6	147728	29528.906106851013	381.70566483617
6	147801	29546.011326113479	1307.9031753297
6	147823	29550.455173556736	759.66968208836
6	147840	29553.603411836779	760.59651748652
6	147945	29570.640101653474	375.18226460607
6	147985	29578.836249362069	2079.9096009862
6	148056	29591.798649974675	378.42062041836
6	148077	29596.851429967624	1486.3845619659
6	148084	29597.835399910291	1795.2823740072
6	148101	29603.054675722631	604.71735623368
6	148116	29605.721420820286	362.03794829354
6	148119	29606.917882183423	605.10883840073
6	148124	29608.069030020429	3222.5710908292
6	148130	29610.000458174522	578.44688196447
6	148194	29621.883705248354	167.92783932771
6	148214	29625.838379866021	170.62541738948
6	148234	29629.905067662844	173.00623854006
6	148254	29633.947677674653	363.54870801155
6	148364	29655.56680782516	171.81699307349
6	148421	29666.927277188324	175.92374122783
6	148494	29682.084964790981	1285.5985292954
6	148913	29764.165134166406	850.54735387807
6	149031	29787.812628086229	1043.2791917788
6	149054	29792.926303002556	643.18398369869
6	149097	29802.167899332513	247.44568762542
6	149110	29805.218070236911	2399.9460831162
6	149270	29837.20117973615	465.95707839819
6	149273	29838.314052933963	259.40379969845
6	149295	29844.308892305331	636.48689667203
6	149313	29848.369390644828	859.00007476065
6	149431	29870.934815409169	1267.3868409406
6	149485	29880.893537528296	618.86283481562
6	149515	29886.722705320124	836.76918884425
6	149540	29894.049354469259	621.51299245441
6	149555	29897.045737850336	253.42210666001
6	149774	29936.454459456583	220.25627070233
6	149991	29978.852998560151	1047.3266575544

