version 2
run Second_exit_8-8-20191114-11:42:45-8954
attr configname Second_exit_8
attr datetime 20191114-11:42:45
attr experiment Second_exit_8
attr inifile omnetpp.ini
attr iterationvars ""
attr iterationvarsf ""
attr measurement ""
attr network ResponseTimeNetwork
attr processid 8954
attr repetition 8
attr replication #8
attr resultdir results
attr runnumber 8
attr seedset 8
param **.Source.interArrivalTime exponential(5s)
param **.jobPriority bernoulli(0.6)
param **.PS.serviceTimeU1 "uniform(0.8s, 1.2s)"
param **.PS.serviceTimeU2 "uniform(1.8s, 2.2s)"
param **.SS1.serviceTime exponential(1s)
param **.SS2.serviceTime exponential(1.2s)
param **.PS.exitProbability bernoulli(0.8)

vector 0 ResponseTimeNetwork.QueueU2 queueLength:vector ETV
attr interpolationmode sample-hold
attr title "queue length, vector"
vector 1 ResponseTimeNetwork.sink lifeTimeU2:vector ETV
attr interpolationmode none
attr title "lifetime of arrived jobs U2, vector"
attr unit s
vector 2 ResponseTimeNetwork.sink totalServiceTimeU2:vector ETV
attr interpolationmode none
attr title "the total time spent  by arrived jobs U2, vector"
attr unit s
vector 3 ResponseTimeNetwork.sink lifeTime:vector ETV
attr interpolationmode none
attr title "lifetime of arrived jobs, vector"
attr unit s
vector 4 ResponseTimeNetwork.sink totalServiceTime:vector ETV
attr interpolationmode none
attr title "the total time spent  by arrived jobs, vector"
attr unit s
vector 5 ResponseTimeNetwork.QueueU1 queueLength:vector ETV
attr interpolationmode sample-hold
attr title "queue length, vector"
vector 6 ResponseTimeNetwork.SS1 queueLength:vector ETV
attr interpolationmode sample-hold
attr title "queue length, vector"
vector 7 ResponseTimeNetwork.sink lifeTimeU1:vector ETV
attr interpolationmode none
attr title "lifetime of arrived jobs U1, vector"
attr unit s
vector 8 ResponseTimeNetwork.sink totalServiceTimeU1:vector ETV
attr interpolationmode none
attr title "the total time spent  by arrived jobs U1, vector"
attr unit s
vector 9 ResponseTimeNetwork.SS2 queueLength:vector ETV
attr interpolationmode sample-hold
attr title "queue length, vector"
0	50209	10000.566910394995	164
0	50213	10000.90363374363	165
0	50214	10001.543094418725	164
0	50218	10001.657259588611	165
0	50219	10002.52531183899	164
0	50223	10003.193756794523	165
0	50230	10003.645524384583	166
0	50232	10003.881454075237	167
0	50233	10004.605706633223	166
0	50242	10006.593105032172	167
0	50243	10006.669017893882	166
0	50251	10008.63841626911	165
0	50255	10009.779421212813	166
0	50256	10009.783147761007	165
0	50259	10010.61400361896	164
0	50310	10020.486304483748	165
0	50352	10027.91741418163	166
0	50359	10029.085696502384	167
0	50415	10039.608077933458	168
0	50417	10039.783761917222	169
0	50472	10052.227190470753	168
0	50490	10056.102611167134	167
0	50493	10057.118619673011	166
0	50501	10059.04706315525	165
0	50509	10061.020280844775	164
0	50513	10061.445608991619	165
0	50514	10062.111746986267	164
0	50520	10062.948732304645	165
0	50524	10064.356521953792	164
0	50527	10065.394192618468	163
0	50530	10066.445312111975	162
0	50536	10067.409517682931	163
0	50541	10068.435439693196	164
0	50542	10068.498906627727	163
0	50548	10068.796500120461	164
0	50552	10070.459736853895	163
0	50560	10072.289748080784	162
0	50566	10072.994993335602	163
0	50571	10073.808729074885	164
0	50572	10074.154043197503	163
0	50581	10075.822536335341	164
0	50582	10076.269804493395	163
0	50588	10076.889434183739	164
0	50590	10077.041203118114	165
0	50594	10078.017584275698	164
0	50598	10078.733335330837	165
0	50599	10078.83484426398	164
0	50603	10078.870498097309	165
0	50609	10081.115404454677	164
0	50615	10081.802774675451	165
0	50620	10082.294296824778	166
0	50621	10082.844304670638	165
0	50629	10084.916838829464	164
0	50632	10085.775669330603	163
0	50636	10086.439512008504	164
0	50637	10086.906652548781	163
0	50641	10086.948302661864	164
0	50643	10087.202659079232	165
0	50644	10087.896552255249	164
0	50653	10088.965079867514	165
0	50655	10089.275178908034	166
0	50656	10089.712759111972	165
0	50664	10091.846665397344	164
0	50667	10093.019483461382	163
0	50671	10093.723024885862	164
0	50672	10094.138067174761	163
0	50676	10094.305612537851	164
0	50677	10094.97343985528	163
0	50680	10096.078299038916	162
0	50686	10096.509714632091	163
0	50691	10097.842522762265	164
0	50692	10097.91533599539	163
0	50698	10098.783112752581	164
0	50702	10099.787624634767	163
0	50705	10100.639007073978	162
0	50714	10101.891863990011	163
0	50715	10102.583906919754	162
0	50721	10102.799496915024	163
0	50725	10104.404819308466	162
0	50733	10106.334016678448	161
0	50737	10107.108436616612	162
0	50738	10107.351371353551	161
0	50746	10109.543943697832	160
0	50755	10111.084579992386	161
0	50757	10111.174479713845	162
0	50758	10111.675408494718	161
0	50764	10112.037608355197	162
0	50773	10114.488681101858	161
0	50777	10115.340660731274	162
0	50778	10115.439599541168	161
0	50782	10115.583268209896	162
0	50783	10116.296764376725	161
0	50791	10118.211423619615	160
0	50795	10118.250997282836	161
0	50799	10119.138111139826	162
0	50803	10120.313292959484	161
0	50807	10121.387953987924	162
0	50808	10121.432447721495	161
0	50814	10121.874601107296	162
0	50818	10123.493215636595	161
0	50821	10124.540138824808	160
0	50835	10127.122401300902	161
0	50836	10127.794208581338	160
0	50844	10129.455503637774	159
0	50847	10130.372096981911	158
0	50850	10131.266397770645	157
0	50853	10132.314286276476	156
0	50857	10132.708019653824	157
0	50858	10133.409623784629	156
0	50862	10134.004523771882	157
0	50863	10134.46073627133	156
0	50867	10134.501290165877	157
0	50868	10135.469493486696	156
0	50872	10136.213845730055	157
0	50873	10136.430385032167	156
0	50876	10137.32521385193	155
0	50880	10137.359911926031	156
0	50881	10138.421039000583	155
0	50884	10139.571155951695	154
0	50887	10140.388450930511	153
0	50890	10141.259038500545	152
0	50894	10141.452672650346	153
0	50895	10142.358895108347	152
0	50899	10142.739178854777	153
0	50901	10143.183527386213	154
0	50903	10143.375919591634	155
0	50904	10143.460620932897	154
0	50908	10144.563595665077	155
0	50909	10144.588711455335	154
0	50912	10145.392482843493	153
0	50916	10145.594599317755	154
0	50917	10146.304620029555	153
0	50920	10147.33545643516	152
0	50923	10148.32693911452	151
0	50929	10148.715555595829	152
0	50931	10149.024395225164	153
0	50933	10149.149337932429	154
0	50937	10150.520333482848	153
0	50941	10150.851972540325	154
0	50945	10151.668521144544	155
0	50950	10152.000444980901	156
0	50957	10153.046841539246	157
0	50973	10156.732311864627	156
0	50976	10157.662659104598	155
0	50989	10160.385219546278	154
0	50997	10162.448459254542	153
0	51000	10163.31570141554	152
0	51004	10163.466608764524	153
0	51006	10163.886443087551	154
0	51013	10164.919251306477	155
0	51014	10165.489445921649	154
0	51022	10167.352813498825	153
0	51026	10168.35667146575	154
0	51027	10168.359067338389	153
0	51036	10169.522196955653	154
0	51037	10170.557362230179	153
0	51045	10172.795976636801	152
0	51053	10174.509878565427	151
0	51059	10175.345483833983	152
0	51061	10175.345969133095	153
0	51066	10176.624978065749	154
0	51067	10176.664707879685	153
0	51070	10177.861752528474	152
0	51079	10179.633113895318	153
0	51080	10179.766491017546	152
0	51084	10180.168858732746	153
0	51088	10180.541152637813	154
0	51102	10183.818198020626	153
0	51105	10184.618676564433	152
0	51129	10189.948902782276	153
0	51130	10190.025063709692	152
0	51134	10190.416027960239	153
0	51153	10193.168523481704	154
0	51162	10195.8069403187	153
0	51178	10198.57998921031	154
0	51267	10214.963484503905	155
0	51274	10218.031734221575	154
0	51283	10219.71456451852	155
0	51284	10220.088504606073	154
0	51288	10220.154324237964	155
0	51295	10221.315911899114	156
0	51296	10221.861295022123	155
0	51305	10223.143911018468	156
0	51306	10224.08388980623	155
0	51310	10224.452026805295	156
0	51311	10224.930154931318	155
0	51315	10225.390408945999	156
0	51316	10225.83296385422	155
0	51320	10226.390562940186	156
0	51321	10226.654845593363	155
0	51327	10227.525961465458	156
0	51332	10227.850580846276	157
0	51333	10228.781906647194	156
0	51342	10230.349767721336	157
0	51343	10230.809216744877	156
0	51346	10231.950995439622	155
0	51349	10232.897591567277	154
0	51353	10233.568109175752	155
0	51354	10233.960130355093	154
0	51362	10236.212514052871	153
0	51371	10237.209849745052	154
0	51373	10237.55852729177	155
0	51374	10238.077538976776	154
0	51383	10239.367630557898	155
0	51384	10240.012754072765	154
0	51387	10240.814240030902	153
0	51391	10241.279590737674	154
0	51393	10241.367955878837	155
0	51400	10242.774176781092	156
0	51401	10242.982788103498	155
0	51404	10243.821823409996	154
0	51408	10244.07137022589	155
0	51409	10244.683708916749	154
0	51413	10244.90590418856	155
0	51419	10246.590367281395	154
0	51423	10246.785089901376	155
0	51424	10247.661550649679	154
0	51428	10247.674010390123	155
0	51429	10248.670614627986	154
0	51433	10248.921264215498	155
0	51435	10249.03859819703	156
0	51439	10249.376421177491	157
0	51444	10250.110794951002	158
0	51445	10250.342708094096	157
0	51448	10251.148090263693	156
0	51451	10252.141768288942	155
0	51454	10252.947966640307	154
0	51458	10253.392669628724	155
0	51459	10254.107916544708	154
0	51463	10255.22793122434	155
0	51464	10255.247818612544	154
0	51468	10255.312782583362	155
0	51470	10255.626416729827	156
0	51471	10256.141417746576	155
0	51474	10256.946349194045	154
0	51478	10257.029109120949	155
0	51479	10257.919893613881	154
0	51483	10258.753761617016	155
0	51484	10258.892209268505	154
0	51487	10259.820995284388	153
0	51491	10260.451199803706	154
0	51492	10260.810132510172	153
0	51496	10261.133468085369	154
0	51497	10261.789504419876	153
0	51500	10262.931829471005	152
0	51503	10263.909370129606	151
0	51506	10264.837225585202	150
0	51509	10265.651897918297	149
0	51513	10265.718745782589	150
0	51515	10266.38082210745	151
0	51516	10266.715414620148	150
0	51519	10267.680976231633	149
0	51523	10267.808383339398	150
0	51525	10268.581823481414	151
0	51526	10268.617749722911	150
0	51529	10269.464234350579	149
0	51533	10269.812556100889	150
0	51540	10270.81049449177	151
0	51551	10273.31384958751	150
0	51562	10275.21524879186	151
0	51566	10276.535886484435	150
0	51569	10277.485986016276	149
0	51578	10279.351204412636	150
0	51579	10279.521483269757	149
0	51585	10279.908375786903	150
0	51600	10283.570041056623	151
0	51601	10283.621320850453	150
0	51605	10283.657738389592	151
0	51614	10285.155070830772	152
0	51623	10287.763463103916	151
0	51631	10289.580533484607	150
0	51640	10291.05654040359	151
0	51641	10291.547186683914	150
0	51664	10296.836298744525	149
0	51668	10297.182513066859	150
0	51675	10298.095863436338	151
0	51676	10299.161738335579	150
0	51680	10299.279696306526	151
0	51687	10300.716594739945	152
0	51688	10301.053836302883	151
0	51697	10302.068946587982	152
0	51698	10303.138860474392	151
0	51701	10303.994132103822	150
0	51705	10304.629507592013	151
0	51756	10313.99401763711	152
0	51785	10319.301277295162	153
0	51790	10319.92578993133	154
0	51803	10322.262513721738	155
0	51804	10323.34727779669	154
0	51812	10325.206086465952	153
0	51816	10325.620419412596	154
0	51834	10327.445483590002	155
0	51864	10333.894447677354	156
0	51896	10341.472944214897	155
0	51904	10343.297195003232	154
0	51917	10344.978454317814	155
0	51964	10355.26371780937	154
0	51973	10356.822266760993	155
0	51974	10357.361123666497	154
0	51977	10358.440626142224	153
0	51985	10360.426136134336	152
0	51988	10361.443636784567	151
0	51997	10363.027316512399	152
0	51999	10363.341802009899	153
0	52000	10363.437722170683	152
0	52004	10363.563375776842	153
0	52011	10364.608754923921	154
0	52017	10366.809392339228	153
0	52025	10368.72800002308	152
0	52028	10369.776117612658	151
0	52036	10371.96385028507	150
0	52040	10372.532389548743	151
0	52041	10372.870757288536	150
0	52045	10373.524240948126	151
0	52047	10373.544045555252	152
0	52048	10373.844628818477	151
0	52051	10374.904761650278	150
0	52055	10375.201383259996	151
0	52057	10375.271005837599	152
0	52058	10375.746715543843	151
0	52061	10376.923415046423	150
0	52065	10377.237139557959	151
0	52066	10377.933645101688	150
0	52072	10378.316359923215	151
0	52077	10379.564470418109	152
0	52078	10380.069270022544	151
0	52087	10381.922888422925	152
0	52088	10382.011593120317	151
0	52091	10383.159634388755	150
0	52100	10384.06240951261	151
0	52102	10384.705984440528	152
0	52103	10385.069836818478	151
0	52109	10385.532962746423	152
0	52114	10386.324723032782	153
0	52115	10386.988659284687	152
0	52131	10389.975556430134	153
0	52174	10397.062583517531	154
0	52317	10426.113659637937	153
0	52320	10427.034149472931	152
0	52324	10427.243876017927	153
0	52325	10427.95304574692	152
0	52329	10427.986588527124	153
0	52330	10428.943418221505	152
0	52333	10429.812966242483	151
0	52336	10430.617285109175	150
0	52340	10431.226997161617	151
0	52341	10431.728557576289	150
0	52350	10432.664266943821	151
0	52361	10435.60889054784	150
0	52365	10436.219735728421	151
0	52366	10436.626675583473	150
0	52370	10436.832384996659	151
0	52377	10438.626885207696	152
0	52378	10438.77731883624	151
0	52392	10441.103919285967	152
0	52398	10442.676683257012	151
0	52411	10446.174952793824	150
0	52420	10447.353693271736	151
0	52431	10448.482031568289	152
0	52502	10461.23652711515	153
0	52510	10463.077393345691	154
0	52552	10472.554512710919	153
0	52556	10473.158600228038	154
0	52557	10473.457562173487	153
0	52566	10474.551942286425	154
0	52567	10475.25130978986	153
0	52570	10476.064840337218	152
0	52574	10476.337233443634	153
0	52590	10480.095228384112	152
0	52601	10481.207030514548	153
0	52621	10485.491923108069	154
0	52622	10486.096800366744	153
0	52635	10487.069274621143	154
0	52667	10495.073063677503	153
0	52678	10496.283857039314	154
0	52747	10511.033604784076	153
0	52755	10512.775927789275	152
0	52758	10513.930303830512	151
0	52767	10515.22134754511	152
0	52768	10515.959861694041	151
0	52777	10516.940778900753	152
0	52778	10517.72843682016	151
0	52787	10518.665725864086	152
0	52788	10519.438077111214	151
0	52792	10519.750653824299	152
0	52796	10520.282265071401	153
0	52800	10521.437719103924	152
0	52804	10521.981347975033	153
0	52805	10522.535004046883	152
0	52814	10524.414450475988	153
0	52815	10524.512722359084	152
0	52821	10525.410679946579	153
0	52825	10526.679518818062	152
0	52831	10527.39089335792	153
0	52835	10528.572250459667	152
0	52841	10528.759626309712	153
0	52843	10529.221002474958	154
0	52847	10530.594526795156	153
0	52860	10533.657439735949	152
0	52868	10535.389647693883	151
0	52871	10536.277495750084	150
0	52875	10536.339467775157	151
0	52877	10536.431732040182	152
0	52879	10536.547904581731	153
0	52880	10537.295136488366	152
0	52884	10537.306206262975	153
0	52891	10538.311990031144	154
0	52893	10538.886080766559	155
0	52894	10539.174036194241	154
0	52897	10540.135000323734	153
0	52901	10540.141444337411	154
0	52902	10541.183519546731	153
0	52905	10542.316186151697	152
0	52909	10542.331065802556	153
0	52911	10542.633071390974	154
0	52912	10543.123660768705	153
0	52915	10543.985263852912	152
0	52919	10544.103599288247	153
0	52921	10544.502621024026	154
0	52922	10544.84242472951	153
0	52926	10545.319998921157	154
0	52927	10545.965568182195	153
0	52931	10546.283766063731	154
0	52932	10546.935167990854	153
0	52936	10547.213732964285	154
0	52937	10547.989966428043	153
0	52940	10548.861604450779	152
0	52944	10548.869705731545	153
0	52946	10549.090965005436	154
0	52947	10549.751679470526	153
0	52950	10550.738611018328	152
0	52954	10551.154703773428	153
0	52961	10552.274076543136	154
0	52962	10552.908841861361	153
0	52966	10553.056542373629	154
0	52977	10555.837240965613	153
0	52980	10556.679897119053	152
0	52984	10557.077523717641	153
0	52986	10557.089271295069	154
0	52987	10557.632186216716	153
0	52991	10557.711833160034	154
0	52992	10558.593761061918	153
0	52996	10558.950765432884	154
0	52997	10559.773862561531	153
0	53000	10560.612778693571	152
0	53004	10560.75501772155	153
0	53006	10561.264421597902	154
0	53007	10561.508045907173	153
0	53011	10562.608940466223	154
0	53012	10562.632472567953	153
0	53015	10563.439813973423	152
0	53018	10564.35158493318	151
0	53021	10565.211402747914	150
0	53024	10566.032012500934	149
0	53028	10566.125961338738	150
0	53030	10566.2269079968	151
0	53031	10567.214620459959	150
0	53035	10567.77795622351	151
0	53036	10568.03160128253	150
0	53040	10568.537057038533	151
0	53041	10568.897924419813	150
0	53047	10569.039992804958	151
0	53052	10570.613108663418	152
0	53053	10571.26767454347	151
0	53057	10572.068671038356	152
0	53064	10572.625625804528	153
0	53066	10572.726612656305	154
0	53067	10573.273339333519	153
0	53073	10574.305499738078	154
0	53078	10574.727964304622	155
0	53079	10575.556480728131	154
0	53082	10576.378545089852	153
0	53096	10578.874825680324	154
0	53102	10580.610062147252	153
0	53116	10583.302863124199	154
0	53117	10583.73103286954	153
0	53120	10584.733054384257	152
0	53129	10586.769141203609	153
0	53130	10586.910717988427	152
0	53138	10589.160664274305	151
0	53142	10589.323669447208	152
0	53143	10590.205038911611	151
0	53152	10591.863056070064	152
0	53154	10592.313305695304	153
0	53178	10595.757061396898	154
0	53185	10596.889200649002	155
0	53199	10600.621506305546	154
0	53214	10602.141544090866	155
0	53219	10603.6023740587	156
0	53231	10607.14520772681	155
0	53239	10609.193024259194	154
0	53242	10610.123265509627	153
0	53253	10611.370601056991	154
0	53262	10613.941156655497	153
0	53265	10614.848352136317	152
0	53279	10617.000355031752	153
0	53281	10617.379178761662	154
0	53282	10617.558419307734	153
0	53285	10618.734893128875	152
0	53288	10619.565595396183	151
0	53292	10619.840194232096	152
0	53299	10620.967652204614	153
0	53305	10622.946254572778	152
0	53314	10624.007409541415	153
0	53338	10628.594725259544	154
0	53357	10632.809531005419	153
0	53383	10637.232063264858	154
0	53469	10653.752974352422	155
0	53474	10654.397271127946	156
0	53501	10660.804012145237	155
0	53504	10661.768928853744	154
0	53508	10662.069658390489	155
0	53509	10662.679183538207	154
0	53512	10663.692424666458	153
0	53515	10664.720582486452	152
0	53519	10664.770965413329	153
0	53532	10666.319958897583	154
0	53544	10668.499036601685	155
0	53601	10678.862145073371	156
0	53621	10683.317778078213	157
0	53633	10686.678878398468	156
0	53636	10687.639126330191	155
0	53640	10688.32136916193	156
0	53641	10688.755663306681	155
0	53645	10689.533867959011	156
0	53646	10689.834936714029	155
0	53650	10690.09226361638	156
0	53651	10690.797622128619	155
0	53654	10691.828942152249	154
0	53657	10692.747461156776	153
0	53661	10693.7061531537	154
0	53662	10693.89893568209	153
0	53665	10695.032822887363	152
0	53669	10695.780165649799	153
0	53670	10695.979618823292	152
0	53673	10696.900281929082	151
0	53677	10697.519275926315	152
0	53678	10697.955198637905	151
0	53682	10698.286305964053	152
0	53683	10699.046406654871	151
0	53686	10700.152943705997	150
0	53692	10700.191424545162	151
0	53694	10700.404372111459	152
0	53699	10701.705573468533	153
0	53701	10701.917449774528	154
0	53702	10702.356977775922	153
0	53706	10702.859206697845	154
0	53707	10703.400165030776	153
0	53711	10704.172451350839	154
0	53718	10705.031020785233	155
0	53722	10705.159634386978	156
0	53724	10705.370191705532	157
0	53726	10705.387324754731	158
0	53731	10705.640405350381	159
0	53735	10706.330592428032	160
0	53739	10707.591607166125	159
0	53742	10708.789913223727	158
0	53748	10709.350341060694	159
0	53753	10710.204256307995	160
0	53759	10711.761795599988	159
0	53763	10711.923846845831	160
0	53764	10712.57999013676	159
0	53768	10712.976990669427	160
0	53769	10713.562867099928	159
0	53773	10713.909853389179	160
0	53780	10715.632627967775	161
0	53781	10715.664725203203	160
0	53785	10715.746899044187	161
0	53786	10716.725615040163	160
0	53789	10717.841868824369	159
0	53793	10718.228499134856	160
0	53794	10718.90274676005	159
0	53803	10720.176252882515	160
0	53809	10721.650147664683	159
0	53813	10722.000912934329	160
0	53819	10723.46185521646	159
0	53822	10724.313652730589	158
0	53831	10725.612573540381	159
0	53833	10725.745823563292	160
0	53835	10725.860124439978	161
0	53836	10726.324153626194	160
0	53844	10728.586831415766	159
0	53850	10729.024979148562	160
0	53855	10730.046731064839	161
0	53856	10730.683986350749	160
0	53859	10731.629482068163	159
0	53862	10732.486380787608	158
0	53866	10733.005521296673	159
0	53868	10733.440772280901	160
0	53869	10733.572940761638	159
0	53872	10734.743056349033	158
0	53875	10735.825905592875	157
0	53879	10736.466202948864	158
0	53880	10736.74643043051	157
0	53883	10737.783301591822	156
0	53886	10738.94256225158	155
0	53899	10742.169675121033	154
0	53908	10743.142372789269	155
0	53910	10743.446115634917	156
0	53917	10744.465502715794	157
0	53928	10745.470764482153	158
0	53945	10750.544060258984	157
0	53953	10752.261001576993	156
0	53959	10753.178849203174	157
0	53964	10753.394680849028	158
0	53965	10754.194820461374	157
0	53974	10755.899266242578	158
0	53975	10755.942387798194	157
0	53983	10758.154169299218	156
0	53992	10759.780139956088	157
0	53993	10760.099218986228	156
0	53999	10760.288806578406	157
0	54004	10761.989396781436	158
0	54005	10762.218659173556	157
0	54008	10763.037298873205	156
0	54014	10763.866875436389	157
0	54018	10765.281697398283	156
0	54022	10765.677689469519	157
0	54023	10766.122505754464	156
0	54029	10766.665639560811	157
0	54033	10768.12722379132	156
0	54036	10768.989928678282	155
0	54039	10769.870859035429	154
0	54043	10770.145698307456	155
0	54044	10770.943731889639	154
0	54050	10771.810600074745	155
0	54055	10772.184044376958	156
0	54056	10773.163055703927	155
0	54059	10774.200134825379	154
0	54062	10775.153595268119	153
0	54065	10775.979167042624	152
0	54069	10776.596046201853	153
0	54070	10777.131028566181	152
0	54074	10777.587769389908	153
0	54075	10778.044320132721	152
0	54078	10779.159679192628	151
0	54082	10780.115604817795	152
0	54083	10780.157918196216	151
0	54086	10781.00483310255	150
0	54089	10782.171385735504	149
0	54092	10783.232496978853	148
0	54096	10783.526911678179	149
0	54098	10783.714834299954	150
0	54100	10783.870355077219	151
0	54102	10783.910987066159	152
0	54103	10784.27252607052	151
0	54107	10784.82229392511	152
0	54108	10785.281552406352	151
0	54112	10785.948811435751	152
0	54113	10786.430233073372	151
0	54116	10787.516571184851	150
0	54119	10788.520695741147	149
0	54122	10789.38574842545	148
0	54126	10789.787367669737	149
0	54127	10790.267836818516	148
0	54130	10791.1100150933	147
0	54133	10791.920891628086	146
0	54136	10792.798165793854	145
0	54139	10793.929813425101	144
0	54142	10795.017409477055	143
0	54146	10795.692149382033	144
0	54153	10796.492130789062	145
0	54154	10797.03861605753	144
0	54160	10797.826138015635	145
0	54164	10799.083049653516	144
0	54168	10799.435552528445	145
0	54170	10800.078094266374	146
0	54171	10800.262738725495	145
0	54174	10801.226196965434	144
0	54178	10802.355401000526	145
0	54179	10802.38937021992	144
0	54182	10803.298188106667	143
0	54190	10804.245520201656	144
0	54200	10806.237912314108	145
0	54202	10806.252299723525	146
0	54214	10808.000484316751	147
0	54221	10808.531758847059	148
0	54228	10809.520389764317	149
0	54235	10811.192022955333	150
0	54239	10812.852178086479	149
0	54243	10812.970890981674	150
0	54250	10814.00373109695	151
0	54252	10814.125110815101	152
0	54254	10814.349365289141	153
0	54255	10814.774618187872	152
0	54259	10815.300288333101	153
0	54261	10815.403513322986	154
0	54262	10815.655082386592	153
0	54266	10816.103702247798	154
0	54275	10816.781740749116	155
0	54280	10818.586862666543	156
0	54281	10818.591202640766	155
0	54294	10821.751542240521	154
0	54297	10822.751365482668	153
0	54300	10823.914258737909	152
0	54304	10823.997286553332	153
0	54306	10824.298063570263	154
0	54307	10825.053684346797	153
0	54328	10828.919419058729	154
0	54332	10830.275423335982	153
0	54335	10831.394438915932	152
0	54339	10831.408956784342	153
0	54340	10832.336845117481	152
0	54343	10833.181664059544	151
0	54347	10833.564103944667	152
0	54359	10835.432940272025	153
0	54365	10837.522801836441	152
0	54376	10839.199290811413	153
0	54395	10843.97471424318	152
0	54398	10844.782513644873	151
0	54404	10845.261247464652	152
0	54418	10847.945020560907	153
0	54430	10851.261583147803	152
0	54441	10852.925931562637	153
0	54450	10854.836913647456	152
0	54454	10855.766593453174	153
0	54455	10856.017356936959	152
0	54466	10858.317395423098	153
0	54471	10858.533172141371	154
0	54472	10859.187528108572	153
0	54475	10860.325036782631	152
0	54483	10861.157662038995	153
0	54500	10864.141193779589	154
0	54517	10867.882039361923	155
0	54535	10870.885945286023	156
0	54574	10878.24381473602	157
0	54579	10879.056808540466	158
0	54580	10879.87952551548	157
0	54598	10883.795296645301	156
0	54611	10885.648318747975	157
0	54616	10886.894384843563	158
0	54620	10887.928820854004	157
0	54623	10888.84236063645	156
0	54627	10889.135701972702	157
0	54633	10890.753443987059	156
0	54637	10890.848534793344	157
0	54638	10891.906186841006	156
0	54642	10893.055793698294	157
0	54643	10893.086744465815	156
0	54647	10894.141699292604	157
0	54648	10894.238576994879	156
0	54651	10895.159675874697	155
0	54660	10896.405270063942	156
0	54661	10897.269490992693	155
0	54672	10898.540526992354	156
0	54677	10899.59441216385	157
0	54678	10900.039166018875	156
0	54694	10902.227912077366	157
0	54703	10904.890670300224	156
0	54711	10906.831216464606	155
0	54719	10908.941129828751	154
0	54730	10910.013505513857	155
0	54732	10910.180806171014	156
0	54751	10914.977745034865	155
0	54754	10915.87662288206	154
0	54757	10916.917556501127	153
0	54765	10918.671909118019	152
0	54768	10919.51152900983	151
0	54774	10920.545034129443	152
0	54778	10921.611646343715	151
0	54782	10921.858450681016	152
0	54783	10922.806498367566	151
0	54787	10923.602384241063	152
0	54788	10923.679005520645	151
0	54791	10924.618238435074	150
0	54795	10925.522963777354	151
0	54796	10925.558949139196	150
0	54802	10925.756221059996	151
0	54804	10926.137503982556	152
0	54809	10927.212646887854	153
0	54810	10927.562627986021	152
0	54814	10927.904999313596	153
0	54815	10928.450722623378	152
0	54821	10929.170697476918	153
0	54826	10930.243009426827	154
0	54827	10930.553633577511	153
0	54836	10932.136701835509	154
0	54837	10932.511427958258	153
0	54841	10932.670740938895	154
0	54848	10933.835986465127	155
0	54850	10934.243497294134	156
0	54851	10934.277657746193	155
0	54854	10935.230723705837	154
0	54858	10935.588039467106	155
0	54865	10936.468434332287	156
0	54866	10937.219078697586	155
0	54870	10938.178133835405	156
0	54871	10938.240754891695	155
0	54880	10939.27337045857	156
0	54881	10940.01116163353	155
0	54890	10941.224458837566	156
0	54891	10942.018196387539	155
0	54894	10943.048860003377	154
0	54897	10943.959366573902	153
0	54900	10944.910730899261	152
0	54909	10946.80422630465	153
0	54910	10946.943057307457	152
0	54914	10946.998240433014	153
0	54916	10947.086311240965	154
0	54925	10948.610441724467	155
0	54934	10950.864779435234	154
0	54937	10951.884572247365	153
0	54946	10953.002510395895	154
0	54947	10953.679649883551	153
0	54960	10956.844095856739	152
0	54964	10956.921027857149	153
0	54971	10958.292791616416	154
0	54972	10958.48766328855	153
0	54980	10960.507676567366	152
0	54984	10960.602187182015	153
0	54986	10960.708246031829	154
0	54987	10961.494091998083	153
0	54990	10962.541942076241	152
0	54998	10964.432680746489	151
0	55004	10964.988877734616	152
0	55008	10966.338725041174	151
0	55012	10966.812618506732	152
0	55013	10967.418841983699	151
0	55016	10968.349326741644	150
0	55020	10968.663854801097	151
0	55021	10969.235603865837	150
0	55024	10970.243216704713	149
0	55028	10970.948539916941	150
0	55029	10971.297526861025	149
0	55032	10972.481707442408	148
0	55036	10972.549039308165	149
0	55038	10972.857737792034	150
0	55040	10972.908171739514	151
0	55041	10973.324788626419	150
0	55044	10974.306771375374	149
0	55048	10974.755460824873	150
0	55055	10976.447101798575	151
0	55056	10976.6267140903	150
0	55062	10976.91723768796	151
0	55066	10978.351145745017	150
0	55072	10978.885844277313	151
0	55077	10980.16773884032	152
0	55078	10980.564748856374	151
0	55082	10980.782167969909	152
0	55083	10981.38096059062	151
0	55087	10981.441218414437	152
0	55088	10982.245681690094	151
0	55094	10982.709698097589	152
0	55098	10984.136103561283	151
0	55107	10985.234971174391	152
0	55108	10986.151359246154	151
0	55111	10987.24665393936	150
0	55115	10987.360675773468	151
0	55116	10988.106459328574	150
0	55119	10989.192471510959	149
0	55125	10989.600069153172	150
0	55130	10990.687966054138	151
0	55131	10990.991676480831	150
0	55140	10992.278236321408	151
0	55141	10992.942056498999	150
0	55144	10993.882142689681	149
0	55148	10994.692624914287	150
0	55149	10994.838576117294	149
0	55153	10995.655526611358	150
0	55154	10995.670216153884	149
0	55158	10995.797845065107	150
0	55159	10996.583318066174	149
0	55168	10998.384210761784	150
0	55169	10998.619941067087	149
0	55172	10999.677671624763	148
0	55176	11000.746793538551	149
0	55178	11000.756533438539	150
0	55179	11000.764470313439	149
0	55188	11001.810682503471	150
0	55190	11002.008167546003	151
0	55191	11002.874905691898	150
0	55197	11003.338216664738	151
0	55199	11003.575837235543	152
0	55204	11004.349052945943	153
0	55205	11004.823321970223	152
0	55208	11005.859481283973	151
0	55214	11006.125369935955	152
0	55218	11007.658653115153	151
0	55227	11009.052581311381	152
0	55229	11009.253271838953	153
0	55230	11009.332051039997	152
0	55239	11010.646675382077	153
0	55240	11011.227932298693	152
0	55243	11012.07623735801	151
0	55251	11014.00614901087	150
0	55255	11014.846837159609	151
0	55256	11014.947824186317	150
0	55265	11016.826753742564	151
0	55266	11017.099721035871	150
0	55275	11018.180612113754	151
0	55277	11018.565744122964	152
0	55278	11019.198692999545	151
0	55284	11019.714976977195	152
0	55288	11021.044687563132	151
0	55294	11021.221803399252	152
0	55299	11022.571485022361	153
0	55300	11023.267704932156	152
0	55309	11024.255715086343	153
0	55311	11024.257155633887	154
0	55312	11025.256408141318	153
0	55315	11026.196244176614	152
0	55319	11026.208227067611	153
0	55326	11027.49491519328	154
0	55332	11029.495137952591	153
0	55335	11030.576128526075	152
0	55339	11030.700670727189	153
0	55353	11033.13603416144	154
0	55367	11036.942426385586	153
0	55375	11038.797705439799	152
0	55379	11039.075816029537	153
0	55395	11042.950432288222	152
0	55413	11045.75342764137	153
0	55425	11047.081551515633	154
0	55467	11057.185801341704	153
0	55520	11068.470694641902	152
0	55548	11074.390680231195	151
0	55554	11074.895575974196	152
0	55573	11077.871250120844	153
0	55631	11089.928898511179	154
0	55637	11091.678527574375	153
0	55661	11095.656656603587	154
0	55667	11097.614528378233	153
0	55675	11099.379224915936	152
0	55678	11100.400177129864	151
0	55682	11100.964003340823	152
0	55689	11101.63739646744	153
0	55690	11102.616342715494	152
0	55693	11103.434910935484	151
0	55696	11104.594098587934	150
0	55700	11104.959236073221	151
0	55702	11105.552009924781	152
0	55703	11105.588534926571	151
0	55707	11106.230633376294	152
0	55708	11106.45985918757	151
0	55714	11107.250181470567	152
0	55716	11107.481488839804	153
0	55731	11110.824148691238	154
0	55732	11110.90949779455	153
0	55741	11112.316351013188	154
0	55752	11114.931033716392	153
0	55755	11115.976689275395	152
0	55764	11117.088382557304	153
0	55765	11117.617151887197	152
0	55776	11118.896530729784	153
0	55780	11120.466347836372	152
0	55783	11121.4242293728	151
0	55792	11123.170566614489	152
0	55793	11123.446166357532	151
0	55796	11124.476849239267	150
0	55807	11126.268676172881	151
0	55811	11127.328167606279	150
0	55822	11128.463209010918	151
0	55827	11129.700672298034	152
0	55833	11130.279295097031	153
0	55850	11134.584749235254	152
0	55853	11135.482047989074	151
0	55871	11137.711344767408	152
0	55873	11137.899265753736	153
0	55885	11141.488621232141	152
0	55894	11142.802840476479	153
0	55896	11143.207864092824	154
0	55897	11143.548346252129	153
0	55900	11144.45458554313	152
0	55904	11144.803028455966	153
0	55905	11145.350315957278	152
0	55909	11145.655932422032	153
0	55910	11146.212792092137	152
0	55914	11146.474150157696	153
0	55915	11147.102091441624	152
0	55918	11148.300518702943	151
0	55921	11149.269131933659	150
0	55925	11149.380153271952	151
0	55926	11150.208381635923	150
0	55929	11151.045371829201	149
0	55932	11151.865151732456	148
0	55936	11151.908722071051	149
0	55938	11152.264624347149	150
0	55944	11153.927292877105	149
0	55948	11154.159655070076	150
0	55949	11154.87754092975	149
0	55953	11155.314113936838	150
0	55954	11155.892633628514	149
0	55957	11157.068135669403	148
0	55960	11157.98406199817	147
0	55963	11158.972694683116	146
0	55967	11159.160127723793	147
0	55969	11159.420484277941	148
0	55971	11159.51930021119	149
0	55972	11159.968667841464	148
0	55976	11160.090404834146	149
0	55977	11161.152205070335	148
0	55981	11161.331916621066	149
0	55982	11162.074585167266	148
0	55985	11163.044078323751	147
0	55989	11163.974260454291	148
0	55990	11164.228930101677	147
0	55996	11164.854171987698	148
0	55998	11165.138876945482	149
0	56002	11166.414681302331	148
0	56005	11167.462208916939	147
0	56008	11168.571837517846	146
0	56011	11169.677287849452	145
0	56015	11169.759032675281	146
0	56016	11170.543240949738	145
0	56020	11170.94383026473	146
0	56021	11171.364256488851	145
0	56025	11171.536873368669	146
0	56026	11172.544008169922	145
0	56030	11172.710012275658	146
0	56031	11173.585303830302	145
0	56035	11174.437007583768	146
0	56036	11174.669862601387	145
0	56040	11175.047427920948	146
0	56042	11175.361945383757	147
0	56044	11175.463577017004	148
0	56045	11175.738104767392	147
0	56048	11176.778294057066	146
0	56052	11177.381392183765	147
0	56053	11177.838553246988	146
0	56056	11178.656753528995	145
0	56065	11180.032266445846	146
0	56067	11180.280693191536	147
0	56069	11180.880954615063	148
0	56070	11180.932368122732	147
0	56079	11182.428529763086	148
0	56080	11183.019652485327	147
0	56084	11183.777784818211	148
0	56085	11183.950971273744	147
0	56089	11183.980690463026	148
0	56096	11185.341744274759	149
0	56097	11186.254618284424	148
0	56103	11187.025669159351	149
0	56113	11188.498806291666	150
0	56114	11189.322489469444	149
0	56128	11191.721207284335	150
0	56129	11192.181214358883	149
0	56138	11193.969310425501	150
0	56139	11194.168444092611	149
0	56143	11194.400461547033	150
0	56144	11195.155822397994	149
0	56153	11196.512204218114	150
0	56154	11197.250069020169	149
0	56162	11199.527735530252	148
0	56171	11200.802913743304	149
0	56172	11201.299045518825	148
0	56176	11202.312207537098	149
0	56177	11202.492769970412	148
0	56183	11203.165793532767	149
0	56195	11204.565524869575	150
0	56214	11209.611470303165	149
0	56217	11210.435499720408	148
0	56220	11211.451912149826	147
0	56241	11214.384884735264	148
0	56245	11214.621058954203	149
0	56252	11217.320327206553	148
0	56255	11218.218398172633	147
0	56264	11219.880729174874	148
0	56265	11219.956052463633	147
0	56268	11221.042541763038	146
0	56272	11221.719036629861	147
0	56279	11222.085716043751	148
0	56281	11222.180932589034	149
0	56282	11223.165345786177	148
0	56290	11225.377190203816	147
0	56293	11226.326135407426	146
0	56296	11227.229352800865	145
0	56300	11227.642118111461	146
0	56301	11228.348446545042	145
0	56305	11228.925896662557	146
0	56306	11229.444010974038	145
0	56310	11229.754516624636	146
0	56311	11230.415101727787	145
0	56314	11231.285995365623	144
0	56318	11232.011544005644	145
0	56322	11232.353601380601	146
0	56326	11233.280434795693	145
0	56335	11234.765500853645	146
0	56336	11235.349564162773	145
0	56345	11236.573789878647	146
0	56346	11237.243854024951	145
0	56352	11238.100053898298	146
0	56357	11238.420480746765	147
0	56358	11239.359248506967	146
0	56361	11240.468646986634	145
0	56372	11242.471145240636	146
0	56377	11243.277976995571	147
0	56378	11243.899732820261	146
0	56387	11244.824113990348	147
0	56388	11245.889855416715	146
0	56396	11247.938730097412	145
0	56399	11248.997977717909	144
0	56403	11249.609725352803	145
0	56404	11249.952718655056	144
0	56408	11250.279213114671	145
0	56409	11251.04257040847	144
0	56413	11251.22991382582	145
0	56419	11252.722861208523	144
0	56423	11252.741176320811	145
0	56424	11253.838948833512	144
0	56428	11254.014928190585	145
0	56434	11255.538656659553	144
0	56437	11256.564349828417	143
0	56440	11257.73269506743	142
0	56444	11258.076554019489	143
0	56446	11258.216923020946	144
0	56447	11258.554039291142	143
0	56451	11259.402006694816	144
0	56452	11259.501387627459	143
0	56456	11259.609712302865	144
0	56457	11260.320507358982	143
0	56460	11261.279187534879	142
0	56469	11262.523735345353	143
0	56470	11263.043690222818	142
0	56474	11263.503605846731	143
0	56475	11264.01962220123	142
0	56478	11265.202827998008	141
0	56487	11266.531279161799	142
0	56488	11267.136669777091	141
0	56494	11267.782888855598	142
0	56496	11267.887344705565	143
0	56498	11268.002339641611	144
0	56502	11268.907861159685	143
0	56505	11270.040849210638	142
0	56509	11270.165890263787	143
0	56511	11270.860875885814	144
0	56512	11271.032434546519	143
0	56515	11271.880798059553	142
0	56519	11272.018294593662	143
0	56520	11272.971673985794	142
0	56523	11273.839345037043	141
0	56527	11274.34636702877	142
0	56528	11274.866889227778	141
0	56531	11276.050617859084	140
0	56534	11276.867647376694	139
0	56537	11277.817285625022	138
0	56540	11278.658377853446	137
0	56544	11278.853266893215	138
0	56546	11279.220313142601	139
0	56548	11279.764459436685	140
0	56549	11279.764599157349	139
0	56553	11280.336938861205	140
0	56554	11280.708297562544	139
0	56557	11281.698750005607	138
0	56561	11281.809276286943	139
0	56562	11282.73173120128	138
0	56566	11283.42372038846	139
0	56567	11283.6777968923	138
0	56571	11283.845379536393	139
0	56573	11284.15945972377	140
0	56579	11285.62829751879	139
0	56583	11286.208965045271	140
0	56584	11286.488416705691	139
0	56588	11286.905230995713	140
0	56595	11288.152289958061	141
0	56597	11288.459766128826	142
0	56598	11288.551261640285	141
0	56604	11289.074443575183	142
0	56608	11290.412076971998	141
0	56611	11291.373671576419	140
0	56617	11291.944471317052	141
0	56621	11293.225783390684	140
0	56625	11293.520222044301	141
0	56629	11293.809639332018	142
0	56634	11295.179952836082	143
0	56635	11295.501257640442	142
0	56644	11296.760939648398	143
0	56645	11297.830190532787	142
0	56648	11298.750064220598	141
0	56652	11298.869447595922	142
0	56658	11300.932149398273	141
0	56664	11301.52426947003	142
0	56668	11302.606708882882	141
0	56671	11303.57083506672	140
0	56674	11304.732772912963	139
0	56677	11305.825964955746	138
0	56686	11307.147967835712	139
0	56687	11307.608274156361	138
0	56690	11308.554377616423	137
0	56696	11308.997097164921	138
0	56701	11309.84893646615	139
0	56702	11310.449836180306	138
0	56713	11311.691719072942	139
0	56727	11314.687534588151	138
0	56743	11316.865436654261	139
0	56750	11317.929088642248	140
0	56752	11317.973031228546	141
0	56758	11318.353266817719	142
0	56789	11324.976284464296	143
0	56826	11332.006254941477	144
0	56827	11332.759656140809	143
0	56830	11333.784915644066	142
0	56839	11335.1786913704	143
0	56840	11335.909515039572	142
0	56843	11336.714123818973	141
0	56847	11336.846253505911	142
0	56848	11337.755282376656	141
0	56854	11338.197480637337	142
0	56863	11339.087797445709	143
0	56965	11360.249685076203	142
0	56968	11361.262527532082	141
0	56982	11363.228233784491	142
0	56988	11365.133039921102	141
0	57018	11369.795929453474	142
0	57030	11371.419510315591	143
0	57091	11382.687357270764	144
0	57126	11389.077279449732	145
0	57159	11396.295931691047	146
0	57166	11398.978808809491	145
0	57184	11401.162455707028	146
0	57246	11413.763359225294	147
0	57253	11414.888660789721	148
0	57298	11423.278502310251	149
0	57330	11428.793429923633	150
0	57354	11434.255125598097	149
0	57365	11435.965479027441	150
0	57389	11440.787797104987	149
0	57402	11443.900318906224	148
0	57413	11445.264097877545	149
0	57415	11445.891399769966	150
0	57424	11447.767105279631	149
0	57430	11448.552742270342	150
0	57434	11449.574229216158	149
0	57443	11451.291913669881	150
0	57444	11451.549846332196	149
0	57452	11453.537764988702	148
0	57455	11454.582332245495	147
0	57459	11454.639307780111	148
0	57470	11457.594641157941	147
0	57479	11458.482354150839	148
0	57510	11465.194233784129	147
0	57518	11467.340571353075	146
0	57527	11468.647553226559	147
0	57528	11469.210310883403	146
0	57544	11472.299401596897	147
0	57548	11473.411849091344	146
0	57551	11474.293128417295	145
0	57559	11476.381663640544	144
0	57567	11478.398744966883	143
0	57571	11478.506432790969	144
0	57575	11478.670578453245	145
0	57582	11480.064608939159	146
0	57584	11480.11057131762	147
0	57591	11481.126116973891	148
0	57601	11482.943008124723	149
0	57617	11486.410750095779	148
0	57626	11487.763288578568	149
0	57637	11490.838867504568	148
0	57648	11491.837386107278	149
0	57672	11497.404502597684	148
0	57676	11498.165315160474	149
0	57677	11498.301860085549	148
0	57690	11499.891873358889	149
0	57697	11501.436597106168	150
0	57704	11503.391014237003	149
0	57715	11504.695188091549	150
0	57734	11509.361427881056	149
0	57738	11510.030527697713	150
0	57739	11510.210904587572	149
0	57743	11510.501281705269	150
0	57744	11511.062885835534	149
0	57748	11511.517329089816	150
0	57755	11512.5512687661	151
0	57766	11515.045163420448	150
0	57775	11516.102097238239	151
0	57776	11516.82738168654	150
0	57779	11517.813422403624	149
0	57788	11519.286642336641	150
0	57789	11519.855521199246	149
0	57793	11520.551606223573	150
0	57799	11521.880444030323	149
0	57802	11523.032674051122	148
0	57806	11523.107872636071	149
0	57807	11524.009304233221	148
0	57810	11524.869749214546	147
0	57814	11525.069418029731	148
0	57815	11525.954003463731	147
0	57819	11526.768583305286	148
0	57820	11527.027268857368	147
0	57824	11527.080500708805	148
0	57825	11527.985355402295	147
0	57833	11529.752818104391	146
0	57837	11530.209565522304	147
0	57838	11530.782194055569	146
0	57842	11530.79087436511	147
0	57844	11531.59398284665	148
0	57845	11531.901959208631	147
0	57849	11532.396997960926	148
0	57850	11532.737756160879	147
0	57854	11532.738834292682	148
0	57856	11533.336620602657	149
0	57857	11533.934590339707	148
0	57860	11534.834943848522	147
0	57863	11535.934372320165	146
0	57866	11536.975501404283	145
0	57872	11537.458099150579	146
0	57877	11538.648535981032	147
0	57879	11538.75244451083	148
0	57880	11538.954352421639	147
0	57884	11539.100017188573	148
0	57888	11539.766526480548	149
0	57895	11540.217973644925	150
0	57975	11557.174377932406	151
0	57981	11558.765586316541	150
0	57984	11559.644866083145	149
0	57988	11559.767429919666	150
0	57994	11561.801086082637	149
0	58002	11563.847311291519	148
0	58006	11564.260688961252	149
0	58007	11564.740071755137	148
0	58010	11565.720117796354	147
0	58018	11567.616002038356	146
0	58027	11568.660311274434	147
0	58029	11568.70070528626	148
0	58030	11569.412768895786	147
0	58033	11570.51047802088	146
0	58041	11572.363184965823	145
0	58050	11573.592747674686	146
0	58052	11573.732894073287	147
0	58054	11574.478457200962	148
0	58055	11574.691399820291	147
0	58058	11575.537369576518	146
0	58064	11576.055037455372	147
0	58066	11576.215923357439	148
0	58071	11577.220720841764	149
0	58072	11577.601413266689	148
0	58081	11579.310768849351	149
0	58082	11579.313700594988	148
0	58085	11580.47751039942	147
0	58088	11581.404795985066	146
0	58091	11582.54389095153	145
0	58095	11583.009618440432	146
0	58097	11583.443850821733	147
0	58098	11583.564881330778	146
0	58102	11583.963335448157	147
0	58104	11584.050666011731	148
0	58105	11584.395904837691	147
0	58109	11584.949643200892	148
0	58110	11585.387889743087	147
0	58113	11586.577966366385	146
0	58117	11586.91138117839	147
0	58118	11587.583990632326	146
0	58122	11587.86895422297	147
0	58124	11587.96417658687	148
0	58125	11588.66936593517	147
0	58129	11588.784721377683	148
0	58130	11589.85165783684	147
0	58134	11590.231508029736	148
0	58136	11590.39671338354	149
0	58137	11590.905076458354	148
0	58140	11591.837124893118	147
0	58144	11592.358233250066	148
0	58145	11592.711354914636	147
0	58149	11592.939928784015	148
0	58151	11593.725215644477	149
0	58152	11593.808617535469	148
0	58156	11594.050630811313	149
0	58157	11594.892149522577	148
0	58161	11595.189592777411	149
0	58162	11595.714262592096	148
0	58165	11596.72046593507	147
0	58169	11597.272367430326	148
0	58173	11597.671959405799	149
0	58177	11598.539001924406	148
0	58186	11599.604059655488	149
0	58187	11600.621968362062	148
0	58190	11601.552905829857	147
0	58198	11603.425740074414	146
0	58204	11603.682699021017	147
0	58209	11605.277697351375	148
0	58210	11605.496245320189	147
0	58214	11605.903479520635	148
0	58218	11606.120120284502	149
0	58222	11607.150250915858	148
0	58225	11608.11132393689	147
0	58229	11608.651532419477	148
0	58231	11608.79296735809	149
0	58232	11609.244412081177	148
0	58236	11609.86140619397	149
0	58237	11610.218201768352	148
0	58243	11611.18450855364	149
0	58252	11613.441586817197	148
0	58260	11615.387919348619	147
0	58269	11616.734481473871	148
0	58270	11617.107365118946	147
0	58273	11618.060593541573	146
0	58277	11618.883029755099	147
0	58278	11619.025249990962	146
0	58282	11619.534101466509	147
0	58283	11619.829409041211	146
0	58287	11620.865987015172	147
0	58288	11621.01933941371	146
0	58292	11621.571045638729	147
0	58293	11622.01608885308	146
0	58296	11622.894786493808	145
0	58300	11623.473464828982	146
0	58304	11623.88217102564	147
0	58309	11624.5323526086	148
0	58311	11624.795596326713	149
0	58312	11624.887456477296	148
0	58316	11624.947161245099	149
0	58323	11626.413015692748	150
0	58330	11627.381282908554	151
0	58331	11628.01831430602	150
0	58334	11629.140692120093	149
0	58342	11631.109928377952	148
0	58348	11632.201685491709	149
0	58353	11633.112931772123	150
0	58354	11633.29266853151	149
0	58357	11634.380543874158	148
0	58368	11635.53501755262	149
0	58370	11635.983003332507	150
0	58377	11637.04898415226	151
0	58386	11639.200056005409	150
0	58389	11640.081602006545	149
0	58393	11640.366316477003	150
0	58400	11640.958771696902	151
0	58401	11641.768847297551	150
0	58404	11642.843261945201	149
0	58408	11643.193123318197	150
0	58409	11643.82404674259	149
0	58413	11644.685248915053	150
0	58414	11644.718275753362	149
0	58418	11644.731630855899	150
0	58424	11646.505091727106	149
0	58433	11647.869039258689	150
0	58434	11648.414167703456	149
0	58438	11648.772326599468	150
0	58439	11649.588987088996	149
0	58448	11650.745196898035	150
0	58450	11650.813951524175	151
0	58451	11651.364689507196	150
0	58454	11652.2868963541	149
0	58457	11653.307554856269	148
0	58461	11654.091975292591	149
0	58462	11654.437863613339	148
0	58466	11654.758533806225	149
0	58468	11655.122124300015	150
0	58469	11655.385244352417	149
0	58473	11655.447328249205	150
0	58474	11656.410900811432	149
0	58478	11657.117061845299	150
0	58479	11657.563038673205	149
0	58483	11657.952169311504	150
0	58484	11658.743943420471	149
0	58487	11659.565357974031	148
0	58490	11660.502883083512	147
0	58493	11661.60920281154	146
0	58496	11662.775917726894	145
0	58500	11663.039589014733	146
0	58502	11663.506002463316	147
0	58503	11663.83538263631	146
0	58507	11664.675200467023	147
0	58508	11664.925391798699	146
0	58511	11665.902427830221	145
0	58514	11666.781851361273	144
0	58517	11667.83680483806	143
0	58520	11668.682554278197	142
0	58523	11669.85257951743	141
0	58526	11670.782168158936	140
0	58529	11671.722022418911	139
0	58532	11672.673644955038	138
0	58535	11673.858547413397	137
0	58539	11674.273842005551	138
0	58541	11674.619296000515	139
0	58543	11674.675230115995	140
0	58544	11674.798069776829	139
0	58547	11675.931692659624	138
0	58551	11676.821197769173	139
0	58553	11676.888346340446	140
0	58554	11677.038576005541	139
0	58558	11677.507612230473	140
0	58559	11678.170253374662	139
0	58562	11679.192784818496	138
0	58565	11680.049273480616	137
0	58576	11681.271603465758	138
0	58580	11681.578383056682	139
0	58582	11681.864200266663	140
0	58587	11682.429056580465	141
0	58591	11682.676568365736	142
0	58593	11682.727449091204	143
0	58610	11685.79129428041	144
0	58615	11686.228036436691	145
0	58619	11686.379779614184	146
0	58626	11687.575847020846	147
0	58631	11688.077275852824	148
0	58635	11688.673215884389	149
0	58645	11690.10958578746	150
0	58649	11691.91533229896	149
0	58658	11693.174498773857	150
0	58660	11693.279251929051	151
0	58666	11693.91296987586	152
0	58671	11694.04130326505	153
0	58710	11702.708553520545	152
0	58723	11704.06645165378	153
0	58805	11720.788477916506	152
0	58808	11721.6069342542	151
0	58818	11722.266378458	152
0	58823	11722.638749578612	153
0	58841	11726.475824356818	154
0	58842	11727.091964870274	153
0	58845	11727.940608472705	152
0	58849	11727.958259264911	153
0	58856	11729.319363547478	154
0	58857	11729.806559184988	153
0	58860	11730.665380828411	152
0	58869	11732.466640411622	153
0	58870	11732.618877293777	152
0	58873	11733.627691684246	151
0	58877	11734.394053853602	152
0	58878	11734.71307141944	151
0	58882	11735.409750101085	152
0	58883	11735.761083662744	151
0	58887	11736.110221918783	152
0	58888	11736.5867920022	151
0	58891	11737.641241721018	150
0	58895	11737.826329179981	151
0	58896	11738.670031099441	150
0	58900	11739.735670268521	151
0	58901	11739.779394111177	150
0	58905	11740.178529019762	151
0	58907	11740.929947755773	152
0	58908	11740.938458073558	151
0	58911	11742.060133358696	150
0	58919	11742.608949531147	151
0	58926	11744.137903507263	152
0	58931	11744.429243355656	153
0	58963	11750.442971101722	154
0	58975	11752.299406303059	155
0	58987	11754.651977884296	156
0	58989	11755.124440654179	157
0	58998	11757.34253871287	156
0	59017	11760.463927150866	157
0	59018	11761.364748749275	156
0	59026	11763.307991595425	155
0	59034	11765.469757000681	154
0	59038	11765.775105650914	155
0	59039	11766.315517954294	154
0	59043	11766.392403962985	155
0	59059	11770.223281106585	154
0	59063	11770.52380723184	155
0	59064	11771.219230129802	154
0	59067	11772.064103930396	153
0	59075	11774.196108559378	152
0	59078	11775.133490510144	151
0	59082	11775.554388653714	152
0	59084	11775.673499645934	153
0	59086	11775.862930979859	154
0	59087	11776.253370090713	153
0	59091	11776.263366143173	154
0	59093	11776.848298615482	155
0	59095	11777.075003319491	156
0	59096	11777.124444441357	155
0	59100	11778.265294372914	156
0	59101	11778.308426264719	155
0	59104	11779.165549081516	154
0	59107	11780.14278071965	153
0	59116	11781.321638436238	154
0	59117	11782.033131466014	153
0	59125	11783.813139546336	152
0	59133	11785.774299130634	151
0	59137	11786.743433941938	152
0	59138	11786.958245943998	151
0	59142	11787.551727455432	152
0	59144	11787.901376743803	153
0	59145	11788.072056479984	152
0	59148	11788.888218481698	151
0	59152	11789.341568174498	152
0	59154	11789.651023028035	153
0	59155	11789.744090388109	152
0	59158	11790.630311845568	151
0	59162	11790.976235981159	152
0	59163	11791.718053943523	151
0	59167	11792.081830903247	152
0	59168	11792.830042107728	151
0	59171	11793.849975139414	150
0	59174	11794.899410228011	149
0	59177	11796.006807437212	148
0	59181	11796.604738226115	149
0	59182	11796.86801761235	148
0	59186	11797.550500012167	149
0	59187	11797.907658731703	148
0	59195	11799.767711921827	147
0	59204	11800.904543757211	148
0	59205	11801.664828237099	147
0	59208	11802.579409927828	146
0	59212	11802.582151784265	147
0	59216	11803.010391378048	148
0	59221	11803.754393952887	149
0	59222	11804.407281735772	148
0	59226	11805.407663320021	149
0	59227	11805.473738518683	148
0	59230	11806.463504989305	147
0	59236	11806.958522273217	148
0	59245	11809.574814132368	147
0	59253	11811.83145847437	146
0	59261	11812.33652347552	147
0	59266	11813.202094116381	148
0	59278	11815.088389642879	149
0	59295	11818.101563642637	150
0	59299	11818.999126193532	149
0	59332	11826.013092113612	148
0	59335	11826.906844536913	147
0	59344	11828.377624979303	148
0	59345	11828.767901519825	147
0	59366	11831.885794253532	148
0	59370	11833.863311360449	147
0	59381	11835.456067164491	148
0	59390	11837.497299158061	147
0	59409	11840.809335975951	148
0	59423	11842.932868821161	149
0	59520	11862.17816902865	150
0	59529	11864.897728717748	149
0	59540	11866.394865639898	150
0	59544	11868.058038601793	149
0	59547	11868.874898923237	148
0	59551	11869.712488930736	149
0	59552	11870.027138936568	148
0	59561	11871.344022277596	149
0	59565	11872.101115425783	150
0	59569	11873.233970687121	149
0	59582	11874.389425016957	150
0	59589	11877.45016391217	149
0	59598	11878.629923114799	150
0	59629	11885.770174244747	149
0	59643	11888.797553365671	150
0	59644	11888.947806584418	149
0	59657	11891.94377801004	148
0	59660	11892.904999436765	147
0	59666	11893.089651868171	148
0	59673	11893.971781915537	149
0	59678	11895.806774128321	150
0	59679	11895.96023638635	149
0	59682	11897.013790489501	148
0	59690	11897.543491682446	149
0	59695	11898.461643423352	150
0	59704	11901.107420391729	149
0	59707	11901.988531230157	148
0	59715	11903.798452499276	147
0	59719	11904.730604584034	148
0	59721	11904.749076695581	149
0	59722	11904.841156430962	148
0	59725	11905.898410848296	147
0	59733	11907.819160898822	146
0	59742	11909.117688836931	147
0	59744	11909.376718363717	148
0	59745	11910.040187118716	147
0	59748	11910.866416302092	146
0	59752	11910.934286505393	147
0	59753	11911.675163249254	146
0	59757	11912.481152237521	147
0	59758	11912.640107461393	146
0	59761	11913.82568291831	145
0	59770	11915.014838372557	146
0	59772	11915.660945381748	147
0	59774	11915.792349960091	148
0	59775	11915.813677538607	147
0	59778	11916.949447787974	146
0	59782	11917.176751153891	147
0	59783	11918.097773669336	146
0	59787	11918.730212205102	147
0	59788	11919.119684315614	146
0	59792	11919.274499318091	147
0	59798	11920.930931936905	146
0	59806	11921.559650778813	147
0	59814	11924.003053631124	148
0	59815	11924.216267832324	147
0	59831	11926.406005387641	148
0	59835	11928.24626992089	147
0	59838	11929.08754521753	146
0	59842	11929.274457062765	147
0	59843	11929.982180894123	146
0	59854	11931.647912821735	147
0	59868	11934.559543642452	146
0	59872	11934.796656390599	147
0	59873	11935.531783899063	146
0	59877	11936.146254276427	147
0	59878	11936.606413990961	146
0	59891	11937.922226524544	147
0	59896	11938.636491432452	148
0	59955	11949.241024541962	149
0	59969	11951.713983860274	150
0	59989	11957.335713409776	149
0	59993	11957.369857664302	150
0	60008	11958.881715084731	151
0	60031	11963.760814819331	152
0	60063	11971.0033706239	151
0	60067	11971.712746570639	152
0	60068	11972.042245018905	151
0	60071	11972.974503986401	150
0	60074	11973.812934592882	149
0	60083	11975.137907220212	150
0	60085	11975.596840355059	151
0	60086	11975.79504997549	150
0	60089	11976.750707686091	149
0	60093	11977.294901572593	150
0	60094	11977.877610224908	149
0	60098	11977.968597148204	150
0	60118	11980.860020539141	151
0	60120	11980.938296749318	152
0	60146	11983.862162670919	153
0	60305	12018.695111667419	152
0	60308	12019.612421885094	151
0	60312	12019.751508657368	152
0	60313	12020.622652381247	151
0	60317	12020.681687412929	152
0	60319	12021.079154317843	153
0	60325	12022.785801579019	152
0	60334	12024.343638130543	153
0	60335	12024.615976116302	152
0	60338	12025.468556544332	151
0	60342	12025.923051256526	152
0	60343	12026.295874026938	151
0	60349	12027.026890370446	152
0	60373	12032.104891809037	151
0	60381	12034.098241063354	150
0	60387	12034.568655823746	151
0	60394	12035.561662833858	152
0	60399	12036.388251339993	153
0	60400	12037.100527321602	152
0	60403	12038.21579791732	151
0	60409	12039.144731885499	152
0	60416	12040.249635113185	153
0	60425	12042.472315041217	152
0	60435	12043.354465336459	153
0	60442	12044.215862872626	154
0	60462	12049.364316602384	153
0	60465	12050.527251543531	152
0	60473	12052.411856429984	151
0	60477	12052.962738970189	152
0	60478	12053.241642156948	151
0	60482	12053.507179920686	152
0	60491	12055.179093078576	153
0	60496	12055.751465619132	154
0	60497	12056.209862855223	153
0	60506	12057.843717912033	154
0	60507	12058.335290591752	153
0	60510	12059.377393152339	152
0	60518	12060.339915394426	153
0	60523	12061.028779079341	154
0	60527	12062.649534250198	153
0	60530	12063.558344577121	152
0	60533	12064.57875273289	151
0	60536	12065.670094324796	150
0	60540	12066.438156778677	151
0	60541	12066.4967513125	150
0	60545	12066.996940517562	151
0	60546	12067.596136508657	150
0	60550	12068.357476969087	151
0	60551	12068.658815374839	150
0	60555	12069.455984020815	151
0	60556	12069.521307773012	150
0	60559	12070.689200455471	149
0	60575	12073.150061396735	150
0	60577	12073.759180081053	151
0	60584	12074.807180461272	152
0	60586	12074.999602336446	153
0	60615	12080.77059871681	152
0	60629	12083.696353183574	153
0	60735	12104.84939902812	152
0	60738	12105.754915706587	151
0	60742	12105.927803507555	152
0	60743	12106.732667545562	151
0	60747	12107.07591135437	152
0	60748	12107.547881935125	151
0	60752	12108.036337093494	152
0	60753	12108.383483275359	151
0	60757	12108.702879101872	152
0	60801	12117.446332592024	153
0	60803	12117.495551822249	154
0	60807	12118.431817283908	153
0	60816	12119.949323098144	154
0	60817	12120.404776883086	153
0	60820	12121.499223817473	152
0	60831	12122.92140119696	153
0	60833	12123.354534314346	154
0	60840	12123.904532113128	155
0	60849	12126.414697245562	154
0	60852	12127.444390132146	153
0	60856	12127.914357791578	154
0	60857	12128.528722862674	153
0	60863	12128.982494998038	154
0	60868	12129.435303035954	155
0	60872	12129.96618966858	156
0	60876	12131.233060645086	155
0	60889	12134.340495864821	154
0	60900	12136.004054052727	155
0	60904	12137.115473668983	154
0	60915	12138.562387919683	155
0	60919	12140.027177936078	154
0	60928	12141.216952471268	155
0	60929	12142.260860452575	154
0	60937	12144.351589545102	153
0	60951	12146.609546634829	154
0	60953	12146.678833726389	155
0	60954	12147.168681938161	154
0	60965	12148.784178615207	155
0	60974	12151.226170046215	154
0	60987	12152.847559624122	155
0	60992	12153.552179885944	156
0	61006	12156.122318855035	157
0	61019	12158.52528747546	158
0	61083	12170.723516686965	159
0	61102	12175.516645363028	158
0	61105	12176.331114505472	157
0	61113	12177.401563238587	158
0	61118	12177.54296104322	159
0	61147	12184.381328219695	158
0	61150	12185.39153520936	157
0	61153	12186.547047867773	156
0	61157	12186.85926170823	157
0	61164	12188.175712157472	158
0	61165	12188.517084072956	157
0	61168	12189.338594273717	156
0	61172	12189.832301949541	157
0	61174	12190.044833049501	158
0	61176	12190.264436332758	159
0	61177	12190.289398449526	158
0	61183	12191.27114798136	159
0	61187	12192.3616301701	158
0	61195	12193.100945515957	159
0	61205	12195.260515786407	160
0	61214	12197.014030141529	159
0	61217	12198.135072662361	158
0	61221	12198.642276345599	159
0	61222	12199.17160012215	158
0	61228	12199.273113025972	159
0	61233	12200.356719911744	160
0	61234	12200.975910937559	159
0	61237	12201.823878978618	158
0	61243	12202.670410617306	159
0	61252	12204.922612615727	158
0	61263	12206.515241872154	159
0	61267	12207.937010895047	158
0	61270	12208.78420750476	157
0	61274	12209.097538302245	158
0	61276	12209.708601776	159
0	61277	12209.78266317952	158
0	61281	12209.806719678469	159
0	61283	12210.084920234861	160
0	61284	12210.773965118132	159
0	61288	12211.237420329093	160
0	61289	12211.840351806912	159
0	61293	12212.346079675862	160
0	61294	12212.693265979789	159
0	61298	12213.024992829415	160
0	61299	12213.891926580347	159
0	61302	12214.96834637323	158
0	61305	12215.785309057921	157
0	61314	12217.157625192701	158
0	61315	12217.950369236949	157
0	61319	12218.054282577183	158
0	61321	12218.386631112666	159
0	61322	12219.001950143143	158
0	61326	12219.400699548033	159
0	61330	12219.501474250451	160
0	61332	12219.690272245703	161
0	61336	12221.075014881748	160
0	61345	12222.401940443139	161
0	61347	12222.765016858308	162
0	61348	12222.863994349032	161
0	61359	12224.058436477065	162
0	61374	12227.204331513081	163
0	61380	12229.466848837543	162
0	61389	12230.877362802247	163
0	61393	12231.259383342884	164
0	61397	12232.41421136526	163
0	61400	12233.414464863535	162
0	61404	12233.472111764924	163
0	61406	12233.711461196662	164
0	61407	12234.281734824046	163
0	61413	12235.04473281279	164
0	61432	12238.023429881702	165
0	61439	12240.133017800707	164
0	61460	12243.486948687544	165
0	61529	12257.659865813477	164
0	61538	12259.600253054955	165
0	61539	12259.601188572643	164
0	61547	12261.595872307157	163
0	61550	12262.584456539674	162
0	61554	12262.64559824368	163
0	61555	12263.404437505601	162
0	61559	12263.856994673479	163
0	61560	12264.214991611762	162
0	61578	12268.211420046872	161
0	61581	12269.032611296194	160
0	61584	12269.961662898267	159
0	61593	12271.15413939681	160
0	61606	12272.662929177381	161
0	61608	12272.76881616715	162
0	61633	12279.437484316397	161
0	61636	12280.355991519019	160
0	61639	12281.367808371279	159
0	61643	12281.811339389024	160
0	61654	12284.497742772344	159
0	61657	12285.551540662776	158
0	61661	12286.527071894231	159
0	61662	12286.693902794234	158
0	61665	12287.688701589833	157
0	61669	12288.021167884536	158
0	61676	12288.780780410312	159
0	61682	12290.845157097614	158
0	61686	12291.139850470847	159
0	61687	12291.846236113234	158
0	61690	12292.757660417593	157
0	61701	12294.139991230559	158
0	61705	12295.362741590719	157
0	61708	12296.235092488545	156
0	61716	12296.800852245597	157
0	61721	12297.309854702597	158
0	61875	12328.981865524556	157
0	61878	12329.966000493019	156
0	61882	12330.095289426586	157
0	61883	12330.890305917393	156
0	61887	12330.913054969163	157
0	61973	12347.538739801028	158
0	62022	12356.363709870221	159
0	62026	12356.997102716465	160
0	62112	12373.996269888122	161
0	62147	12381.435606816579	162
0	62153	12382.786624094995	161
0	62162	12383.892667491545	162
0	62193	12390.6467417698	161
0	62206	12392.398338232499	162
0	62395	12427.317961151989	163
0	62555	12463.2814535258	162
0	62563	12465.459827671166	161
0	62571	12466.212390325242	162
0	62576	12466.954329742364	163
0	62580	12467.065824946556	164
0	62604	12470.736580416426	165
0	62614	12472.383501084092	166
0	62636	12476.660554161154	167
0	62643	12479.667583685054	166
0	62654	12480.955423552461	167
0	62698	12491.096449833515	166
0	62713	12492.408858294845	167
0	62747	12499.393934997822	168
0	62824	12513.814679241784	169
0	62977	12546.274651671632	168
0	62995	12550.086167820788	167
0	63006	12551.036207810052	168
0	63036	12555.881878696406	169
0	63127	12574.390496103124	170
0	63159	12581.405566368034	169
0	63168	12583.415076334689	170
0	63179	12584.378610291134	171
0	63186	12586.715184155352	170
0	63195	12588.264925052813	171
0	63196	12589.027686053294	170
0	63199	12589.952695162281	169
0	63203	12589.983039723578	170
0	63204	12591.099526875712	169
0	63207	12592.232385641769	168
0	63210	12593.214618548532	167
0	63214	12593.753795671829	168
0	63216	12594.07565596096	169
0	63217	12594.411531073009	168
0	63221	12594.68283589473	169
0	63223	12594.814293668444	170
0	63224	12595.28661113434	169
0	63228	12595.986113364427	170
0	63230	12596.240550501066	171
0	63231	12596.400190972877	170
0	63234	12597.295888169077	169
0	63238	12598.14211991759	170
0	63239	12598.156516146068	169
0	63243	12598.178330594805	170
0	63244	12599.098976304815	169
0	63247	12599.971308997613	168
0	63250	12601.074261135296	167
0	63253	12602.099771256247	166
0	63256	12602.950049211705	165
0	63259	12603.785120206108	164
0	63270	12605.773694804081	165
0	63275	12606.190645024823	166
0	63276	12607.247560895668	165
0	63282	12607.791294407068	166
0	63286	12609.094880772443	165
0	63289	12610.041922387728	164
0	63292	12611.21234686595	163
0	63296	12611.38971574493	164
0	63298	12611.497817466353	165
0	63299	12612.035213069679	164
0	63303	12612.395755582922	165
0	63304	12612.840407150114	164
0	63308	12613.055065892462	165
0	63310	12613.825428661817	166
0	63311	12613.964871648947	165
0	63320	12614.911917636079	166
0	63321	12615.834064519374	165
0	63330	12617.324941524458	166
0	63331	12617.63459101102	165
0	63340	12619.140404445553	166
0	63342	12619.791778844749	167
0	63344	12619.812615224541	168
0	63345	12619.828283068599	167
0	63348	12620.891381709339	166
0	63352	12621.152688626689	167
0	63359	12622.34371026003	168
0	63361	12622.446751212267	169
0	63362	12622.628467714941	168
0	63366	12623.025794446824	169
0	63367	12623.79650794013	168
0	63371	12624.628061081428	169
0	63372	12624.853255485432	168
0	63375	12625.86377486155	167
0	63379	12626.207352829917	168
0	63380	12626.967298930945	167
0	63383	12627.921197555555	166
0	63387	12628.236038364982	167
0	63388	12628.773619813161	166
0	63392	12629.202031184532	167
0	63393	12629.969939180432	166
0	63396	12630.878625989394	165
0	63400	12631.425929135452	166
0	63406	12633.015174531997	165
0	63410	12633.375867506247	166
0	63431	12637.907560575162	165
0	63440	12639.463986211527	166
0	63441	12639.860706450571	165
0	63444	12640.988604443767	164
0	63450	12641.80171104686	165
0	63455	12641.916103500482	166
0	63457	12642.30944451847	167
0	63464	12642.849133571191	168
0	63468	12643.182645020752	169
0	63472	12644.926329176841	168
0	63480	12646.927877905839	167
0	63494	12648.978745534783	168
0	63510	12652.989398975637	167
0	63523	12656.17560183328	166
0	63527	12656.900354272457	167
0	63543	12659.976341656375	166
0	63546	12660.983867111023	165
0	63559	12664.407292190253	164
0	63568	12666.069489953519	165
0	63569	12666.299465093262	164
0	63575	12666.359652552797	165
0	63584	12667.950732232584	166
0	63616	12675.228536658792	165
0	63619	12676.336804201884	164
0	63623	12676.418693412801	165
0	63632	12677.489635503629	166
0	63636	12677.630631269512	167
0	63640	12678.14666010356	168
0	63650	12680.148936433317	169
0	63672	12686.016364797355	168
0	63676	12686.421644509657	169
0	63677	12687.129389673249	168
0	63681	12687.568822386206	169
0	63682	12688.201303813105	168
0	63685	12689.365331095421	167
0	63689	12689.618399212189	168
0	63698	12690.785970783813	169
0	63708	12692.482793566695	170
0	63724	12696.094915395473	169
0	63733	12697.531963942991	170
0	63734	12698.083021245953	169
0	63743	12699.381934671999	170
0	63744	12699.993691121937	169
0	63757	12702.989881261216	168
0	63761	12703.387215885154	169
0	63762	12704.019735298642	168
0	63765	12704.933743899372	167
0	63769	12705.651626877301	168
0	63770	12705.73733843552	167
0	63774	12706.369497929009	168
0	63775	12706.686875897144	167
0	63779	12707.554778068314	168
0	63780	12707.882290623673	167
0	63784	12708.065689345068	168
0	63785	12708.861840160341	167
0	63789	12709.29477821326	168
0	63790	12709.980811578185	167
0	63794	12709.999061988119	168
0	63795	12710.977062165328	167
0	63799	12711.039478803434	168
0	63808	12712.892625460895	169
0	63812	12714.213534877972	168
0	63833	12717.582390067681	169
0	63843	12719.869946648691	170
0	63889	12729.564816516136	169
0	63905	12731.779905737788	170
0	63954	12742.293641445656	169
0	63957	12743.107554970366	168
0	63968	12744.288711473075	169
0	63970	12744.853829879858	170
0	63974	12745.949140305688	169
0	63985	12747.195009843534	170
0	63989	12748.774950703198	169
0	63998	12750.327217205435	170
0	63999	12750.726772933976	169
0	64008	12751.704450938583	170
0	64009	12752.488585581036	169
0	64020	12754.731907093987	170
0	64024	12755.595770953467	169
0	64027	12756.400449028296	168
0	64038	12758.048885169366	169
0	64045	12758.607779157368	170
0	64047	12758.636733886955	171
0	64071	12764.191993069334	170
0	64086	12766.217397909423	171
0	64109	12770.457669634364	172
0	64213	12791.352573815327	171
0	64241	12795.533994905095	172
0	64243	12795.627396146681	173
0	64245	12795.729297275729	174
0	64300	12807.02923355312	175
0	64354	12818.338315583545	174
0	64363	12819.49765127535	175
0	64364	12820.311637191626	174
0	64367	12821.324193948566	173
0	64375	12823.129527957889	172
0	64383	12824.816955119336	171
0	64387	12825.276448393187	172
0	64389	12825.685580142615	173
0	64390	12825.71409267761	172
0	64396	12825.961814861221	173
0	64401	12827.777656983561	174
0	64402	12828.00958255796	173
0	64410	12829.873991434241	172
0	64413	12831.021166710427	171
0	64417	12831.157093089496	172
0	64424	12832.543260863086	173
0	64425	12833.00003476335	172
0	64434	12834.199225349359	173
0	64435	12835.007760219148	172
0	64438	12835.835760634265	171
0	64441	12836.922872454452	170
0	64445	12837.473092438681	171
0	64447	12837.559425668548	172
0	64448	12837.82646600582	171
0	64451	12838.736877169612	170
0	64455	12839.518039949331	171
0	64456	12839.737552935596	170
0	64459	12840.598778932973	169
0	64462	12841.448031706608	168
0	64465	12842.453824946436	167
0	64484	12845.493605120768	168
0	64486	12845.677880706468	169
0	64493	12846.562858169766	170
0	64494	12847.551765001158	169
0	64498	12848.342805684888	170
0	64499	12848.404782442714	169
0	64503	12849.051145015245	170
0	64510	12849.819255112415	171
0	64511	12850.303280887159	170
0	64517	12851.34145586718	171
0	64521	12852.262527132465	170
0	64525	12852.896682785003	171
0	64526	12853.315793990216	170
0	64539	12856.458162307518	169
0	64548	12857.42770544034	170
0	64550	12858.007256301918	171
0	64551	12858.211707611533	170
0	64555	12858.595428309475	171
0	64557	12858.772832597864	172
0	64558	12859.018216445355	171
0	64562	12859.19255077112	172
0	64568	12860.830168996157	171
0	64572	12861.207517472505	172
0	64579	12862.748390978605	173
0	64600	12867.296334498433	172
0	64603	12868.379664822446	171
0	64607	12868.954018038049	172
0	64608	12869.492324228549	171
0	64611	12870.560571752825	170
0	64615	12871.073973804842	171
0	64616	12871.377047950086	170
0	64620	12871.612271743803	171
0	64622	12871.898836507862	172
0	64623	12872.311566968319	171
0	64626	12873.465521855616	170
0	64629	12874.323217387275	169
0	64632	12875.484575413411	168
0	64635	12876.408205094339	167
0	64639	12876.530268908316	168
0	64640	12877.53794651447	167
0	64646	12878.425115503236	168
0	64648	12878.490670053285	169
0	64652	12879.638979591393	168
0	64656	12880.308893176772	169
0	64658	12880.625965289433	170
0	64659	12880.704705907182	169
0	64662	12881.628493632247	168
0	64665	12882.718142376338	167
0	64669	12882.95957351483	168
0	64671	12883.609967059532	169
0	64672	12883.799715044313	168
0	64675	12884.649121095204	167
0	64679	12884.696268322495	168
0	64680	12885.771265524217	167
0	64684	12886.680331070332	168
0	64691	12887.228891730852	169
0	64693	12887.745404879553	170
0	64694	12887.985560721216	169
0	64702	12890.084205793367	168
0	64705	12891.26286951719	167
0	64708	12892.248284995706	166
0	64712	12892.405620107322	167
0	64714	12892.814798121203	168
0	64715	12893.170209979789	167
0	64718	12894.292854358779	166
0	64721	12895.182659409532	165
0	64725	12895.370152456771	166
0	64726	12896.027235706022	165
0	64730	12896.710265107561	166
0	64731	12897.010237317031	165
0	64734	12898.204124593885	164
0	64738	12898.455951950196	165
0	64740	12898.809295070512	166
0	64741	12899.183648291287	165
0	64744	12900.337486108915	164
0	64747	12901.503141516597	163
0	64751	12902.25479601737	164
0	64752	12902.378343115711	163
0	64756	12902.572989595119	164
0	64757	12903.412118057405	163
0	64761	12904.036630518471	164
0	64762	12904.586443906335	163
0	64766	12905.414309080829	164
0	64767	12905.711293698067	163
0	64770	12906.558360309864	162
0	64773	12907.472123528423	161
0	64776	12908.364318548946	160
0	64779	12909.25998145981	159
0	64783	12909.476491135295	160
0	64787	12909.890863371235	161
0	64792	12911.237344800439	162
0	64793	12911.276873432717	161
0	64802	12912.688087313621	162
0	64804	12912.726782192934	163
0	64805	12913.370893014654	162
0	64809	12913.495873102384	163
0	64811	12913.824400790925	164
0	64813	12914.108514870697	165
0	64814	12914.517117037869	164
0	64818	12914.661971306537	165
0	64822	12915.231073656174	166
0	64826	12916.649793076015	165
0	64830	12917.006446565163	166
0	64832	12917.085112608706	167
0	64833	12917.627313711739	166
0	64842	12918.99205714423	167
0	64843	12919.863462744526	166
0	64854	12921.373450549194	167
0	64856	12921.557897827012	168
0	64861	12921.849966172166	169
0	64862	12922.906123316906	168
0	64865	12923.919062632475	167
0	64869	12924.180722519037	168
0	64875	12925.574766118046	167
0	64884	12926.737709916346	168
0	64886	12927.258637127189	169
0	64887	12927.522194810737	168
0	64890	12928.46756768186	167
0	64894	12928.581639972472	168
0	64896	12929.320001261304	169
0	64897	12929.657756503451	168
0	64901	12930.104851860523	169
0	64902	12930.686678830686	168
0	64906	12930.778984202076	169
0	64907	12931.595573864284	168
0	64910	12932.480142175186	167
0	64913	12933.581027706399	166
0	64916	12934.464245083521	165
0	64919	12935.543391733582	164
0	64923	12936.206412573887	165
0	64924	12936.528754597402	164
0	64928	12936.742698654136	165
0	64929	12937.537023274473	164
0	64932	12938.427345195937	163
0	64935	12939.330036576803	162
0	64938	12940.490340805392	161
0	64942	12940.717239429191	162
0	64943	12941.38214891028	161
0	64947	12941.958412324549	162
0	64949	12942.255001729697	163
0	64950	12942.475906918816	162
0	64954	12943.270733107079	163
0	64955	12943.564707645274	162
0	64958	12944.527224267519	161
0	64969	12945.921773089504	162
0	64971	12945.981463411106	163
0	64976	12946.657025838261	164
0	64978	12946.718876499792	165
0	64980	12946.859499004368	166
0	64989	12948.25333824014	167
0	64994	12948.691710429631	168
0	64996	12949.245032244352	169
0	64997	12949.649913246524	168
0	65000	12950.460951393903	167
0	65004	12950.640660214651	168
0	65006	12950.858753040495	169
0	65007	12951.572567585171	168
0	65023	12954.411009507984	169
0	65030	12955.116520740119	170
0	65032	12955.340803440255	171
0	65051	12959.265428023939	170
0	65054	12960.256583536849	169
0	65058	12960.47244236843	170
0	65075	12963.871410293181	171
0	65076	12964.234617045675	170
0	65084	12964.949965203349	171
0	65091	12966.253044909601	172
0	65106	12969.095510107691	173
0	65138	12974.410392861067	174
0	65147	12977.580132004494	173
0	65150	12978.4562212072	172
0	65156	12978.880443841441	173
0	65163	12979.789934202199	174
0	65233	12993.448195981093	175
0	65234	12994.376059156346	174
0	65245	12995.391900451894	175
0	65255	12997.595344357258	176
0	65256	12998.407103569868	175
0	65265	12999.585148127628	176
0	65266	13000.319903853877	175
0	65275	13001.865081557586	176
0	65276	13002.518515091917	175
0	65279	13003.428104550081	174
0	65283	13003.78553073099	175
0	65284	13004.53087760775	174
0	65287	13005.595176172691	173
0	65291	13005.946824979974	174
0	65293	13006.0019509313	175
0	65302	13007.51002899978	176
0	65336	13014.83305968015	175
0	65339	13015.91753042216	174
0	65343	13015.995384679687	175
0	65344	13016.94702066897	174
0	65352	13018.901406057519	173
0	65358	13019.629208149412	174
0	65363	13020.027935843779	175
0	65365	13020.267245469417	176
0	65366	13021.055432944619	175
0	65372	13021.943366625751	176
0	65377	13022.237563620639	177
0	65378	13023.353669202946	176
0	65381	13024.158749328147	175
0	65385	13024.825186180945	176
0	65386	13025.307921478491	175
0	65390	13025.969331927818	176
0	65391	13026.170714587778	175
0	65395	13026.482404414404	176
0	65396	13027.356660522767	175
0	65400	13027.61700556927	176
0	65401	13028.195942653776	175
0	65405	13029.111804999351	176
0	65406	13029.267576739159	175
0	65409	13030.154335496448	174
0	65412	13031.131598350465	173
0	65416	13031.190467086788	174
0	65417	13032.256853512827	173
0	65421	13032.428645010324	174
0	65423	13032.891757714212	175
0	65424	13033.267396154407	174
0	65427	13034.360919503741	173
0	65431	13034.421541347283	174
0	65433	13034.781782441503	175
0	65434	13035.381325700473	174
0	65437	13036.294282000758	173
0	65440	13037.282814633999	172
0	65444	13037.661609727019	173
0	65446	13038.096489324735	174
0	65448	13038.152120769584	175
0	65449	13038.180740606565	174
0	65453	13038.207868905849	175
0	65459	13040.088710854355	174
0	65463	13040.154325405699	175
0	65465	13040.435212348087	176
0	65472	13041.19616533902	177
0	65473	13042.318539404556	176
0	65489	13044.35931972156	177
0	65493	13046.483620272916	176
0	65504	13047.986992686024	177
0	65508	13049.770884949774	176
0	65511	13050.660741613772	175
0	65514	13051.660078930915	174
0	65518	13051.864201247118	175
0	65522	13052.198426012917	176
0	65527	13052.594122322704	177
0	65528	13053.440445761164	176
0	65539	13054.793876759477	177
0	65544	13055.907788405675	178
0	65545	13056.304689282239	177
0	65556	13058.40278506385	178
0	65570	13059.916877966534	179
0	65575	13060.686116528333	180
0	65577	13060.725643792723	181
0	65582	13061.444225726087	182
0	65608	13067.498963290235	181
0	65617	13068.819888698513	182
0	65624	13069.838568787441	183
0	65640	13073.398469878329	182
0	65649	13074.768258744383	183
0	65650	13075.606605251195	182
0	65653	13076.684526386919	181
0	65661	13078.861011810662	180
0	65665	13079.346175494202	181
0	65667	13079.558508151699	182
0	65668	13079.840831753207	181
0	65672	13080.0137222106	182
0	65686	13082.004841479301	183
0	65695	13084.549016505168	182
0	65704	13086.248955002792	183
0	65713	13087.368348892841	184
0	65727	13090.872212921424	183
0	65740	13092.041523143453	184
0	65772	13098.189443532262	185
0	65779	13100.930790917824	184
0	65787	13101.86648274084	185
0	65795	13103.718189478333	186
0	65796	13104.08812051105	185
0	65799	13105.071068021531	184
0	65807	13105.478756440723	185
0	65812	13106.465177790111	186
0	65901	13125.031440500046	185
0	65905	13125.976023714613	186
0	65936	13131.818811572591	185
0	65945	13133.361811992465	186
0	65946	13133.830453319723	185
0	65955	13135.570912034624	186
0	65956	13135.721351165759	185
0	65959	13136.605104950226	184
0	65968	13138.674479471773	185
0	65969	13138.777536789018	184
0	65972	13139.673159598808	183
0	65976	13139.890138500342	184
0	65977	13140.47866381413	183
0	65981	13140.746708775518	184
0	65982	13141.417263546741	183
0	65986	13141.572533916726	184
0	65987	13142.536052744804	183
0	65990	13143.444422414308	182
0	65994	13143.563890319097	183
0	65995	13144.60562988712	182
0	65998	13145.475236422722	181
0	66002	13145.493315652448	182
0	66004	13145.526734682522	183
0	66005	13146.626305126552	182
0	66009	13146.686613266195	183
0	66010	13147.728519768049	182
0	66014	13148.540323293934	183
0	66015	13148.83120616904	182
0	66018	13149.952830876191	181
0	66021	13150.805175357372	180
0	66029	13152.667400338189	179
0	66032	13153.648345372235	178
0	66038	13154.662234460956	179
0	66043	13155.449263065224	180
0	66044	13155.855777983987	179
0	66048	13155.971963026573	180
0	66050	13156.455843764727	181
0	66051	13156.791585406536	180
0	66055	13156.795582271834	181
0	66056	13157.818420753037	180
0	66065	13158.805144387492	181
0	66066	13159.730098047262	180
0	66069	13160.580789138624	179
0	66075	13161.632339154792	180
0	66080	13161.794837314007	181
0	66081	13162.624487767709	180
0	66095	13165.314821287818	181
0	66101	13166.67633796806	180
0	66110	13168.321189441941	181
0	66111	13168.816241788459	180
0	66114	13169.874965617959	179
0	66118	13170.432629952602	180
0	66124	13171.923232642435	179
0	66127	13172.898040980999	178
0	66131	13173.05861388537	179
0	66132	13174.062965011564	178
0	66135	13174.957624739562	177
0	66138	13175.898247466576	176
0	66142	13176.121575608775	177
0	66149	13177.072888048719	178
0	66151	13177.145403125544	179
0	66152	13177.739578732909	178
0	66166	13180.223666939454	179
0	66172	13181.948436937542	178
0	66180	13182.67193603529	179
0	66187	13185.325470492491	178
0	66191	13186.053048488871	179
0	66192	13186.180778343012	178
0	66196	13186.741278376023	179
0	66197	13186.996874459894	178
0	66211	13189.292726721996	179
0	66220	13190.823097037813	180
0	66229	13192.885967150298	179
0	66238	13194.059385567067	180
0	66239	13194.951782971123	179
0	66242	13196.05703714226	178
0	66248	13196.866600349858	179
0	66257	13199.185456285687	178
0	66263	13200.146859050276	179
0	66275	13202.290057401083	180
0	66284	13204.465870216457	179
0	66292	13206.533706599815	178
0	66295	13207.52112874041	177
0	66306	13209.286087580364	178
0	66310	13210.262977249051	177
0	66314	13210.366851282251	178
0	66321	13211.813344735662	179
0	66322	13212.05129877037	178
0	66326	13212.473252534906	179
0	66328	13212.495779933761	180
0	66334	13214.112492224357	179
0	66338	13214.16069490177	180
0	66339	13215.280349589947	179
0	66342	13216.24033450416	178
0	66346	13216.622293991862	179
0	66347	13217.200041691649	178
0	66351	13217.458452937604	179
0	66353	13217.704569949687	180
0	66354	13218.088161641236	179
0	66357	13219.145612465933	178
0	66360	13219.976340568408	177
0	66363	13220.994056933995	176
0	66367	13221.41710693808	177
0	66368	13222.042186459124	176
[...]
9	140891	28095.5549578547	1
9	140893	28095.668092251447	0
9	140909	28099.610898973279	1
9	140911	28100.745036329775	0
9	140917	28101.95064369696	1
9	140920	28102.837862223338	2
9	140922	28102.982247813444	1
9	140924	28103.07170626256	0
9	140957	28109.25544710443	1
9	140960	28110.361322319457	2
9	140962	28111.184717368014	1
9	140965	28111.304559178507	2
9	140968	28112.135165104592	3
9	140973	28113.680136404794	2
9	140976	28114.113395630331	3
9	140979	28115.065403355328	4
9	140982	28116.089881962673	5
9	140985	28116.893748859731	6
9	140989	28117.529174084896	5
9	140992	28117.740619849083	6
9	140994	28117.750625539416	5
9	140996	28117.857881883723	4
9	140999	28118.584133921978	5
9	141002	28119.71044873972	6
9	141004	28119.983488451406	5
9	141010	28121.805811741618	6
9	141013	28122.736421238953	7
9	141016	28123.640028341902	8
9	141018	28124.269851916107	7
9	141023	28125.773135789398	6
9	141028	28125.860445271288	7
9	141032	28126.467156765991	6
9	141035	28126.703394880374	7
9	141042	28127.778293029063	6
9	141044	28127.920777885903	5
9	141047	28128.774956793659	6
9	141049	28128.876157294277	5
9	141051	28129.713120418122	4
9	141058	28129.84225375246	3
9	141060	28129.843022608899	2
9	141065	28130.59122341773	3
9	141067	28130.968907533179	2
9	141072	28131.704497731971	1
9	141074	28131.943960579363	0
9	141079	28132.641062793271	1
9	141083	28132.746968184034	0
9	141399	28193.158805648279	1
9	141405	28194.114829603009	0
9	141548	28222.968913544852	1
9	141552	28223.537612232484	0
9	141555	28224.030591604717	1
9	141557	28224.720216041511	0
9	141560	28225.105884279914	1
9	141565	28226.074953728121	2
9	141568	28227.263549558211	3
9	141570	28228.207429871937	2
9	141575	28228.671124638864	1
9	141578	28229.310236555755	2
9	141580	28229.501919245877	1
9	141582	28229.641975829026	0
9	141633	28240.675110171688	1
9	141635	28240.687229005716	0
9	141640	28241.501697052037	1
9	141642	28242.200254667467	0
9	141678	28249.317418274796	1
9	141680	28249.428931266033	0
9	142022	28315.910521749452	1
9	142024	28315.984723298401	0
9	142045	28321.246891103451	1
9	142053	28323.087789249466	2
9	142055	28323.200172294114	1
9	142068	28325.8498748763	2
9	142072	28326.566821102494	1
9	142075	28326.78638524455	2
9	142082	28327.624951793114	3
9	142091	28329.182493056305	2
9	142098	28330.234260068167	1
9	142109	28331.573380872334	0
9	142437	28397.824787439356	1
9	142445	28399.688991807631	2
9	142452	28400.950007929278	1
9	142459	28401.959749521717	0
9	142482	28406.874182498778	1
9	142485	28407.878597235909	2
9	142490	28408.779206363993	3
9	142492	28409.158977743732	2
9	142499	28410.098777227495	1
9	142503	28410.361268512954	0
9	142684	28446.470261216769	1
9	142700	28450.538465589425	2
9	142702	28451.094966028247	1
9	142708	28452.52149954862	2
9	142710	28452.644152502101	1
9	142716	28453.408262435722	0
9	142793	28469.903125366802	1
9	142798	28471.027939925474	0
9	142801	28471.897109349864	1
9	142806	28473.334702456557	0
9	143450	28600.7911363401	1
9	143458	28602.721881604522	2
9	143463	28603.824639746097	1
9	143466	28604.956012784551	2
9	143477	28607.733840737632	3
9	143480	28608.554991012859	4
9	143483	28609.508727519355	5
9	143485	28609.525008274267	4
9	143489	28610.506901927555	3
9	143492	28610.519266304235	4
9	143495	28611.366146453238	5
9	143497	28611.457192110914	4
9	143499	28611.651422774593	3
9	143501	28612.253185004292	2
9	143506	28613.21475884945	1
9	143511	28613.731789363089	0
9	143519	28615.377150932468	1
9	143521	28615.809124137836	0
9	143534	28618.809476004496	1
9	143536	28619.473458470839	0
9	143542	28620.902055440705	1
9	143545	28621.991039522972	2
9	143547	28622.128371124194	1
9	143549	28622.129691355923	0
9	143567	28626.230118580305	1
9	143569	28626.244643407821	0
9	143731	28660.588998586267	1
9	143734	28661.604835466344	2
9	143736	28662.131462596419	1
9	143739	28662.467701531436	2
9	143743	28663.372978032513	1
9	143746	28663.489794453375	2
9	143748	28663.506556189742	1
9	143751	28664.393561583433	2
9	143753	28664.685512800641	1
9	143755	28665.006202234065	0
9	143758	28665.257060724731	1
9	143761	28666.402949702229	2
9	143766	28667.231248330745	3
9	143772	28668.231138373576	2
9	143777	28668.356200438671	1
9	143779	28668.879446437607	0
9	143868	28688.029190113817	1
9	143873	28689.335910832789	0
9	143876	28689.956934977745	1
9	143878	28690.398519646303	0
9	143881	28690.894733307095	1
9	143888	28692.563379379326	0
9	143899	28694.705462351957	1
9	143901	28695.669937599878	0
9	143904	28695.679697299333	1
9	143906	28696.017193162619	0
9	143919	28698.670194910238	1
9	143922	28699.472915891236	2
9	143924	28699.492370072498	1
9	143929	28700.492732086549	2
9	143933	28700.788764406628	1
9	143952	28704.076477465592	0
9	144083	28730.839433775801	1
9	144085	28731.744245825398	0
9	144088	28731.768063223228	1
9	144094	28733.548691222776	2
9	144096	28733.586227383261	1
9	144103	28734.727583656606	2
9	144105	28734.784328509839	1
9	144112	28735.995991143672	0
9	144144	28743.877459567	1
9	144147	28744.684320028645	2
9	144153	28746.636773891242	3
9	144156	28747.826678845061	4
9	144158	28747.910996512541	3
9	144160	28748.058595084928	2
9	144165	28749.285729896485	1
9	144168	28750.179679902417	2
9	144170	28750.223811590043	1
9	144180	28752.81208896319	0
9	144183	28753.122955482041	1
9	144185	28753.874391868645	0
9	144190	28754.142547083886	1
9	144192	28755.093572741915	0
9	144206	28758.149977422465	1
9	144210	28758.962174481996	0
9	144223	28760.841559747659	1
9	144231	28763.013116757996	2
9	144233	28763.015343964202	1
9	144237	28763.995727185382	0
9	144402	28795.711325168012	1
9	144406	28796.045459603724	0
9	144411	28796.607633781487	1
9	144426	28799.673680892693	0
9	144460	28807.763746211359	1
9	144462	28807.868489586131	0
9	144467	28808.816041109672	1
9	144469	28808.894174143281	0
9	144997	28912.743514978846	1
9	144999	28912.848603886574	0
9	145006	28913.928251940438	1
9	145016	28916.188417502941	0
9	145348	28982.779195963922	1
9	145350	28983.855447806009	0
9	145448	29003.334658336782	1
9	145450	29003.98040164176	0
9	145456	29005.61113545555	1
9	145458	29005.921784685011	0
9	145477	29010.385330512332	1
9	145479	29010.39732351013	0
9	145482	29011.226382223102	1
9	145484	29012.025861804144	0
9	145487	29012.214235230959	1
9	145491	29012.740600304902	0
9	145494	29013.226712713535	1
9	145502	29015.46451893575	2
9	145507	29017.090912583599	1
9	145511	29017.45583739396	0
9	145514	29017.742808679915	1
9	145517	29018.690183128561	2
9	145519	29019.074105061389	1
9	145522	29019.766631270531	2
9	145524	29020.09913723586	1
9	145527	29020.796737852651	2
9	145529	29021.367611753611	1
9	145532	29021.718107874184	2
9	145535	29022.557243512436	3
9	145537	29022.686551269511	2
9	145539	29023.229529982302	1
9	145542	29023.660154684591	2
9	145544	29023.667926907781	1
9	145546	29024.217389877679	0
9	145549	29024.66603914076	1
9	145551	29024.721773360111	0
9	145601	29034.341651783748	1
9	145603	29034.883603375475	0
9	145627	29040.419200070626	1
9	145629	29040.852897056104	0
9	145635	29042.402195635955	1
9	145640	29043.531439294624	2
9	145642	29043.855707121793	1
9	145644	29044.560886721862	0
9	145682	29051.658888388103	1
9	145691	29053.653423327904	0
9	145694	29053.90060494454	1
9	145699	29055.023168030292	0
9	145745	29064.662355942702	1
9	145747	29064.968471671582	0
9	145755	29066.622222195988	1
9	145760	29067.668435915796	2
9	145765	29068.542303263443	1
9	145767	29069.065752699632	0
9	145770	29069.438007698817	1
9	145774	29070.563803982277	0
9	145779	29070.600150538379	1
9	145781	29070.784453136692	0
9	145903	29096.222839317801	1
9	145905	29096.482850832045	0
9	146151	29144.81046115752	1
9	146153	29144.846548861989	0
9	146214	29157.946954575885	1
9	146216	29158.135056201967	0
9	146224	29159.670988685783	1
9	146227	29160.840512482036	2
9	146230	29161.989745255053	3
9	146235	29163.228153854478	2
9	146237	29163.387261359052	1
9	146239	29163.484380906723	0
9	146242	29163.900918899808	1
9	146244	29164.553017790006	0
9	146247	29164.731524558231	1
9	146249	29165.12769685974	0
9	146329	29180.662062738701	1
9	146338	29182.275580373859	0
9	146362	29187.852087351267	1
9	146367	29188.885539202601	0
9	146378	29191.608201293234	1
9	146383	29192.818978365415	0
9	146391	29194.936378484364	1
9	146395	29196.010787139579	0
9	146398	29196.083980063401	1
9	146403	29197.056038562891	0
9	146409	29198.961972768191	1
9	146411	29199.747070708989	0
9	146430	29203.978189823642	1
9	146433	29204.906617092114	2
9	146435	29204.976987196436	1
9	146440	29206.517584214057	0
9	146443	29207.232957525603	1
9	146445	29207.810437870743	0
9	146448	29208.412857377767	1
9	146451	29209.283752194471	2
9	146453	29209.594334799177	1
9	146456	29210.413578486122	2
9	146458	29210.777729668515	1
9	146461	29211.595072035823	2
9	146466	29212.650891833805	3
9	146468	29212.715605495613	2
9	146473	29213.960618898085	1
9	146475	29214.08153875945	0
9	146549	29229.286599203995	1
9	146554	29230.171500868029	2
9	146574	29234.517411168541	1
9	146576	29234.653645136708	0
9	146640	29248.684313607175	1
9	146643	29249.648440451693	2
9	146646	29250.67626538254	3
9	146651	29251.79431582499	4
9	146653	29252.292343869964	3
9	146659	29253.717542776426	4
9	146664	29254.881537778357	5
9	146666	29255.27234753693	4
9	146671	29256.075379169229	3
9	146674	29256.977625711875	4
9	146676	29257.473794714304	3
9	146679	29257.912112900762	4
9	146681	29258.314121737847	3
9	146684	29258.763082796296	4
9	146687	29259.567367103191	5
9	146689	29259.841777535233	4
9	146692	29260.51498688502	5
9	146694	29261.707308561614	4
9	146697	29261.7092813348	5
9	146700	29262.655159838085	6
9	146703	29263.567813482095	7
9	146706	29264.631542212662	8
9	146708	29265.42703154859	7
9	146711	29265.466455262114	8
9	146713	29265.568403230757	7
9	146717	29266.278044529712	6
9	146722	29267.021699232447	5
9	146724	29267.252317736676	4
9	146727	29267.600781043858	5
9	146729	29268.475292944415	4
9	146732	29268.487366173935	5
9	146735	29269.412847979327	6
9	146738	29270.57012003768	7
9	146742	29271.073859922517	6
9	146745	29271.447234370334	7
9	146747	29271.571120023229	6
9	146754	29272.657492887269	5
9	146759	29274.212100425944	4
9	146764	29274.863806319663	5
9	146780	29277.35261318285	4
9	146782	29277.4828340523	3
9	146792	29278.985420492566	2
9	146794	29279.000721815883	1
9	146801	29279.955649610124	0
9	146920	29303.735832934602	1
9	146926	29304.257967560866	0
9	146929	29304.584113605468	1
9	146936	29305.863516651433	0
9	147506	29415.367615955751	1
9	147508	29415.515723853251	0
9	147511	29416.432420046776	1
9	147513	29416.848852871392	0
9	147543	29422.676019357572	1
9	147545	29423.055279756691	0
9	147609	29436.315550665798	1
9	147612	29437.379894718768	2
9	147615	29438.509633993784	3
9	147617	29438.544396195663	2
9	147620	29439.593923067635	3
9	147622	29439.821538351263	2
9	147625	29440.573992069772	3
9	147627	29440.741809040775	2
9	147629	29440.840976191502	1
9	147631	29440.959686650056	0
9	147651	29444.275662507637	1
9	147656	29445.16437905069	0
9	147664	29446.745865123122	1
9	147666	29446.842918486701	0
9	147729	29460.21653713487	1
9	147732	29461.20173496982	2
9	147737	29462.280303474571	3
9	147739	29463.309967856108	2
9	147745	29464.134852985534	3
9	147747	29464.902056150428	2
9	147750	29465.199062759298	3
9	147753	29466.100623475536	4
9	147755	29466.769355208328	3
9	147758	29467.178995417207	4
9	147761	29468.187921498958	5
9	147763	29468.578708298995	4
9	147768	29469.373756980752	3
9	147771	29470.045912681017	4
9	147774	29470.882544600088	5
9	147777	29471.742565794531	6
9	147779	29471.977912768135	5
9	147782	29472.712950932104	6
9	147786	29473.120824566796	5
9	147798	29474.81098463881	4
9	147802	29475.438638097244	3
9	147805	29475.600535618756	4
9	147810	29476.949992122897	3
9	147822	29478.950101383605	2
9	147827	29479.657020942644	3
9	147837	29482.923249163328	2
9	147842	29483.433644414158	1
9	147844	29483.979267747439	0
9	147849	29484.163000839446	1
9	147851	29484.855642960769	0
9	147880	29490.657544608099	1
9	147885	29491.554338459355	2
9	147887	29491.576699274522	1
9	147895	29493.291800443792	2
9	147897	29494.329554849596	1
9	147905	29495.512787109577	2
9	147914	29497.51084237449	1
9	147927	29500.780692336558	0
9	147951	29505.62301070342	1
9	147953	29506.525634397782	0
9	147956	29506.56952654632	1
9	147958	29506.926099276685	0
9	147966	29508.708085487003	1
9	147969	29509.852376799996	2
9	147972	29510.90091138162	3
9	147974	29511.281375848507	2
9	147977	29511.836854632071	3
9	147979	29512.061263975404	2
9	147984	29512.99168152666	3
9	147986	29513.932345662196	2
9	147991	29514.117010767549	1
9	147993	29514.545235881904	0
9	147999	29515.732182973123	1
9	148012	29518.835478770046	2
9	148014	29519.359993904658	1
9	148017	29519.726173326245	2
9	148019	29519.750118396075	1
9	148023	29520.595615013281	0
9	148026	29520.849210410065	1
9	148030	29521.451242261662	0
9	148104	29536.103500431184	1
9	148106	29536.562524378424	0
9	148114	29538.27159382353	1
9	148116	29538.428101593617	0
9	148175	29549.056635962301	1
9	148182	29550.456824007332	0
9	148318	29579.558216123906	1
9	148320	29579.562372940387	0
9	148325	29580.742926067923	1
9	148332	29582.338449866231	0
9	148335	29582.476856515248	1
9	148341	29584.281285366294	2
9	148344	29585.135181373981	3
9	148349	29586.934373874702	2
9	148352	29587.41176539163	3
9	148354	29587.983077858263	2
9	148357	29588.586289274198	3
9	148359	29589.049987630875	2
9	148364	29589.667567292611	1
9	148367	29590.525057096658	2
9	148375	29593.138116501008	1
9	148380	29593.494506417636	0
9	148430	29603.583505771468	1
9	148433	29604.565878959811	2
9	148435	29605.472726488066	1
9	148437	29605.605102040077	0
9	148440	29605.672192314333	1
9	148442	29606.174118031511	0
9	148445	29606.722504731706	1
9	148449	29607.236082031134	0
9	148452	29607.731717587142	1
9	148455	29608.774506030484	2
9	148458	29609.658916382278	3
9	148461	29610.564277535463	4
9	148463	29611.387075079752	3
9	148465	29611.594615993373	2
9	148468	29611.598966237782	3
9	148471	29612.427316637775	4
9	148473	29612.476489142889	3
9	148475	29612.516103522904	2
9	148478	29613.533646266321	3
9	148480	29614.382558607882	2
9	148483	29614.447546921363	3
9	148486	29615.449715135032	4
9	148491	29616.511121103512	5
9	148493	29616.832024903279	4
9	148495	29617.160701952016	3
9	148497	29617.276918627669	2
9	148499	29617.311674263047	1
9	148504	29617.420267038262	0
9	148535	29624.364459829656	1
9	148537	29624.370766901422	0
9	149082	29731.005362761549	1
9	149096	29733.71452988159	0
9	149099	29734.047798345953	1
9	149101	29734.338111982467	0
9	149133	29741.284635457087	1
9	149135	29741.80658016966	0
9	149138	29742.48088560716	1
9	149143	29743.499691937833	2
9	149149	29745.720355677854	3
9	149151	29746.380100232908	2
9	149153	29746.535818897326	1
9	149160	29746.723443364011	0
9	149244	29765.36938260856	1
9	149246	29765.405376325766	0
9	149259	29768.390487455734	1
9	149262	29769.246904339612	2
9	149266	29769.877889276099	1
9	149269	29770.434280628868	2
9	149279	29772.784124141979	1
9	149284	29773.649518959569	0
9	149324	29783.152881859773	1
9	149326	29783.552934157741	0
9	149329	29784.275595927955	1
9	149334	29785.991323156576	0
9	149337	29786.436980127515	1
9	149343	29788.438098376682	2
9	149345	29788.919687643952	1
9	149347	29789.253481174923	0
9	149350	29789.418158153137	1
9	149352	29790.225622114939	0
9	149355	29790.440825468926	1
9	149357	29791.217297946138	0
9	149360	29791.402505649785	1
9	149362	29791.487142078736	0
9	149365	29792.280161482068	1
9	149367	29793.067198553848	0
9	149370	29793.174537814195	1
9	149372	29794.133797564831	0
9	149375	29794.144978589444	1
9	149377	29794.159661239593	0
9	149380	29794.981749915863	1
9	149383	29795.90325887247	2
9	149385	29796.362924157792	1
9	149388	29796.731369918836	2
9	149390	29796.782598061312	1
9	149392	29797.165799876725	0
9	149400	29798.858304227581	1
9	149404	29799.036092077929	0
9	149432	29805.163543995533	1
9	149436	29805.675192068603	0
9	149505	29819.293303024739	1
9	149507	29819.68565039809	0
9	149510	29820.10855449165	1
9	149513	29820.97212512071	2
9	149515	29821.428642604836	1
9	149518	29821.797923383925	2
9	149520	29822.049445365252	1
9	149523	29822.67004409625	2
9	149526	29823.701556332659	3
9	149529	29824.587904227309	4
9	149532	29825.589596478611	5
9	149534	29825.617540106855	4
9	149537	29826.468719838064	5
9	149540	29827.34728606154	6
9	149547	29828.261531858582	7
9	149549	29828.791544176117	6
9	149563	29831.605542571533	7
9	149565	29831.697436440472	6
9	149570	29832.548078026685	7
9	149581	29834.237980918451	6
9	149583	29834.460211017477	5
9	149592	29836.395538244179	6
9	149596	29836.762829630104	5
9	149599	29837.465361731468	6
9	149608	29838.808315000429	5
9	149618	29840.786788139924	4
9	149621	29841.405485080058	5
9	149623	29842.246418659942	4
9	149626	29842.254871340903	5
9	149634	29844.007132285429	6
9	149638	29844.396386209351	5
9	149645	29844.975986661358	6
9	149651	29845.573632244206	5
9	149658	29846.889012678687	4
9	149675	29850.102284579353	3
9	149682	29850.642580316448	2
9	149684	29850.740878174351	1
9	149686	29850.746353733089	0
9	149871	29887.963595775668	1
9	149874	29888.887027155947	2
9	149879	29890.696298049919	1
9	149882	29891.057137049794	2
9	149890	29893.010540909286	3
9	149893	29894.129834835197	4
9	149896	29895.29856886972	5
9	149899	29896.486268418061	6
9	149903	29896.928728979745	5
9	149906	29897.467856630089	6
9	149908	29897.483430891149	5
9	149910	29897.874878714928	4
9	149912	29897.957799617189	3
9	149914	29898.026913025724	2
9	149917	29898.402141441835	3
9	149919	29898.558864910076	2
9	149921	29899.252299566858	1
9	149924	29899.260820644313	2
9	149927	29900.150397882202	3
9	149929	29900.72907124872	2
9	149932	29900.990705436153	3
9	149935	29901.962691601982	4
9	149937	29902.523156057408	3
9	149944	29903.18637601432	2
9	149951	29904.64527287181	1
9	149954	29904.667982314678	2
9	149957	29905.544697956426	3
9	149967	29907.519553657714	2
9	149972	29908.524039027618	3
9	149981	29909.865961509216	2
9	149983	29910.185128125217	1
9	149986	29910.205947176145	2
9	149992	29912.186094647051	3
9	149996	29912.996125620408	2
9	149999	29913.195179459789	3
9	150001	29913.522228538324	2
9	150007	29915.111631441173	3
9	150012	29916.084729714655	4
9	150014	29916.13517713676	3
9	150022	29917.902531351672	4
9	150024	29918.043459783249	3
9	150030	29919.836338694079	4
9	150032	29919.886953393905	3
9	150039	29920.870088303985	4
9	150041	29921.225769082022	3
9	150043	29921.479855400865	2
9	150053	29923.896743048872	1
9	150056	29924.027255368756	2
9	150066	29926.460543007878	1
9	150068	29926.524330817101	0
9	150071	29927.077866258716	1
9	150073	29927.57398067919	0
9	150076	29927.94215778053	1
9	150083	29929.056019382143	2
9	150088	29930.300518089798	1
9	150090	29930.958167754703	0
9	150209	29955.325024611001	1
9	150211	29955.52577058169	0
9	150267	29969.545646165647	1
9	150270	29970.517246732731	2
9	150272	29970.56977525208	1
9	150275	29971.430729022865	2
9	150278	29972.577267826778	3
9	150281	29973.436850503982	4
9	150284	29974.489191535451	5
9	150289	29975.561537566837	6
9	150291	29975.710844514758	5
9	150294	29976.609793006592	6
9	150296	29976.753932518526	5
9	150301	29977.584456078392	6
9	150303	29977.924390708842	5
9	150310	29979.185214748075	4
9	150313	29979.67283238113	5
9	150322	29982.534073578064	6
9	150325	29983.569954818357	7
9	150328	29984.48467654163	8
9	150331	29985.564612921569	9
9	150333	29986.382828602524	8
9	150336	29986.544500052239	9
9	150338	29986.844824054272	8
9	150341	29987.557607034835	9
9	150343	29988.135005401369	8
9	150346	29988.585082619599	9
9	150348	29988.801655240672	8
9	150351	29989.413219613357	9
9	150356	29990.645519091395	8
9	150358	29991.085555931096	7
9	150361	29991.338259080386	8
9	150366	29992.208861878382	9
9	150368	29992.816950035038	8
9	150370	29992.999103876312	7
9	150377	29994.211195609423	6
9	150380	29994.31661778433	7
9	150387	29995.338561257456	6
9	150392	29996.306936223207	7
9	150394	29996.710899081773	6
9	150399	29997.412298937793	5
9	150401	29997.53859010087	4
9	150403	29997.793050827979	3
9	150405	29997.900827650929	2
9	150408	29998.122258586118	3
9	150415	29998.981356768737	4
9	150417	29999.637028530464	3

