version 2
run Second_exit_8-13-20191114-11:42:47-8959
attr configname Second_exit_8
attr datetime 20191114-11:42:47
attr experiment Second_exit_8
attr inifile omnetpp.ini
attr iterationvars ""
attr iterationvarsf ""
attr measurement ""
attr network ResponseTimeNetwork
attr processid 8959
attr repetition 13
attr replication #13
attr resultdir results
attr runnumber 13
attr seedset 13
param **.Source.interArrivalTime exponential(5s)
param **.jobPriority bernoulli(0.6)
param **.PS.serviceTimeU1 "uniform(0.8s, 1.2s)"
param **.PS.serviceTimeU2 "uniform(1.8s, 2.2s)"
param **.SS1.serviceTime exponential(1s)
param **.SS2.serviceTime exponential(1.2s)
param **.PS.exitProbability bernoulli(0.8)

vector 0 ResponseTimeNetwork.QueueU2 queueLength:vector ETV
attr interpolationmode sample-hold
attr title "queue length, vector"
vector 1 ResponseTimeNetwork.SS2 queueLength:vector ETV
attr interpolationmode sample-hold
attr title "queue length, vector"
vector 2 ResponseTimeNetwork.sink lifeTimeU2:vector ETV
attr interpolationmode none
attr title "lifetime of arrived jobs U2, vector"
attr unit s
vector 3 ResponseTimeNetwork.sink totalServiceTimeU2:vector ETV
attr interpolationmode none
attr title "the total time spent  by arrived jobs U2, vector"
attr unit s
vector 4 ResponseTimeNetwork.sink lifeTime:vector ETV
attr interpolationmode none
attr title "lifetime of arrived jobs, vector"
attr unit s
vector 5 ResponseTimeNetwork.sink totalServiceTime:vector ETV
attr interpolationmode none
attr title "the total time spent  by arrived jobs, vector"
attr unit s
vector 6 ResponseTimeNetwork.QueueU1 queueLength:vector ETV
attr interpolationmode sample-hold
attr title "queue length, vector"
vector 7 ResponseTimeNetwork.sink lifeTimeU1:vector ETV
attr interpolationmode none
attr title "lifetime of arrived jobs U1, vector"
attr unit s
vector 8 ResponseTimeNetwork.sink totalServiceTimeU1:vector ETV
attr interpolationmode none
attr title "the total time spent  by arrived jobs U1, vector"
attr unit s
vector 9 ResponseTimeNetwork.SS1 queueLength:vector ETV
attr interpolationmode sample-hold
attr title "queue length, vector"
0	47922	10000.5207731561	13
0	47926	10000.711762882177	14
0	47928	10001.245024734474	15
0	47929	10001.33327722272	14
0	47932	10002.323738605083	13
0	47936	10002.329483235194	14
0	47938	10002.582155285718	15
0	47939	10003.156740657353	14
0	47943	10003.698137179487	15
0	47944	10004.275401314554	14
0	47947	10005.12569096556	13
0	47951	10005.630048238011	14
0	47952	10005.975392609295	13
0	47955	10007.083586776834	12
0	47958	10008.192597388029	11
0	47964	10008.906185774969	12
0	47969	10009.528761921555	13
0	47970	10010.192682324369	12
0	47974	10010.866504860426	13
0	47975	10011.141606209539	12
0	47978	10011.948150206749	11
0	47991	10014.877586981767	10
0	48037	10023.422281200031	11
0	48039	10023.658500376645	12
0	48046	10023.82813037956	13
0	48087	10031.4007210901	14
0	48107	10034.840764549937	15
0	48189	10052.515168924652	14
0	48257	10066.858847863623	13
0	48285	10072.523079599555	12
0	48299	10075.248260486842	13
0	48301	10075.25561973107	14
0	48302	10075.776014146044	13
0	48305	10076.781110455583	12
0	48309	10076.949145631299	13
0	48316	10078.026386607353	14
0	48327	10080.92299092945	13
0	48336	10081.877142118781	14
0	48447	10103.328538859721	15
0	48495	10112.735750205394	16
0	48501	10114.698869865502	15
0	48601	10133.234649728592	16
0	48621	10138.251172300638	15
0	48630	10139.931398026268	16
0	48631	10140.290468966706	15
0	48635	10140.502217299289	16
0	48649	10142.900797424768	17
0	48653	10144.568754363178	16
0	48661	10146.526016270395	15
0	48665	10146.808704107267	16
0	48671	10148.822661402195	15
0	48675	10148.880600137168	16
0	48679	10149.652696469641	17
0	48693	10152.765667615484	16
0	48702	10154.009797478197	17
0	48703	10154.902144830327	16
0	48712	10156.029031026159	17
0	48714	10156.181057442074	18
0	48715	10157.104545804977	17
0	48724	10158.694332363833	18
0	48725	10159.418135908551	17
0	48738	10161.41209267672	18
0	48765	10167.564783266212	17
0	48768	10168.686277399051	16
0	48781	10170.57070411593	17
0	48796	10173.261738909796	18
0	48800	10175.031764052087	17
0	48808	10177.210707478529	16
0	48822	10179.758040172671	17
0	48823	10180.131739850832	16
0	48827	10180.247554345718	17
0	48828	10181.271926737042	16
0	48832	10181.477669827333	17
0	48833	10182.454185766565	16
0	48836	10183.5763516146	15
0	48845	10184.804501804305	16
0	48849	10185.268356674306	17
0	48853	10186.815978881647	16
0	48856	10187.632836512686	15
0	48860	10187.737781825942	16
0	48862	10187.999006397801	17
0	48873	10190.777842966211	16
0	48889	10193.253019916752	17
0	48891	10193.50112935813	18
0	48893	10193.507004903933	19
0	48902	10195.801055389013	18
0	48911	10197.403995408842	19
0	48912	10197.883662412152	18
0	48921	10199.038124092246	19
0	48922	10199.775544229545	18
0	48925	10200.959289667033	17
0	48929	10201.172645113667	18
0	48936	10202.579799445313	19
0	48942	10203.799788278643	18
0	48945	10204.643724232934	17
0	48954	10206.061963084764	18
0	48956	10206.568250108808	19
0	48957	10206.724608353547	18
0	48960	10207.720319751299	17
0	48963	10208.81194535822	16
0	48967	10208.997661941972	17
0	48969	10209.090199118546	18
0	48970	10209.99689146655	17
0	48973	10211.134468668069	16
0	48977	10211.211513761766	17
0	48978	10211.953574207819	16
0	48981	10212.977397636439	15
0	48984	10213.970655057228	14
0	48987	10215.115034828915	13
0	48991	10215.16843311762	14
0	48992	10216.044563814833	13
0	48995	10216.877119829062	12
0	48999	10217.197730555074	13
0	49000	10217.899758679255	12
0	49004	10218.04183894686	13
0	49005	10218.769697294685	12
0	49009	10219.302027304628	13
0	49010	10219.781276684462	12
0	49013	10220.879828478324	11
0	49017	10221.046815228929	12
0	49018	10221.809235789089	11
0	49022	10221.978754064587	12
0	49029	10223.107631989329	13
0	49031	10223.470800462984	14
0	49032	10223.543718128579	13
0	49036	10223.583120422677	14
0	49042	10225.640740160479	13
0	49048	10226.362534325559	14
0	49053	10226.634577905899	15
0	49054	10227.526488742347	14
0	49057	10228.496050424337	13
0	49060	10229.418063554655	12
0	49063	10230.452493059098	11
0	49067	10230.541407879954	12
0	49069	10230.982915794786	13
0	49070	10231.488015770468	12
0	49073	10232.377254703104	11
0	49076	10233.560204282052	10
0	49082	10234.436160505085	11
0	49086	10235.343985482327	10
0	49090	10235.658678993329	11
0	49097	10236.870905371685	12
0	49098	10237.388098661437	11
0	49101	10238.248818268183	10
0	49107	10238.684153467214	11
0	49109	10238.948062289779	12
0	49113	10239.985418975748	11
0	49117	10240.373451850053	12
0	49118	10241.180847107082	11
0	49122	10241.706960962601	12
0	49123	10242.31709720122	11
0	49126	10243.137845716647	10
0	49130	10243.154165452896	11
0	49132	10243.662305456209	12
0	49133	10244.095399389251	11
0	49137	10244.329328406302	12
0	49138	10244.95839804888	11
0	49142	10245.171265085047	12
0	49143	10245.981264704301	11
0	49147	10246.055327351413	12
0	49154	10247.591144779162	13
0	49155	10248.053731431274	12
0	49158	10249.1082791066	11
0	49164	10249.477302915365	12
0	49171	10250.38789379238	13
0	49185	10254.058285178172	12
0	49188	10255.184805617596	11
0	49192	10255.738043712208	12
0	49193	10256.102344264111	11
0	49197	10256.254133017375	12
0	49198	10256.981659724119	11
0	49201	10257.865635507389	10
0	49210	10259.664189952441	11
0	49211	10259.806835752281	10
0	49220	10261.818020591142	11
0	49221	10261.913583439424	10
0	49225	10262.076757647588	11
0	49231	10264.03343561266	10
0	49234	10264.87309113678	9
0	49237	10265.788495523692	8
0	49241	10265.826790101427	9
0	49242	10266.832157332473	8
0	49246	10267.718379587546	9
0	49247	10267.769498765398	8
0	49250	10268.581852533318	7
0	49254	10268.813377703339	8
0	49255	10269.43721701356	7
0	49259	10269.507933221501	8
0	49265	10271.447582820173	7
0	49269	10271.70525781248	8
0	49276	10272.67654223782	9
0	49277	10273.240727478194	8
0	49281	10273.538596515785	9
0	49288	10274.941692407952	10
0	49289	10275.297427834965	9
0	49293	10276.411722785781	10
0	49294	10276.477703235227	9
0	49298	10276.59278565321	10
0	49300	10276.805008411843	11
0	49302	10277.147643853273	12
0	49303	10277.496681879203	11
0	49311	10279.614349235616	10
0	49315	10280.5261418148	11
0	49316	10280.607002484634	10
0	49322	10281.311239731334	11
0	49327	10282.020880598914	12
0	49328	10282.60738130838	11
0	49332	10283.059309330048	12
0	49338	10284.799201926145	11
0	49342	10284.8936178323	12
0	49349	10286.696295519337	13
0	49350	10286.757145348679	12
0	49356	10287.161548826313	13
0	49361	10287.882639036717	14
0	49362	10288.473724683583	13
0	49365	10289.535698387329	12
0	49368	10290.395115146064	11
0	49372	10291.249949123345	12
0	49373	10291.325828935322	11
0	49377	10291.384616722881	12
0	49378	10292.319567682524	11
0	49381	10293.124618507293	10
0	49385	10293.338708773954	11
0	49392	10294.622156071228	12
0	49393	10294.906015409273	11
0	49402	10296.093899442388	12
0	49403	10297.224890036439	11
0	49407	10297.694808097729	12
0	49408	10298.215054840618	11
0	49412	10298.267870585752	12
0	49414	10299.268456995107	13
0	49415	10299.28694644135	12
0	49418	10300.389986584918	11
0	49422	10300.812994942403	12
0	49424	10301.439224469016	13
0	49425	10301.445641923719	12
0	49428	10302.298234169115	11
0	49432	10302.922778348786	12
0	49433	10303.363297223975	11
0	49437	10303.421939615376	12
0	49439	10303.43023241675	13
0	49440	10304.439137143199	12
0	49448	10306.551134616532	11
0	49452	10306.96291608149	12
0	49459	10307.766557348977	13
0	49460	10308.284569144365	12
0	49464	10308.436033169538	13
0	49466	10308.525891599589	14
0	49467	10309.147214291454	13
0	49471	10309.94004793562	14
0	49472	10310.041033138358	13
0	49475	10310.973223582678	12
0	49479	10311.993667963386	13
0	49480	10312.14131518465	12
0	49484	10312.748341077589	13
0	49485	10313.025733476062	12
0	49489	10313.914742309237	13
0	49491	10313.936598993482	14
0	49492	10313.958585139108	13
0	49496	10314.53780977296	14
0	49497	10315.01005615585	13
0	49500	10315.828023873665	12
0	49504	10316.554182127751	13
0	49505	10316.89691125967	12
0	49509	10317.713979241011	13
0	49510	10317.83617184984	12
0	49513	10318.68950895688	11
0	49517	10318.904486717081	12
0	49519	10319.114425865787	13
0	49521	10319.15574802901	14
0	49522	10319.540241257311	13
0	49525	10320.384415271902	12
0	49529	10321.094767862623	13
0	49531	10321.220510520849	14
0	49532	10321.555148919044	13
0	49536	10321.626248229226	14
0	49537	10322.655461672997	13
0	49540	10323.82910968822	12
0	49546	10324.692281536051	13
0	49551	10325.426145782091	14
0	49552	10325.783792121638	13
0	49556	10326.363970175863	14
0	49558	10326.400846895924	15
0	49559	10326.908143204194	14
0	49563	10327.343083640533	15
0	49564	10327.99716765976	14
0	49567	10329.083358898502	13
0	49571	10329.171292403934	14
0	49573	10329.802199448525	15
0	49574	10330.142133627389	14
0	49578	10330.802501012903	15
0	49579	10331.111130126495	14
0	49583	10331.202870901041	15
0	49585	10331.501912083723	16
0	49586	10332.299825624958	15
0	49590	10332.773772052523	16
0	49597	10333.9545319938	17
0	49598	10334.094810032587	16
0	49607	10335.242106331897	17
0	49608	10336.349400075268	16
0	49616	10336.674965544196	17
0	49626	10339.375703082148	18
0	49650	10344.153991341987	17
0	49666	10346.471328519017	18
0	49670	10347.834795470186	17
0	49674	10347.971338737506	18
0	49675	10348.990546488971	17
0	49679	10349.884441353069	18
0	49680	10350.154644724843	17
0	49683	10350.966972717107	16
0	49687	10351.417905842063	17
0	49688	10351.789919200376	16
0	49691	10352.597894751489	15
0	49694	10353.644139523361	14
0	49698	10353.758461503143	15
0	49700	10353.796831558211	16
0	49702	10354.123447028429	17
0	49703	10354.814300168794	16
0	49707	10354.908921687806	17
0	49713	10356.879617390898	16
0	49719	10357.589347757708	17
0	49728	10359.906337565021	16
0	49731	10360.744191332464	15
0	49735	10361.066006729592	16
0	49736	10361.687995716394	15
0	49747	10363.47948381111	16
0	49752	10364.335150825255	17
0	49753	10364.739285811712	16
0	49761	10366.674139562365	15
0	49765	10367.541846002157	16
0	49766	10367.781493205227	15
0	49770	10368.401970975854	16
0	49771	10368.592262473539	15
0	49775	10368.902977609945	16
0	49776	10369.707544623618	15
0	49779	10370.531605694373	14
0	49783	10371.463231361859	15
0	49790	10371.842943872812	16
0	49791	10372.680386169464	15
0	49797	10372.966803295035	16
0	49801	10374.57352084557	15
0	49805	10374.574540981968	16
0	49806	10375.493934896611	15
0	49819	10378.111732739792	14
0	49828	10379.182933288789	15
0	49834	10381.187772848014	14
0	49845	10382.048786182835	15
0	49849	10383.852270323806	14
0	49852	10384.96177996986	13
0	49856	10385.432747120897	14
0	49857	10386.018078286316	13
0	49861	10386.269588418775	14
0	49862	10386.919094412423	13
0	49866	10387.980214198489	14
0	49867	10388.038325741909	13
0	49873	10388.836992362405	14
0	49878	10389.179081929816	15
0	49879	10389.746834037754	14
0	49883	10389.87128647742	15
0	49890	10390.990483684337	16
0	49891	10391.440815602823	15
0	49904	10394.310590061007	14
0	49913	10395.763914610106	15
0	49979	10407.342641662805	16
0	49991	10409.989574644836	17
0	49996	10410.11647824121	18
0	50013	10413.645220945346	19
0	50027	10416.688285739183	18
0	50030	10417.631042077321	17
0	50034	10417.76129312087	18
0	50035	10418.508399549521	17
0	50039	10418.609568576399	18
0	50045	10420.344635223619	17
0	50049	10420.657040028191	18
0	50070	10424.110976654309	19
0	50087	10428.260169654082	18
0	50096	10429.469640090935	19
0	50117	10434.534394941687	18
0	50120	10435.475933044612	17
0	50124	10435.792933726599	18
0	50126	10436.177119037388	19
0	50127	10436.39154267276	18
0	50133	10437.29910075127	19
0	50143	10439.406104096634	20
0	50144	10439.720436280334	19
0	50158	10442.244714069754	20
0	50159	10442.27417027347	19
0	50162	10443.404789872302	18
0	50166	10443.839876481111	19
0	50167	10444.576951325612	18
0	50170	10445.384156525807	17
0	50180	10446.46028318301	18
0	50185	10446.752478465536	19
0	50192	10448.214307327177	20
0	50209	10452.18829569474	19
0	50212	10453.233433631083	18
0	50228	10455.78449959368	19
0	50237	10456.443138575461	20
0	50277	10463.944918121821	21
0	50286	10466.624523527382	20
0	50300	10468.829618064367	21
0	50301	10469.641337147562	20
0	50309	10471.463899169138	19
0	50317	10473.58717744306	18
0	50326	10474.609615435688	19
0	50327	10475.398166360262	18
0	50338	10476.328774260236	19
0	50343	10477.843736636985	20
0	50344	10478.260834186267	19
0	50353	10479.994270514741	20
0	50354	10480.31365841322	19
0	50363	10482.270787365545	20
0	50364	10482.379671653382	19
0	50377	10484.127138296029	20
0	50389	10486.057557876781	21
0	50399	10488.180876306559	22
0	50406	10488.43246575811	23
0	50556	10517.020266189871	24
0	50601	10525.218815730611	25
0	50661	10538.085814542765	26
0	50689	10543.274215810292	27
0	50698	10544.842049388911	28
0	50866	10576.535369824093	29
0	50884	10580.041731154461	30
0	51174	10640.374842941694	29
0	51177	10641.265001321424	28
0	51188	10643.029381843855	29
0	51200	10644.623341299448	30
0	51279	10660.862358727332	29
0	51293	10663.56909397218	30
0	51299	10665.11761291784	29
0	51302	10665.92832356964	28
0	51313	10666.856204588581	29
0	51328	10670.040381967298	30
0	51409	10686.784717453298	29
0	51437	10692.42984975877	28
0	51446	10693.614665227226	29
0	51452	10695.382607590433	28
0	51455	10696.21681300069	27
0	51459	10696.447735883959	28
0	51460	10697.20470753473	27
0	51468	10698.929899467088	26
0	51472	10699.053235908028	27
0	51473	10699.747903121661	26
0	51481	10701.4190756419	25
0	51485	10702.323817779832	26
0	51512	10706.488775933104	27
0	51514	10706.489118512664	28
0	51515	10707.555447066508	27
0	51526	10709.20036802809	28
0	51546	10713.117985293968	29
0	51552	10715.158751643195	28
0	51555	10716.261290294889	27
0	51563	10718.442467909984	26
0	51567	10718.563851388313	27
0	51568	10719.433346181482	26
0	51577	10721.181116078411	27
0	51578	10721.65589163725	26
0	51592	10723.439543064477	27
0	51604	10725.706635053593	28
0	51605	10726.564537167574	27
0	51614	10727.739161341628	28
0	51616	10728.125995427021	29
0	51617	10728.475112479298	28
0	51620	10729.480604449405	27
0	51631	10730.737813842805	28
0	51643	10732.687541327225	29
0	51672	10739.489896256686	28
0	51683	10740.676407598654	29
0	51685	10741.292386576965	30
0	51699	10744.831932965411	29
0	51702	10745.77542106642	28
0	51706	10746.02797375103	29
0	51707	10746.607761736611	28
0	51711	10746.691909914077	29
0	51718	10747.967620037676	30
0	51719	10748.818031894533	29
0	51728	10749.792285808023	30
0	51729	10750.745392181376	29
0	51737	10752.519351564093	28
0	51745	10754.379264405674	27
0	51754	10755.715425323532	28
0	51755	10756.398766559201	27
0	51759	10756.920596924986	28
0	51766	10758.474934876318	29
0	51767	10758.734419133167	28
0	51770	10759.774833927236	27
0	51778	10761.568929255221	26
0	51782	10761.824307411072	27
0	51783	10762.399741923556	26
0	51789	10762.631977870775	27
0	51794	10764.135666274911	28
0	51795	10764.496900810142	27
0	51798	10765.555974954207	26
0	51801	10766.628067503058	25
0	51804	10767.578428446249	24
0	51808	10768.419795733812	25
0	51809	10768.705983321396	24
0	51813	10769.448293875879	25
0	51820	10770.198552619032	26
0	51821	10770.790235463091	25
0	51825	10771.566293363639	26
0	51826	10771.631747622908	25
0	51834	10773.564138228939	24
0	51838	10774.359408548132	25
0	51839	10774.720563452345	24
0	51850	10776.17616612723	25
0	51859	10778.797078887213	24
0	51862	10779.67017870073	23
0	51865	10780.544650741506	22
0	51868	10781.701962072055	21
0	51872	10781.834138924134	22
0	51873	10782.846431783705	21
0	51876	10783.978752929277	20
0	51880	10784.565073156686	21
0	51881	10785.13374164554	20
0	51884	10786.195189450986	19
0	51888	10787.163031339944	20
0	51889	10787.205299833629	19
0	51893	10787.537133064533	20
0	51894	10788.402122822523	19
0	51898	10788.576687016911	20
0	51899	10789.301545096028	19
0	51905	10790.076110611597	20
0	51910	10790.366837844352	21
0	51911	10791.25042457788	20
0	51925	10793.553165888825	21
0	51926	10794.331004240948	20
0	51935	10795.854663174161	21
0	51936	10796.335239152543	20
0	51939	10797.419025095578	19
0	51942	10798.489758979089	18
0	51945	10799.309912466935	17
0	51948	10800.20906423547	16
0	51952	10800.502850154218	17
0	51954	10800.796686223315	18
0	51955	10801.02649820375	17
0	51959	10801.650080341192	18
0	51960	10802.008653508245	17
0	51963	10802.905867992832	16
0	51967	10803.044768380598	17
0	51969	10803.087855505727	18
0	51975	10804.964038959263	17
0	51979	10806.036885441886	18
0	51980	10806.151207655972	17
0	51984	10806.284666822058	18
0	51986	10806.986002568743	19
0	51987	10807.181764729997	18
0	51990	10808.084454766964	17
0	51993	10808.999855366	16
0	51996	10810.199838886154	15
0	52000	10810.738752734537	16
0	52001	10811.059753511218	15
0	52005	10812.00469118965	16
0	52006	10812.005850490858	15
0	52010	10812.265428356546	16
0	52011	10812.828976575029	15
0	52014	10813.947466980875	14
0	52018	10814.240928905832	15
0	52019	10815.017468713619	14
0	52022	10816.010258172102	13
0	52026	10816.275383115775	14
0	52028	10816.664501167875	15
0	52029	10816.95072105883	14
0	52033	10816.972659915688	15
0	52034	10818.083760052475	14
0	52037	10818.989077857531	13
0	52041	10819.152013418641	14
0	52042	10820.061765470843	13
0	52045	10821.147041908021	12
0	52049	10821.706789148562	13
0	52050	10822.000087839945	12
0	52053	10823.056220434627	11
0	52061	10825.268866223862	10
0	52065	10825.973175684536	11
0	52071	10827.458596258072	10
0	52080	10829.581509419359	11
0	52081	10829.798647067716	10
0	52084	10830.831129239613	9
0	52093	10831.805655899321	10
0	52094	10832.685974177459	9
0	52100	10833.697147412569	10
0	52105	10834.109953928975	11
0	52106	10834.662787730081	10
0	52112	10835.628573363953	11
0	52117	10836.516510514266	12
0	52118	10836.740446857104	11
0	52126	10838.783201518769	10
0	52130	10839.347573541149	11
0	52134	10839.577654334688	12
0	52138	10840.743873771767	11
0	52146	10842.890719384256	10
0	52154	10844.720077949132	9
0	52158	10845.576715327973	10
0	52159	10845.710644470084	9
0	52163	10846.072928013298	10
0	52167	10846.433489358516	11
0	52169	10846.597596140859	12
0	52173	10847.59346677719	11
0	52179	10847.844850008513	12
0	52184	10849.729637053347	13
0	52185	10849.73768337753	12
0	52189	10850.533510451267	13
0	52190	10850.846608559809	12
0	52196	10851.840353162886	13
0	52201	10852.545093237023	14
0	52202	10853.034602007664	13
0	52210	10855.38423746873	12
0	52214	10855.858091401343	13
0	52218	10856.331502661196	14
0	52227	10856.935298359639	15
0	52232	10857.528360088917	16
0	52239	10858.438172012326	17
0	52246	10859.42324038185	18
0	52270	10863.945736680498	19
0	52285	10866.957853358535	20
0	52299	10870.944343437557	19
0	52308	10872.826296674884	20
0	52309	10872.840246475325	19
0	52318	10874.087445591582	20
0	52334	10876.011629884179	21
0	52361	10883.165238992056	20
0	52364	10884.201281389618	19
0	52368	10884.372580434423	20
0	52372	10884.943911903288	21
0	52382	10886.673458134187	22
0	52388	10888.178251758893	21
0	52401	10891.18299797431	20
0	52409	10893.382563029532	19
0	52412	10894.275440135249	18
0	52416	10894.401359243686	19
0	52417	10895.267114637257	18
0	52426	10896.40471335111	19
0	52428	10897.113601952825	20
0	52429	10897.424790829443	19
0	52442	10900.103944525704	18
0	52445	10901.219600693159	17
0	52449	10901.956233895265	18
0	52450	10902.046971577987	17
0	52454	10902.29792589842	18
0	52460	10904.124099594563	17
0	52463	10905.174281692713	16
0	52467	10905.248872295898	17
0	52469	10905.769556230712	18
0	52470	10906.155806381557	17
0	52479	10908.136987070037	18
0	52480	10908.347410490106	17
0	52484	10908.699319270928	18
0	52486	10908.848897322131	19
0	52487	10909.404911962359	18
0	52493	10910.17429293281	19
0	52495	10910.192257263195	20
0	52499	10911.536995430871	19
0	52507	10913.543734226863	18
0	52510	10914.636204557701	17
0	52518	10916.780037700499	16
0	52522	10916.904374364498	17
0	52529	10918.051662637937	18
0	52530	10919.086155826154	17
0	52548	10923.164826917297	16
0	52559	10924.682205856681	17
0	52563	10925.871503007713	16
0	52566	10926.742044097114	15
0	52569	10927.545252034556	14
0	52573	10927.956487064653	15
0	52574	10928.384645895123	14
0	52582	10929.422742634942	15
0	52592	10930.728186421532	16
0	52599	10931.993695349948	17
0	52603	10933.187604292783	16
0	52606	10934.30375984751	15
0	52615	10935.48254409827	16
0	52616	10936.177029639597	15
0	52619	10937.197492322254	14
0	52625	10937.691347134057	15
0	52632	10938.820614766699	16
0	52676	10948.369949631508	15
0	52685	10949.716552044876	16
0	52686	10950.331081056058	15
0	52707	10953.700305351517	16
0	52711	10955.186510636773	15
0	52722	10957.092686447233	16
0	52726	10958.309051116858	15
0	52729	10959.459532797359	14
0	52733	10960.171958443562	15
0	52734	10960.261072769877	14
0	52738	10960.793895254124	15
0	52739	10961.402979318262	14
0	52742	10962.562690424663	13
0	52746	10962.654114284197	14
0	52752	10964.481610727985	13
0	52758	10965.091075176008	14
0	52770	10966.549022268114	15
0	52775	10968.033409963452	16
0	52776	10968.267685524398	15
0	52785	10969.665183183989	16
0	52802	10972.871056098204	17
0	52809	10973.477101464787	18
0	52810	10974.288273890248	17
0	52813	10975.24528678863	16
0	52817	10975.289750475708	17
0	52829	10977.559381182368	18
0	52830	10977.845778903204	17
0	52841	10978.972353578662	18
0	52855	10982.385244941829	17
0	52876	10986.368397513429	18
0	52880	10987.876245248808	17
0	52901	10991.844741458766	18
0	52905	10992.91902632874	17
0	52913	10995.128908870579	16
0	52934	10998.785110800589	17
0	52943	11001.310607956001	16
0	52956	11004.376036792551	15
0	52959	11005.37845282529	14
0	52962	11006.500830072188	13
0	52971	11008.180082044768	14
0	52972	11008.511334503279	13
0	52976	11008.553131246213	14
0	52978	11008.720206766736	15
0	52979	11009.560272472841	14
0	52983	11009.835767907136	15
0	52984	11010.413878617459	14
0	52988	11010.443039400141	15
0	52989	11011.341278168303	14
0	52995	11012.031858112444	15
0	53004	11014.662458416844	14
0	53013	11016.004582310944	15
0	53015	11016.728524917916	16
0	53016	11016.997503172258	15
0	53025	11018.729608908217	16
0	53026	11019.243292566692	15
0	53034	11021.265431461879	14
0	53038	11021.424815554673	15
0	53039	11022.169369640131	14
0	53047	11024.032852199603	13
0	53056	11025.332609036429	14
0	53057	11025.948292608582	13
0	53061	11026.577597331454	14
0	53062	11027.005846426659	13
0	53068	11027.531271521218	14
0	53073	11028.387389460109	15
0	53075	11028.701742435446	16
0	53076	11029.029765938897	15
0	53084	11031.234549927268	14
0	53088	11031.752067859388	15
0	53089	11032.200825549125	14
0	53095	11032.740108500483	15
0	53100	11033.615016160151	16
0	53101	11033.998186679858	15
0	53109	11035.951934062618	14
0	53112	11036.813122226226	13
0	53118	11037.210610211871	14
0	53120	11037.229898148598	15
0	53125	11038.695604460207	16
0	53126	11038.774679441679	15
0	53130	11038.901876768198	16
0	53131	11039.58989431078	15
0	53140	11041.040799881232	16
0	53141	11041.631858936999	15
0	53145	11041.652456697056	16
0	53154	11042.732808313887	17
0	53164	11044.680425765807	18
0	53165	11045.452795836166	17
0	53168	11046.579005469777	16
0	53181	11047.942704235489	17
0	53193	11051.955552514664	16
0	53206	11054.598119816951	15
0	53215	11055.864943655608	16
0	53216	11056.260839291684	15
0	53235	11059.55655397772	16
0	53236	11060.258330029644	15
0	53244	11062.177854410675	14
0	53253	11063.259836093935	15
0	53260	11064.3656616258	16
0	53266	11065.904267465254	15
0	53279	11068.806381275995	14
0	53295	11070.644102538247	15
0	53299	11072.681315440616	14
0	53302	11073.8429061007	13
0	53306	11074.024504629385	14
0	53307	11074.660450906238	13
0	53311	11075.577318990902	14
0	53312	11075.767904517359	13
0	53316	11076.60080654653	14
0	53317	11076.894539484686	13
0	53321	11076.939967595434	14
0	53322	11078.034804435844	13
0	53326	11078.368370851659	14
0	53327	11079.130954769371	13
0	53330	11079.963416614128	12
0	53334	11080.605384438807	13
0	53335	11080.9211248643	12
0	53339	11081.043620692433	13
0	53340	11081.78732291928	12
0	53348	11083.848582238354	11
0	53352	11084.275944542907	12
0	53353	11084.841739061311	11
0	53357	11084.946493905556	12
0	53359	11085.079138847246	13
0	53360	11085.702395571418	12
0	53364	11086.525025460383	13
0	53365	11086.727981471013	12
0	53368	11087.549138319514	11
0	53371	11088.358328168395	10
0	53375	11089.092042369647	11
0	53376	11089.318886127437	10
0	53380	11089.588323435824	11
0	53382	11089.589739071742	12
0	53383	11090.216405070687	11
0	53386	11091.294635639081	10
0	53390	11091.338688356506	11
0	53392	11091.378413520884	12
0	53398	11093.25948750891	11
0	53402	11093.493074774505	12
0	53411	11094.904344024726	13
0	53415	11096.540063887763	12
0	53424	11097.648162794733	13
0	53426	11098.144664477266	14
0	53427	11098.279529912233	13
0	53436	11099.535772772547	14
0	53438	11099.697489226587	15
0	53439	11100.253416424919	14
0	53447	11102.166509752557	13
0	53453	11102.690579206768	14
0	53458	11104.032406613825	15
0	53459	11104.306056418851	14
0	53468	11105.755814897197	15
0	53469	11106.468211625911	14
0	53473	11107.271629021803	15
0	53474	11107.533214322407	14
0	53477	11108.683306798734	13
0	53481	11109.312292850432	14
0	53483	11109.338383716874	15
0	53484	11109.844312422093	14
0	53487	11111.037396812648	13
0	53491	11111.11871791623	14
0	53493	11111.500266221351	15
0	53494	11112.195142282289	14
0	53498	11112.458473942692	15
0	53499	11113.271700386446	14
0	53503	11113.707788644512	15
0	53504	11114.184798653632	14
0	53507	11115.074607374541	13
0	53511	11115.667771608107	14
0	53512	11116.164392195943	13
0	53516	11116.789676770831	14
0	53517	11116.972602119784	13
0	53521	11117.902986617467	14
0	53522	11118.146010267011	13
0	53525	11119.25247449104	12
0	53529	11119.538245651155	13
0	53530	11120.363586819845	12
0	53536	11120.688252518952	13
0	53540	11122.360974210335	12
0	53554	11124.466612657929	13
0	53556	11124.633794042479	14
0	53557	11125.090283386336	13
0	53565	11127.397718174682	12
0	53574	11129.124445166762	13
0	53575	11129.132519809921	12
0	53584	11130.81316992719	13
0	53630	11140.561749036162	12
0	53644	11142.727055952568	13
0	53645	11143.612428942154	12
0	53648	11144.744255918934	11
0	53652	11145.569318551291	12
0	53653	11145.763241105172	11
0	53657	11145.948626350791	12
0	53663	11147.888191389962	11
0	53666	11149.037453176937	10
0	53670	11149.709882584239	11
0	53672	11150.102791899955	12
0	53673	11150.174781776237	11
0	53677	11150.562564744822	12
0	53678	11151.027102617378	11
0	53687	11152.646960623737	12
0	53688	11152.948526414873	11
0	53691	11154.092854863236	10
0	53695	11154.121371584361	11
0	53714	11157.487876177374	12
0	53721	11159.050631079544	13
0	53731	11160.268366937133	14
0	53732	11160.973135966174	13
0	53750	11165.120950960014	12
0	53756	11166.210594353158	13
0	53760	11167.220412396471	12
0	53763	11168.403251919913	11
0	53769	11168.988136160189	12
0	53774	11169.501418953333	13
0	53775	11170.280561887025	12
0	53786	11171.252768312642	13
0	53793	11172.696621731503	14
0	53817	11178.484176540673	13
0	53825	11180.354555953778	12
0	53829	11181.35525133434	13
0	53830	11181.510888509284	12
0	53834	11181.702998820768	13
0	53835	11182.466249982565	12
0	53839	11183.363286961337	13
0	53840	11183.415588776878	12
0	53848	11184.029861166287	13
0	53853	11184.658428632183	14
0	53858	11186.074779466432	15
0	53859	11186.720701414737	14
0	53862	11187.580914381537	13
0	53866	11188.124734793	14
0	53873	11188.674061529299	15
0	53874	11189.495857586451	14
0	53885	11191.302118902058	15
0	53899	11194.120898169112	14
0	53907	11196.096569456831	13
0	53911	11196.328857196088	14
0	53912	11197.104905488547	13
0	53916	11197.79508803221	14
0	53923	11198.605190851408	15
0	53929	11200.057551023848	14
0	53945	11203.335743809826	15
0	53949	11204.468674661796	14
0	53958	11205.516090969903	15
0	53960	11205.804371793375	16
0	53961	11206.426052365377	15
0	53965	11206.559262701239	16
0	53976	11209.345733351837	15
0	53984	11211.56309110049	14
0	53987	11212.396331338881	13
0	53991	11212.69120553526	14
0	53998	11214.027554594736	15
0	54000	11214.032882286384	16
0	54001	11214.75418398531	15
0	54005	11214.831725579134	16
0	54006	11215.659229397232	15
0	54010	11215.708580310401	16
0	54014	11216.500083777402	17
0	54019	11216.675786523499	18
0	54020	11217.46529067477	17
0	54031	11219.415987647864	18
0	54040	11221.488245819899	17
0	54048	11223.535865294671	16
0	54054	11223.578782747447	17
0	54059	11224.48619260792	18
0	54060	11225.270438241696	17
0	54064	11226.010260933232	18
0	54065	11226.123650490975	17
0	54068	11227.163280622864	16
0	54071	11228.145913783198	15
0	54075	11228.942206557936	16
0	54076	11229.124045729654	15
0	54079	11230.230547976045	14
0	54088	11232.133031718896	15
0	54089	11232.452120447268	14
0	54102	11235.593002270737	13
0	54111	11237.270117771805	14
0	54112	11237.379247334988	13
0	54116	11237.824410594388	14
0	54117	11238.344480957293	13
0	54126	11239.870197006769	14
0	54128	11240.005252003215	15
0	54129	11240.420090551597	14
0	54133	11240.868607284954	15
0	54140	11241.759479400827	16
0	54141	11242.365810413954	15
0	54149	11244.329049525426	14
0	54157	11246.679195053705	13
0	54163	11247.347895412386	14
0	54168	11248.329149193778	15
0	54169	11248.667672326897	14
0	54172	11249.548933441394	13
0	54178	11250.046194711315	14
0	54180	11250.098620655436	15
0	54182	11250.137081204517	16
0	54199	11252.690457463973	17
0	54206	11254.342719601516	18
0	54240	11261.687976376543	17
0	54248	11263.506438144034	16
0	54251	11264.638289911596	15
0	54254	11265.625827542616	14
0	54258	11265.862726977967	15
0	54259	11266.436270574124	14
0	54262	11267.332192151172	13
0	54266	11267.563402990491	14
0	54267	11268.494681094417	13
0	54275	11270.413588171655	12
0	54281	11271.428796848357	13
0	54285	11272.563006786087	12
0	54294	11274.245724676355	13
0	54296	11274.432672327956	14
0	54297	11274.671163442095	13
0	54306	11276.569490683265	14
0	54307	11276.628366674313	13
0	54310	11277.612561569938	12
0	54313	11278.672523965796	11
0	54319	11278.998934439051	12
0	54324	11279.850176515362	13
0	54325	11280.416058670932	12
0	54329	11280.799973977154	13
0	54331	11280.858932745482	14
0	54333	11281.008694904979	15
0	54345	11282.826437215012	16
0	54347	11282.961732111272	17
0	54348	11283.40758230455	16
0	54361	11286.495310939958	15
0	54372	11287.951861857141	16
0	54387	11290.71249266046	17
0	54398	11292.99620676303	16
0	54401	11294.000424067785	15
0	54405	11294.32329099072	16
0	54406	11294.885419054159	15
0	54409	11295.837136817553	14
0	54413	11296.213216210476	15
0	54415	11296.25044203708	16
0	54416	11296.887618130834	15
0	54422	11297.398310445759	16
0	54424	11297.705891843486	17
0	54428	11298.629066642855	16
0	54434	11298.698314825622	17
0	54436	11298.847013073045	18
0	54440	11300.985932004095	17
0	54444	11301.406184283978	18
0	54445	11302.16817605674	17
0	54449	11302.240499483048	18
0	54455	11304.245066015532	17
0	54459	11304.456969779383	18
0	54460	11305.180987867916	17
0	54469	11307.294235223977	18
0	54470	11307.334983466582	17
0	54478	11309.207593830319	16
0	54481	11310.289578111952	15
0	54487	11310.937003230427	16
0	54492	11312.304163333075	17
0	54493	11312.402607324643	16
0	54496	11313.33675604455	15
0	54500	11313.724769602329	16
0	54501	11314.350424640643	15
0	54505	11314.657538804304	16
0	54507	11315.15933392309	17
0	54508	11315.329848434141	16
0	54517	11316.766254013003	17
0	54518	11317.071712646371	16
0	54521	11317.919674153736	15
0	54530	11319.434715832899	16
0	54532	11319.928208313424	17
0	54533	11320.04731416201	16
0	54537	11320.118920913645	17
0	54539	11320.716149951273	18
0	54540	11321.003306712599	17
0	54544	11321.355622636032	18
0	54545	11321.904990260412	17
0	54548	11322.995825769675	16
0	54551	11324.12852940412	15
0	54555	11324.194670792956	16
0	54559	11324.411346265037	17
0	54569	11326.182963828085	18
0	54570	11326.96922528168	17
0	54573	11327.85885937346	16
0	54576	11328.797199994808	15
0	54579	11329.7959397847	14
0	54582	11330.979890180768	13
0	54586	11331.191990822031	14
0	54587	11331.844573244469	13
0	54591	11332.573496812236	14
0	54593	11332.813983934474	15
0	54594	11332.852123238722	14
0	54598	11333.735500454735	15
0	54599	11333.888665671291	14
0	54603	11334.602894874412	15
0	54605	11334.83089005817	16
0	54606	11335.045573960914	15
0	54610	11335.815468087587	16
0	54611	11336.064492229297	15
0	54614	11337.157959971781	14
0	54618	11337.47674392185	15
0	54620	11337.539097371256	16
0	54622	11337.62954248155	17
0	54623	11337.992915980536	16
0	54626	11339.090899601969	15
0	54630	11339.09686462717	16
0	54632	11339.488454564313	17
0	54633	11340.201283387578	16
0	54636	11341.175116834155	15
0	54640	11341.448529561615	16
0	54641	11342.146420085168	15
0	54645	11342.694035425243	16
0	54647	11342.904896279994	17
0	54648	11343.218233055546	16
0	54651	11344.0616777274	15
0	54662	11345.732296269115	16
0	54671	11348.332260095067	15
0	54680	11349.391766814248	16
0	54681	11350.428704539705	15
0	54684	11351.298723835051	14
0	54688	11351.620615405304	15
0	54689	11352.387997310627	14
0	54693	11353.039196942787	15
0	54694	11353.394126273337	14
0	54698	11353.954352237426	15
0	54699	11354.487037436775	14
0	54702	11355.28978908399	13
0	54706	11356.107062694467	14
0	54707	11356.247198502737	13
0	54711	11356.52689001269	14
0	54712	11357.090371086373	13
0	54716	11357.206791603205	14
0	54717	11357.925270052738	13
0	54721	11358.907939659024	14
0	54722	11359.115587737523	13
0	54726	11359.701387984661	14
0	54727	11360.251950353216	13
0	54731	11360.256838951984	14
0	54732	11361.417286625988	13
0	54735	11362.476753427665	12
0	54738	11363.457252286486	11
0	54741	11364.633917843569	10
0	54745	11364.80415301362	11
0	54747	11365.186105452225	12
0	54749	11365.207612813476	13
0	54755	11366.955640904345	12
0	54759	11367.428214586286	13
0	54760	11367.801365740616	12
0	54763	11368.882829900012	11
0	54767	11369.699903259354	12
0	54768	11369.835119192787	11
0	54772	11370.396977897862	12
0	54773	11370.898117104192	11
0	54782	11372.176132503209	12
0	54784	11372.40311763701	13
0	54785	11372.738366046009	12
0	54788	11373.549225158171	11
0	54797	11375.260807167677	12
0	54798	11375.598715042902	11
0	54802	11375.902359530961	12
0	54803	11376.558298705632	11
0	54809	11377.048409129126	12
0	54813	11378.769920512775	11
0	54819	11379.279955238902	12
0	54821	11379.522605501302	13
0	54825	11380.912940154711	12
0	54833	11383.063780377639	11
0	54837	11383.515120306913	12
0	54839	11383.899950753753	13
0	54840	11384.155717933664	12
0	54843	11385.267711653208	11
0	54847	11385.956046715626	12
0	54848	11386.12006740749	11
0	54851	11386.955481693075	10
0	54855	11387.284351595411	11
0	54856	11388.086054453925	10
0	54860	11388.229832082734	11
0	54862	11388.32448629713	12
0	54864	11388.817467896865	13
0	54865	11389.138363976982	12
0	54868	11389.988920986206	11
0	54872	11390.630188829877	12
0	54873	11391.052632761114	11
0	54876	11391.908828671203	10
0	54880	11392.338606588643	11
0	54881	11392.836984685362	10
0	54885	11392.899327423827	11
0	54886	11393.835959054921	10
0	54889	11394.764391420428	9
0	54893	11394.935869157733	10
0	54894	11395.694339203295	9
0	54898	11395.728834559309	10
0	54899	11396.80857992705	9
0	54902	11397.934002351873	8
0	54906	11398.958973150748	9
0	54907	11399.099856455643	8
0	54911	11399.202125028495	9
0	54912	11400.20016051421	8
0	54916	11401.000217658551	9
0	54917	11401.05940211529	8
0	54921	11401.320064909473	9
0	54922	11401.879268054218	8
0	54925	11402.692783119735	7
0	54928	11403.658304212262	6
0	54936	11405.835442426635	5
0	54944	11407.863018114327	4
0	54953	11409.094481027097	5
0	54955	11409.265550538813	6
0	54956	11409.792229236683	5
0	54962	11410.114868087884	6
0	54964	11410.480841272527	7
0	54966	11410.682171470464	8
0	54971	11410.974831517641	9
0	54972	11411.847932300551	8
0	54981	11413.156857547654	9
0	54982	11413.91686761372	8
0	54985	11415.109702822121	7
0	54994	11416.666494571348	8
0	54995	11416.955754326304	7
0	54999	11417.234720983315	8
0	55006	11418.163154264091	9
0	55007	11419.183765154724	8
0	55010	11420.369423781914	7
0	55014	11421.382344036015	8
0	55015	11421.43694484031	7
0	55019	11421.629983180524	8
0	55020	11422.606908004286	7
0	55024	11423.28086295693	8
0	55031	11424.126571033416	9
0	55032	11424.78105111208	8
0	55045	11425.951492977838	9
0	55052	11426.824641087388	10
0	55054	11427.319683333593	11
0	55071	11431.418957695944	10
0	55077	11431.75554936798	11
0	55082	11432.365804766345	12
0	55123	11441.496883517709	11
0	55131	11443.279264487997	10
0	55140	11444.514090897286	11
0	55141	11445.095557115339	10
0	55144	11445.911247130316	9
0	55148	11445.921550896994	10
0	55157	11446.892514707133	11
0	55159	11447.184452806864	12
0	55163	11448.473899486121	11
0	55166	11449.458682295326	10
0	55170	11449.771836698757	11
0	55171	11450.569297516178	10
0	55175	11450.697697381571	11
0	55176	11451.668793124258	10
0	55179	11452.685371061991	9
0	55182	11453.534924534447	8
0	55185	11454.539047248307	7
0	55188	11455.667865103594	6
0	55192	11455.758826904002	7
0	55193	11456.629463146365	6
0	55199	11457.479852066571	7
0	55204	11457.769747597201	8
0	55206	11457.910403939782	9
0	55208	11457.969696713286	10
0	55209	11458.698029583524	9
0	55215	11459.552872312398	10
0	55219	11460.908624376561	9
0	55222	11461.73405017836	8
0	55225	11462.900247836876	7
0	55228	11463.895711011364	6
0	55231	11464.920269926841	5
0	55235	11465.034692485115	6
0	55237	11465.864002478028	7
0	55238	11466.092041281256	6
0	55242	11466.500642710266	7
0	55244	11466.866823475514	8
0	55245	11467.117752859014	7
0	55248	11468.187400006986	6
0	55252	11468.720498531893	7
0	55258	11470.182343906833	6
0	55262	11470.502907799214	7
0	55269	11471.214633182177	8
0	55271	11471.240695605369	9
0	55273	11471.314875673578	10
0	55274	11472.197638170718	9
0	55283	11473.860274777634	10
0	55284	11474.023175762797	9
0	55293	11475.67770614917	10
0	55294	11476.202402012067	9
0	55303	11477.187077212388	10
0	55304	11478.18943831764	9
0	55317	11480.94594150178	8
0	55333	11483.953796779569	9
0	55337	11485.401088973898	8
0	55345	11487.199008866883	7
0	55354	11488.696368011519	8
0	55355	11489.540741114895	7
0	55359	11489.940509303115	8
0	55366	11491.023358288007	9
0	55367	11491.648328715395	8
0	55375	11493.39364389658	7
0	55384	11494.670236510704	8
0	55385	11495.540815646034	7
0	55389	11495.674111943175	8
0	55391	11495.996628407195	9
0	55402	11498.309330754745	8
0	55406	11498.600765349967	9
0	55407	11499.49188643407	8
0	55411	11499.649974577113	9
0	55412	11500.422488838918	8
0	55421	11502.347363603984	9
0	55422	11502.599196536671	8
0	55425	11503.448006379064	7
0	55429	11503.738420983903	8
0	55431	11504.308760588457	9
0	55432	11504.461017295644	8
0	55450	11507.499355070341	9
0	55472	11511.214872221818	10
0	55649	11546.340416562129	11
0	55671	11551.403734461051	10
0	55682	11552.692024890689	11
0	55691	11555.149446444978	10
0	55704	11558.09268551089	9
0	55707	11559.048741135766	8
0	55713	11559.174585756449	9
0	55718	11560.569163158814	10
0	55719	11561.085070116279	9
0	55722	11561.995612574016	8
0	55725	11562.970678055399	7
0	55729	11563.382139407881	8
0	55735	11564.907585771681	7
0	55739	11565.041453980533	8
0	55746	11566.166222432708	9
0	55752	11567.878325023149	8
0	55761	11569.099280521373	9
0	55772	11572.01664128082	8
0	55775	11572.901216502042	7
0	55784	11574.613083162293	8
0	55785	11574.923524454722	7
0	55789	11575.108804148872	8
0	55790	11575.810679722318	7
0	55794	11576.028820453041	8
0	55803	11577.550808014581	9
0	55818	11580.23739331581	10
0	55819	11580.770566511547	9
0	55828	11582.194610153387	10
0	55832	11582.650025444675	11
0	55931	11599.892888776929	12
0	55936	11600.968814371601	13
0	56001	11612.321715309531	14
0	56174	11647.708115353165	15
0	56182	11650.417486343904	16
0	56187	11650.882577694239	17
0	56211	11654.650545827136	18
0	56230	11659.306940283554	17
0	56241	11660.518170810071	18
0	56243	11661.069189461617	19
0	56247	11662.111528934746	18
0	56261	11663.870243861913	19
0	56269	11664.85455666171	20
0	56359	11684.057403685359	19
0	56368	11685.695624807246	20
0	56480	11706.200878924227	21
0	56502	11710.719968165614	22
0	56509	11711.173490225024	23
0	56524	11714.156123753329	24
0	56590	11729.041442362551	25
0	56599	11731.755523742939	24
0	56622	11736.866142120509	23
0	56628	11737.752760777568	24
0	56635	11738.776119923353	25
0	56659	11744.172340542374	24
0	56662	11745.323404105397	23
0	56665	11746.202444404567	22
0	56673	11747.006345545596	23
0	56678	11747.602571228558	24
0	56687	11750.447352352382	23
0	56691	11751.056159541306	24
0	56692	11751.581821547837	23
0	56695	11752.692535074537	22
0	56698	11753.609087513031	21
0	56702	11754.10712450656	22
0	56703	11754.667182020114	21
0	56706	11755.787118546401	20
0	56710	11755.869106739847	21
0	56712	11755.91338585152	22
0	56726	11758.865838735418	23
0	56731	11759.179229071646	24
0	56733	11759.253188679355	25
0	56740	11760.791255959723	26
0	56741	11760.884004572049	25
0	56750	11762.114481009569	26
0	56751	11762.957325571511	25
0	56762	11764.523103575654	26
0	56766	11765.705416645684	25
0	56780	11768.135835024165	26
0	56781	11768.514494486355	25
0	56785	11768.605022657616	26
0	56786	11769.627684212026	25
0	56790	11769.697768402971	26
0	56794	11769.941669931148	27
0	56803	11771.484682828625	28
0	56816	11773.797202039224	29
0	56832	11777.508989333843	28
0	56841	11779.261486568328	29
0	56842	11779.591261720673	28
0	56851	11781.00692997039	29
0	56852	11781.617020874579	28
0	56855	11782.711134446893	27
0	56859	11782.982091400459	28
0	56865	11784.720270970572	27
0	56878	11787.702855630607	26
0	56882	11788.27237097058	27
0	56883	11788.506338550911	26
0	56892	11790.098998981239	27
0	56893	11790.583816126843	26
0	56899	11790.839472515385	27
0	56906	11792.023540391554	28
0	56918	11793.34371590455	29
0	56920	11793.360850235253	30
0	56964	11803.391246139647	29
0	56987	11806.525253982681	30
0	57004	11809.38465848872	31
0	57018	11811.622389963856	32
0	57056	11818.834765113023	33
0	57086	11822.446783794692	34
0	57282	11864.050768630967	33
0	57298	11866.382577488371	34
0	57303	11867.434829479184	35
0	57362	11876.771301905497	36
0	57422	11888.241569308053	37
0	57424	11888.445327186616	38
0	57452	11894.648579925121	39
0	57467	11897.646361538455	40
0	57489	11903.085660074391	39
0	57498	11904.420399514247	40
0	57499	11905.235536084623	39
0	57547	11914.25180291433	38
0	57550	11915.260906329026	37
0	57554	11915.490117086582	38
0	57555	11916.162852082515	37
0	57559	11916.58788143358	38
0	57566	11917.350751804199	39
0	57582	11921.584837252574	38
0	57586	11921.979797983351	39
0	57587	11922.465572328607	38
0	57593	11922.980081294228	39
0	57598	11923.503461494454	40
0	57599	11924.385569011813	39
0	57608	11926.178048230603	40
0	57609	11926.36762005754	39
0	57612	11927.323594003098	38
0	57637	11930.801924343597	39
0	57665	11936.369678394042	40
0	57694	11943.142123051286	39
0	57717	11948.24533640502	38
0	57730	11951.344432353433	37
0	57733	11952.432548014279	36
0	57737	11952.45320471493	37
0	57749	11954.711426968823	38
0	57750	11955.565856054258	37
0	57759	11957.342604470887	38
0	57760	11957.661951047295	37
0	57769	11959.034069823554	38
0	57771	11959.475125434712	39
0	57772	11959.681909920947	38
0	57776	11960.1033442479	39
0	57778	11960.265870179105	40
0	57784	11961.840901316257	39
0	57790	11962.218223661346	40
0	57794	11963.97146174025	39
0	57803	11965.325371693983	40
0	57804	11966.097946700661	39
0	57807	11967.18575718405	38
0	57811	11967.417517538656	39
0	57813	11967.951814725441	40
0	57814	11968.275928818456	39
0	57818	11968.48171830507	40
0	57819	11969.140690689649	39
0	57822	11970.020329914823	38
0	57826	11970.420608546686	39
0	57828	11971.063967837319	40
0	57829	11971.134009399939	39
0	57832	11972.24617634008	38
0	57836	11972.838595854644	39
0	57845	11973.710799536954	40
0	57864	11978.289996577356	39
0	57875	11979.53122652892	40
0	57904	11986.172914058645	39
0	57913	11987.949452383291	40
0	57914	11988.308764716261	39
0	57925	11989.561262881751	40
0	57942	11991.931177699716	41
0	57946	11993.85547607022	40
0	57955	11994.942782921792	41
0	57956	11995.795918550553	40
0	57959	11996.757871182753	39
0	57962	11997.891698427523	38
0	57965	11998.865703581764	37
0	57969	11999.049019581045	38
0	57971	11999.523074255825	39
0	57972	11999.683781194898	38
0	57978	12000.450525252869	39
0	57983	12000.935621975793	40
0	57984	12001.641646278954	39
0	57987	12002.449308673411	38
0	57990	12003.44852117731	37
0	57993	12004.412462862607	36
0	57997	12005.197291812693	37
0	57998	12005.597065717474	36
0	58002	12006.346026639485	37
0	58003	12006.736093341492	36
0	58007	12007.002788811318	37
0	58008	12007.917097134821	36
0	58012	12008.668123232993	37
0	58013	12008.979637879159	36
0	58016	12009.780311728481	35
0	58019	12010.841611962605	34
0	58022	12012.019155524976	33
0	58026	12012.626979800753	34
0	58028	12012.733467581679	35
0	58029	12013.159947368714	34
0	58033	12013.807529397843	35
0	58035	12013.930492659903	36
0	58036	12014.124074563502	35
0	58040	12014.266924923955	36
0	58041	12015.279778124883	35
0	58044	12016.3234787429	34
0	58047	12017.215632683715	33
0	58050	12018.262863388682	32
0	58054	12018.382546484763	33
0	58056	12018.965098693778	34
0	58060	12019.09115116823	35
0	58064	12020.162143790094	34
0	58067	12021.012784382539	33
0	58070	12022.020472749254	32
0	58074	12022.367312500823	33
0	58075	12022.991908436014	32
0	58079	12023.150774942111	33
0	58081	12023.409730479292	34
0	58082	12024.009520649097	33
0	58088	12024.225941794707	34
0	58093	12025.227274561215	35
0	58094	12026.092250500179	34
0	58103	12027.637745043182	35
0	58104	12028.267247588678	34
0	58112	12030.494661466802	33
0	58121	12031.665374402994	34
0	58122	12032.449144237513	33
0	58125	12033.513768918464	32
0	58128	12034.682180442592	31
0	58131	12035.523687856948	30
0	58134	12036.324240534311	29
0	58137	12037.279575942295	28
0	58141	12037.324649592116	29
0	58143	12037.603897531951	30
0	58145	12037.687835194322	31
0	58146	12038.081370327367	30
0	58149	12039.011817709009	29
0	58153	12039.662413895289	30
0	58155	12039.918166281066	31
0	58156	12039.923237429864	30
0	58160	12040.335124922995	31
0	58166	12041.854561539299	30
0	58170	12042.613540473616	31
0	58171	12042.704209369633	30
0	58175	12042.906242499262	31
0	58176	12043.828250112783	30
0	58180	12044.615976158091	31
0	58181	12044.786742324594	30
0	58184	12045.930095507975	29
0	58188	12046.060395931417	30
0	58190	12046.299589885606	31
0	58192	12046.323445771534	32
0	58193	12046.981514472819	31
0	58196	12048.137374385844	30
0	58199	12049.297286260339	29
0	58203	12049.495787267159	30
0	58204	12050.136083714875	29
0	58208	12050.597276461694	30
0	58210	12050.890997486341	31
0	58211	12051.140125812335	30
0	58214	12052.190710228054	29
0	58217	12053.121942799563	28
0	58221	12053.788690752369	29
0	58222	12053.995635237104	28
0	58226	12054.583193908947	29
0	58228	12054.733932628839	30
0	58229	12055.055477376307	29
0	58232	12056.049937060873	28
0	58235	12056.854414051424	27
0	58239	12057.158828470598	28
0	58241	12057.851443370692	29
0	58242	12057.902014409031	28
0	58245	12059.000751032799	27
0	58249	12060.075010888725	28
0	58250	12060.167078372769	27
0	58254	12060.591929851431	28
0	58256	12060.911869699444	29
0	58257	12061.199959501836	28
0	58261	12061.853516885696	29
0	58262	12062.189214389797	28
0	58266	12062.334089670013	29
0	58267	12063.220209204897	28
0	58270	12064.155754068985	27
0	58274	12064.483618405405	28
0	58275	12065.029252983748	27
0	58278	12066.164775801568	26
0	58282	12066.240819540112	27
0	58284	12066.686053305277	28
0	58285	12067.249318155485	27
0	58289	12067.478828168465	28
0	58291	12068.16301998872	29
0	58292	12068.323042035314	28
0	58296	12068.88167389852	29
0	58297	12069.319885221707	28
0	58301	12069.778707682064	29
0	58307	12071.361784854649	28
0	58310	12072.465719163815	27
0	58319	12073.622639570063	28
0	58321	12073.744072395316	29
0	58322	12074.542201940554	28
0	58335	12077.155009925763	27
0	58338	12078.16373406558	26
0	58354	12081.150760446766	27
0	58365	12082.644511479173	28
0	58400	12090.649244558091	27
0	58408	12091.700509978449	28
0	58416	12092.88126480127	29
0	58417	12093.747400676391	28
0	58421	12094.667709975822	29
0	58428	12095.692133847926	30
0	58429	12095.703713935638	29
0	58442	12096.987102476218	30
0	58474	12103.544298018686	31
0	58496	12108.875802770932	30
0	58499	12110.032705076155	29
0	58502	12110.847983456892	28
0	58511	12111.907169507581	29
0	58524	12113.739503774451	30
0	58544	12118.803899791953	29
0	58547	12119.773420185991	28
0	58560	12122.305330124706	27
0	58563	12123.345080581702	26
0	58567	12123.801817817043	27
0	58569	12123.820908127766	28
0	58570	12124.537202326324	27
0	58574	12125.299626793073	28
0	58586	12126.5545870911	29
0	58594	12127.213200188046	30
0	58609	12130.196545749244	31
0	58651	12139.982148867217	30
0	58654	12140.834914682643	29
0	58658	12141.368349170518	30
0	58675	12144.171831216996	31
0	58707	12149.936531933806	32
0	58708	12150.794936884032	31
0	58711	12151.7491305331	30
0	58715	12152.667165125269	31
0	58716	12152.726785170217	30
0	58720	12152.974133203165	31
0	58721	12153.571430473425	30
0	58735	12155.80152043388	31
0	58736	12156.665184347355	30
0	58745	12158.006850249138	31
0	58746	12158.635299625458	30
0	58754	12160.870807787521	29
0	58758	12160.957037533511	30
0	58765	12162.262628382521	31
0	58766	12163.109283208592	30
0	58769	12163.974725750672	29
0	58772	12164.817408124289	28
0	58776	12165.404968691747	29
0	58777	12165.923076914927	28
0	58781	12165.976243127268	29
0	58787	12167.693612909807	28
0	58790	12168.506279179199	27
0	58793	12169.604757874297	26
0	58797	12170.266142794005	27
0	58798	12170.434725864256	26
0	58801	12171.587365355553	25
0	58804	12172.767482839083	24
0	58807	12173.615649512434	23
0	58811	12174.558103118778	24
0	58812	12174.604018650507	23
0	58815	12175.740109581058	22
0	58818	12176.917981788912	21
0	58821	12177.950429200218	20
0	58825	12178.59348284017	21
0	58826	12179.107876921189	20
0	58830	12179.885976998981	21
0	58832	12180.014335275194	22
0	58833	12180.195057865814	21
0	58836	12181.361779708625	20
0	58840	12181.839401892862	21
0	58849	12183.016934138879	22
0	58866	12185.940329295827	23
0	58868	12185.961035216151	24
0	58888	12189.873655759589	25
0	58909	12192.356121109569	26
0	58914	12193.042971304262	27
0	58926	12194.929472402822	28
0	58940	12198.644260254524	27
0	58951	12199.794160111524	28
0	58953	12200.0552907551	29
0	58957	12201.520524997472	28
0	58963	12202.103038734344	29
0	58978	12205.481606425374	30
0	59034	12216.880645322077	29
0	59037	12217.733389242295	28
0	59045	12219.558684658561	27
0	59053	12221.49207042104	26
0	59061	12223.779114346788	25
0	59065	12224.101254919923	26
0	59067	12224.475467569599	27
0	59068	12224.822614144836	26
0	59071	12225.873183209379	25
0	59075	12226.853202466655	26
0	59076	12226.871170994942	25
0	59080	12227.507688460345	26
0	59081	12228.008423576807	25
0	59085	12228.559388820677	26
0	59087	12228.774317174349	27
0	59088	12228.947076375527	26
0	59091	12230.138778545918	25
0	59094	12231.127673136374	24
0	59098	12231.205448173336	25
0	59100	12231.297234177662	26
0	59102	12231.324635411804	27
0	59103	12231.985419940786	26
0	59107	12232.062823876507	27
0	59108	12232.99477730759	26
0	59111	12234.138114128099	25
0	59114	12235.075134736882	24
0	59117	12236.182253034716	23
0	59120	12237.053275401914	22
0	59124	12237.133161723917	23
0	59126	12237.293255676545	24
0	59133	12238.380958569569	25
0	59134	12239.138679833641	24
0	59142	12239.724699259598	25
0	59144	12239.867470147116	26
0	59146	12240.158011911831	27
0	59151	12240.289974916376	28
0	59170	12245.04878400548	27
0	59173	12246.091942157714	26
0	59177	12246.6278184058	27
0	59178	12246.99564035202	26
0	59187	12248.738070887896	27
0	59194	12249.289001461397	28
0	59205	12252.319250115124	27
0	59221	12254.455373498024	28
0	59240	12258.011946901711	29
0	59262	12263.799361385802	28
0	59273	12265.289273282355	29
0	59277	12266.883352285928	28
0	59280	12267.853731870769	27
0	59289	12269.248162718494	28
0	59298	12270.463872464191	29
0	59350	12280.941935259267	30
0	59364	12284.792271692425	29
0	59373	12286.181864499014	30
0	59374	12286.514513480876	29
0	59388	12288.929261043314	30
0	59390	12289.041256911873	31
0	59391	12289.566215295558	30
0	59394	12290.722061171596	29
0	59398	12291.399177951921	30
0	59399	12291.535421441988	29
0	59405	12292.238094467253	30
0	59412	12293.216093432987	31
0	59416	12294.760117071428	30
0	59419	12295.627684024469	29
0	59422	12296.550409514205	28
0	59425	12297.636602571075	27
0	59438	12299.71601931485	28
0	59446	12300.966921959688	29
0	59465	12304.534069501417	30
0	59494	12311.313888774187	29
0	59497	12312.401656946753	28
0	59501	12312.554795629463	29
0	59503	12313.451564621308	30
0	59504	12313.482582091194	29
0	59510	12313.765996204479	30
0	59514	12315.422892670453	29
0	59522	12317.352301382207	28
0	59530	12318.13768621348	29
0	59542	12320.052988509873	30
0	59547	12321.142722389047	31
0	59556	12323.187832958743	30
0	59564	12325.337874871239	29
0	59577	12326.871250331759	30
0	59579	12326.888552327723	31
0	59598	12329.890254554449	32
0	59613	12334.797179270561	31
0	59616	12335.877461507383	30
0	59620	12336.182031959188	31
0	59632	12338.09433715939	32
0	59636	12338.567596043183	33
0	59638	12338.820214810367	34
0	59642	12340.318674000285	33
0	59653	12342.016773186682	34
0	59677	12347.311695162883	33
0	59680	12348.255668726867	32
0	59684	12348.826155100878	33
0	59693	12349.983154369483	34
0	59707	12353.195120454417	33
0	59710	12354.328387139296	32
0	59714	12354.332764492554	33
0	59715	12355.299565697765	32
0	59723	12357.176039539302	31
0	59729	12357.600081308535	32
0	59736	12358.503448096057	33
0	59765	12363.09437688312	34
0	59772	12364.031834703989	35
0	59800	12370.418719857495	36
0	59801	12370.738570981033	35
0	59805	12371.231971573771	36
0	59806	12371.677974910501	35
0	59810	12371.819554518069	36
0	59812	12372.293137895442	37
0	59813	12372.791535809755	36
0	59819	12373.300021435373	37
0	59821	12373.689603390363	38
0	59826	12373.777059249004	39
0	59833	12375.453812814973	40
0	59834	12375.736879238139	39
0	59838	12375.959866804326	40
0	59845	12377.264498321303	41
0	59846	12377.902546054057	40
0	59867	12380.946151646632	41
0	59871	12382.414413531709	40
0	59875	12382.663137747728	41
0	59881	12384.285647138513	40
0	59885	12385.148735009128	41
0	59892	12385.570096917092	42
0	59901	12386.814359500756	43
0	59920	12391.305812304213	42
0	59923	12392.19440597289	41
0	59936	12393.614498431505	42
0	59938	12393.919228782624	43
0	59978	12401.632518003523	44
0	59997	12405.505300225064	43
0	60005	12407.516296180363	42
0	60009	12407.825037955538	43
0	60010	12408.324929820306	42
0	60016	12408.872222776227	43
0	60021	12409.742267945516	44
0	60022	12410.234451561912	43
0	60025	12411.182670748632	42
0	60028	12412.055337314333	41
0	60032	12412.477192237326	42
0	60041	12413.428970169611	43
0	60045	12415.258370579526	42
0	60053	12417.138801425443	41
0	60057	12417.395726909265	42
0	60068	12420.369447913049	41
0	60072	12420.615880237189	42
0	60074	12420.891603335993	43
0	60080	12422.347131329616	42
0	60086	12422.77254243767	43
0	60091	12423.663774530529	44
0	60093	12423.860546440067	45
0	60094	12424.271738193863	44
0	60097	12425.417735074581	43
0	60110	12428.132714567081	42
0	60113	12429.142102734585	41
0	60117	12429.232669615459	42
0	60119	12429.407685102167	43
0	60121	12429.4345394392	44
0	60122	12430.082204924457	43
0	60125	12431.160538889121	42
0	60133	12432.129304009464	43
0	60138	12432.997494233544	44
0	60142	12434.004327117678	43
0	60145	12434.995680338357	42
0	60149	12435.307028219782	43
0	60150	12435.800648033832	42
0	60154	12436.048798758155	43
0	60166	12437.832087080122	44
0	60167	12438.745142160383	43
0	60170	12439.79596439612	42
0	60187	12441.634070451765	43
0	60219	12447.522628397979	44
0	60237	12453.072212741177	43
0	60240	12454.170712509032	42
0	60254	12456.076481848168	43
0	60258	12456.767293191575	44
0	60277	12461.457556509812	43
0	60292	12463.425643319367	44
0	60327	12471.74147001964	43
0	60336	12473.386228846075	44
0	60352	12475.628167079583	45
0	60369	12480.00198423949	44
0	60372	12480.995581016437	43
0	60380	12483.011150611033	42
0	60384	12483.74787805282	43
0	60385	12484.132412528646	42
0	60389	12484.212955006516	43
0	60390	12485.22955200591	42
0	60396	12485.496181483338	43
0	60398	12485.868140454631	44
0	60402	12487.337103256424	43
0	60411	12489.156042895142	44
0	60412	12489.500514641617	43
0	60421	12490.907118496699	44
0	60427	12492.739769049202	43
0	60436	12494.448978667981	44
0	60437	12494.783669189204	43
0	60440	12495.806350827896	42
0	60444	12495.992760152264	43
0	60455	12498.394340388504	42
0	60463	12500.491971625415	41
0	60467	12500.65544609721	42
0	60471	12501.10730910581	43
0	60476	12501.824707382791	44
0	60477	12502.370479144649	43
0	60485	12504.4871333767	42
0	60488	12505.521324368035	41
0	60492	12505.694628454829	42
0	60493	12506.399294873448	41
0	60499	12506.712273443684	42
0	60504	12508.26568960629	43
0	60505	12508.445881390785	42
0	60509	12509.182983942807	43
0	60510	12509.553003746671	42
0	60514	12509.952580196628	43
0	60515	12510.697668439643	42
0	60519	12511.144670987867	43
0	60530	12513.4792281749	42
0	60533	12514.3424917131	41
0	60547	12516.285181004228	42
0	60549	12516.773285357298	43
0	60566	12519.24839814887	44
0	60567	12520.141218999334	43
0	60571	12520.387568644574	44
0	60572	12521.116308840763	43
0	60581	12522.487828497812	44
0	60582	12523.057676113143	43
0	60585	12523.920597668111	42
0	60589	12524.292304393581	43
0	60590	12524.848291737705	42
0	60604	12527.015826775991	43
0	60606	12527.53429124597	44
0	60632	12532.818558487695	43
0	60647	12534.52576473795	44
0	60652	12535.011270009382	45
0	60699	12545.712513305368	44
0	60702	12546.53435852251	43
0	60705	12547.630480811959	42
0	60711	12548.165262104565	43
0	60730	12551.458490442623	44
0	60737	12552.362349277858	45
0	60769	12559.363188453698	44
0	60784	12560.983850513935	45
0	60817	12568.476140440295	46
0	60826	12570.531090784658	45
0	60829	12571.41871245385	44
0	60849	12573.926017149911	45
0	60856	12575.326518036634	46
0	60861	12575.552158234236	47
0	60873	12579.69512898105	46
0	60882	12580.703584900898	47
0	60883	12581.653554704625	46
0	60892	12582.66814923325	47
0	60894	12583.063008793461	48
0	60895	12583.413655522771	47
0	60923	12589.535779682946	46
0	60927	12590.139688954793	47
0	60928	12590.569047619615	46
0	60949	12594.083917453974	47
0	60958	12595.257409539863	48
0	60985	12601.089625526991	47
0	61088	12619.676800718457	48
0	61105	12624.55136896933	47
0	61109	12625.335964495804	48
0	61110	12625.722124849377	47
0	61118	12626.514887123052	48
0	61123	12626.992501220895	49
0	61141	12629.307196757725	50
0	61269	12656.936477536546	49
0	61275	12657.458241836671	50
0	61282	12658.802524628949	51
0	61291	12661.157294316428	50
0	61294	12661.989420351504	49
0	61298	12662.152058984511	50
0	61305	12663.156389292376	51
0	61306	12664.111600731524	50
0	61309	12664.9471169282	49
0	61313	12665.228585935586	50
0	61314	12666.055553002401	49
0	61318	12666.53830955728	50
0	61319	12667.199358753978	49
0	61322	12668.102381612572	48
0	61326	12668.199481642279	49
0	61327	12669.276934990033	48
0	61330	12670.284072541471	47
0	61334	12671.309306532388	48
0	61335	12671.426067621193	47
0	61339	12671.48798776727	48
0	61340	12672.493613235585	47
0	61344	12673.267952852408	48
0	61345	12673.521672434199	47
0	61349	12674.101249858537	48
0	61351	12674.308557941701	49
0	61352	12674.402504308827	48
0	61356	12674.902628950778	49
0	61358	12675.094779674318	50
0	61360	12675.224115493147	51
0	61361	12675.497811063312	50
0	61364	12676.571295364413	49
0	61368	12676.765031955042	50
0	61369	12677.613578439157	49
0	61373	12677.978201700923	50
0	61374	12678.773254879217	49
0	61377	12679.867887579768	48
0	61381	12680.605321580314	49
0	61382	12680.68075233272	48
0	61390	12682.8620026815	47
0	61396	12683.394070607282	48
0	61415	12686.706582963052	49
0	61417	12686.921348846997	50
0	61424	12689.160499339297	49
0	61427	12690.001149779677	48
0	61430	12690.884373418267	47
0	61434	12691.034923032477	48
0	61456	12694.976450744206	49
0	61465	12695.889302154765	50
0	61534	12710.261088338706	49
0	61545	12711.501784124908	50
0	61549	12713.124104805782	49
0	61552	12714.180078490663	48
0	61556	12714.237648491675	49
0	61557	12715.348119519118	48
0	61560	12716.423011507027	47
0	61564	12716.52012370499	48
0	61565	12717.578381312013	47
0	61568	12718.515170628604	46
0	61572	12719.005983860185	47
0	61573	12719.378935102307	46
0	61576	12720.266145481848	45
0	61579	12721.103704546046	44
0	61583	12721.29223804783	45
0	61585	12721.869130596409	46
0	61592	12722.138682552102	47
0	61594	12722.239159249968	48
0	61595	12722.982001126584	47
0	61603	12725.18157316868	46
0	61611	12727.065163350504	45
0	61624	12730.336239329566	44
0	61635	12731.791838527075	45
0	61639	12733.203433702913	44
0	61648	12734.634724306727	45
0	61650	12735.036706784498	46
0	61651	12735.067097871778	45
0	61655	12736.127430263783	46
0	61656	12736.133849065871	45
0	61662	12736.907190775708	46
0	61664	12736.914964538673	47
0	61669	12737.401156152527	48
0	61670	12738.224867673711	47
0	61673	12739.258968776305	46
0	61676	12740.28566717862	45
0	61680	12740.394539270912	46
0	61681	12741.118932549123	45
0	61684	12742.020471409828	44
0	61688	12742.042455532822	45
0	61692	12742.537323727565	46
0	61707	12745.611491756886	47
0	61718	12748.044541059648	46
0	61722	12748.407487213233	47
0	61731	12749.781017832158	48
0	61735	12751.282358812382	47
0	61741	12752.360262291264	48
0	61750	12754.459620714867	47
0	61753	12755.488210023222	46
0	61761	12756.129713815847	47
0	61774	12758.37326638015	48
0	61780	12760.051282629584	47
0	61801	12763.564459272975	48
0	61805	12764.943086932628	47
0	61814	12766.383657515688	48
0	61815	12766.759110670007	47
0	61819	12766.953098887031	48
0	61820	12767.599609683669	47
0	61824	12767.849574401782	48
0	61825	12768.549427848711	47
0	61831	12769.322756765699	48
0	61840	12769.945611241908	49
0	61845	12770.678861222962	50
0	61870	12776.635730327716	51
0	61871	12777.232463802613	50
0	61880	12778.401039336545	51
0	61881	12779.27511765876	50
0	61894	12781.094830528751	51
0	61904	12782.694332250774	52
0	61908	12784.528880994982	51
0	61917	12785.685557065535	52
0	61918	12786.519028659101	51
0	61921	12787.414857272181	50
0	61925	12787.500193411587	51
0	61946	12792.182338561426	50
0	61952	12792.769623097444	51
0	61959	12793.897117104068	52
0	61963	12794.793249671656	51
0	61972	12795.656488305667	52
0	61973	12796.620899858169	51
0	61984	12797.754774793677	52
0	62008	12802.584510457444	53
0	62040	12808.616049234209	54
0	62068	12813.882138596447	55
0	62079	12816.916765920568	54
0	62082	12817.957299039822	53
0	62085	12819.145940801065	52
0	62091	12819.35972128082	53
0	62095	12821.458688069723	52
0	62103	12823.331613656721	51
0	62117	12825.404749008311	52
0	62128	12828.307725115894	51
0	62167	12835.700565408388	52
0	62181	12837.704599726419	53
0	62185	12839.072934162646	52
0	62191	12839.85083669723	53
0	62196	12840.119779610821	54
0	62197	12840.782082479104	53
0	62200	12841.719064118836	52
0	62209	12842.977263117158	53
0	62210	12843.3617373586	52
0	62214	12843.516645484764	53
0	62215	12844.515398125101	52
0	62221	12845.146557198407	53
0	62225	12846.498312649999	52
0	62231	12847.097052626774	53
0	62236	12848.239422578254	54
0	62237	12848.282397927653	53
0	62253	12850.504585041751	54
0	62262	12853.355896357477	53
0	62283	12857.092521764787	54
0	62322	12865.357135860094	53
0	62333	12866.528220700173	54
0	62342	12869.333591724591	53
0	62353	12870.420024971816	54
0	62362	12873.246153769953	53
0	62371	12875.238778639564	54
0	62372	12875.293029108116	53
0	62380	12877.25524663295	52
0	62383	12878.122575318006	51
0	62389	12878.890276583268	52
0	62394	12879.576765642938	53
0	62395	12879.938813669638	52
0	62403	12881.873934322534	51
0	62407	12882.252244507941	52
0	62413	12883.879074180902	51
0	62421	12885.743263648854	50
0	62435	12887.935763032276	51
0	62437	12887.976379174875	52
0	62444	12889.27186328392	53
0	62445	12889.663708558244	52
0	62454	12890.833255498289	53
0	62456	12891.065984554648	54
0	62457	12891.901474108672	53
0	62470	12894.894555279272	52
0	62481	12896.275270534441	53
0	62491	12897.866108497439	54
0	62497	12899.992407887089	53
0	62505	12901.792532658331	52
0	62509	12901.908661225505	53
0	62510	12902.990563979871	52
0	62513	12903.885653538569	51
0	62516	12904.900766483075	50
0	62524	12906.9649934647	49
0	62527	12908.141504891622	48
0	62531	12908.434755576411	49
0	62538	12909.760962357332	50
0	62539	12910.392211972769	49
0	62542	12911.466571941353	48
0	62561	12914.482254352101	49
0	62563	12914.798306529229	50
0	62564	12915.008679035712	49
0	62568	12915.04615361992	50
0	62574	12916.885743352898	49
0	62578	12917.435565381107	50
0	62579	12917.746186333556	49
0	62583	12918.089484872861	50
0	62590	12918.70940148029	51
0	62591	12919.758846455381	50
0	62599	12920.446532942082	51
0	62601	12920.78580616944	52
0	62606	12921.104122408974	53
0	62608	12921.675675498094	54
0	62618	12922.992115065778	55
0	62619	12923.993067833908	54
0	62622	12924.870455741264	53
0	62625	12925.675363947671	52
0	62629	12925.680167764326	53
0	62633	12926.009233924375	54
0	62640	12926.95912431266	55
0	62645	12928.356853333757	56
0	62646	12928.785720992308	55
0	62655	12930.325849069899	56
0	62671	12933.620561281158	55
0	62679	12935.487552857989	54
0	62688	12936.625650085962	55
0	62689	12937.522452490808	54
0	62692	12938.472667716009	53
0	62696	12938.596874209304	54
0	62697	12939.66974138276	53
0	62701	12940.180732575094	54
0	62708	12940.777465659557	55
0	62709	12941.509262969469	54
0	62712	12942.612800521714	53
0	62716	12943.241124957151	54
0	62717	12943.731725506702	53
0	62731	12946.251663005069	54
0	62747	12949.439054511518	53
0	62756	12950.55985285126	54
0	62767	12953.6739131586	53
0	62786	12956.681967810617	54
0	62787	12957.810512449437	53
0	62793	12958.06520718302	54
0	62797	12959.888223327634	53
0	62813	12962.270614502474	54
0	62817	12963.556625933044	53
0	62820	12964.613034191385	52
0	62826	12965.030412873123	53
0	62828	12965.362133388773	54
0	62832	12966.497116972443	53
0	62835	12967.333267113783	52
0	62839	12967.487450569448	53
0	62845	12969.287297028893	52
0	62848	12970.325290500497	51
0	62852	12970.838071811376	52
0	62853	12971.23325584953	51
0	62856	12972.301041561303	50
0	62859	12973.125133721934	49
0	62863	12973.52241756435	50
0	62865	12973.873014598227	51
0	62866	12974.174915471983	50
0	62870	12974.190724714523	51
0	62872	12974.706126841455	52
0	62873	12975.18344824224	51
0	62879	12975.683181664674	52
0	62891	12978.071513210472	53
0	62920	12985.054557036451	52
0	62923	12986.139394286304	51
0	62929	12987.267516118805	52
0	62941	12988.497587573995	53
0	62950	12991.11036493688	52
0	62953	12992.285163695022	51
0	62961	12992.825534436729	52
0	62974	12995.594365216344	53
0	62975	12995.966132702893	52
0	62988	12997.337381405008	53
0	63005	13002.085132855485	52
0	63008	13003.026128442428	51
0	63012	13003.768941434692	52
0	63018	13005.284624000108	51
0	63028	13005.518514144171	52
0	63038	13008.914462290546	51
0	63051	13010.92642864169	52
0	63058	13011.17419108194	53
0	63100	13021.419500535009	52
0	63108	13023.273631220152	51
0	63112	13024.052431507384	52
0	63134	13027.229536780806	53
0	63195	13039.104844941786	52
0	63208	13040.802047515514	53
0	63250	13048.313717971124	54
0	63272	13052.348211382273	55
0	63304	13060.467683016352	54
0	63313	13061.983079226523	55
0	63314	13062.686784730322	54
0	63318	13063.512808906638	55
0	63319	13063.529645971704	54
0	63322	13064.574133870873	53
0	63331	13066.070075997322	54
0	63350	13069.260230868044	55
0	63355	13069.976610284499	56
0	63357	13070.400339365515	57
0	63358	13070.588927094388	56
0	63366	13072.45213700452	55
0	63377	13073.840593890577	56
0	63379	13073.874902809485	57
0	63384	13074.392339305177	58
0	63385	13075.135044181655	57
0	63388	13076.273492342356	56
0	63391	13077.47259197117	55
0	63395	13077.681123972464	56
0	63397	13077.893351769097	57
0	63406	13079.418977292616	58
0	63410	13080.419207739394	57
0	63414	13080.741564882289	58
0	63420	13082.153245914571	57
0	63433	13083.333846737055	58
0	63455	13088.989959229932	57
0	63464	13089.958711576436	58
0	63475	13092.877466483818	57
0	63478	13093.930033456659	56
0	63486	13094.463057006934	57
0	63491	13095.518266128187	58
0	63496	13096.457168965188	59
0	63497	13097.219317545028	58
0	63510	13098.705454375347	59
0	63517	13101.524850513166	58
0	63526	13102.6588029808	59
0	63527	13103.699708431339	58
0	63530	13104.590217699422	57
0	63533	13105.487486382792	56
0	63536	13106.411322874421	55
0	63540	13106.495474253833	56
0	63542	13106.648592153024	57
0	63543	13107.238910683555	56
0	63552	13108.560121004918	57
0	63559	13109.501658603358	58
0	63560	13109.699672088432	57
0	63563	13110.679587596501	56
0	63571	13112.923441084972	55
0	63574	13113.727236936739	54
0	63577	13114.542945953397	53
0	63583	13115.404795823788	54
0	63585	13115.431837399601	55
0	63589	13116.427833907617	54
0	63593	13116.737327327332	55
0	63595	13117.173781979983	56
0	63596	13117.330927278599	55
0	63600	13117.535373040857	56
0	63601	13118.159401410664	55
0	63604	13119.16085082212	54
0	63607	13120.217062203712	53
0	63611	13120.223485899317	54
0	63613	13120.883732102298	55
0	63614	13121.380533419117	54
0	63618	13121.811360285308	55
0	63619	13122.411441933676	54
0	63622	13123.278543967414	53
0	63626	13123.520442783741	54
0	63628	13123.980540570328	55
0	63629	13124.287195917624	54
0	63633	13125.187510282387	55
0	63634	13125.39294936148	54
0	63638	13125.436879147645	55
0	63640	13126.394284153993	56
0	63641	13126.481386801447	55
0	63645	13126.9204029902	56
0	63647	13126.973612946657	57
0	63648	13127.349933521296	56
0	63651	13128.450119676101	55
0	63655	13128.732568068004	56
0	63657	13129.062960188456	57
0	63658	13129.288951367359	56
0	63667	13130.966355960818	57
0	63668	13131.160343161817	56
0	63672	13131.214109582339	57
0	63678	13133.10085464682	56
0	63681	13133.946758878823	55
0	63685	13134.152932399627	56
0	63687	13134.29840072242	57
0	63694	13135.599177226674	58
0	63695	13136.075154444515	57
0	63698	13137.069522056761	56
0	63701	13138.104223674568	55
0	63707	13138.27006112588	56
0	63714	13139.415630189125	57
0	63718	13141.001239665816	56
0	63721	13141.896285358383	55
0	63730	13143.33015157465	56
0	63732	13143.768816566454	57
0	63733	13143.831031579277	56
0	63739	13144.37932229303	57
0	63744	13144.906864491009	58
0	63745	13145.799881059336	57
0	63753	13147.931543584107	56
0	63756	13148.752470422289	55
0	63759	13149.775897585912	54
0	63763	13149.907923066924	55
0	63769	13151.702236762768	54
0	63782	13153.298683394553	55
0	63789	13154.445222220179	56
0	63806	13158.416172410673	55
0	63809	13159.514348263326	54
0	63812	13160.489826024449	53
0	63816	13160.907595585186	54
0	63817	13161.346069168238	53
0	63821	13161.558911503955	54
0	63828	13162.905613776876	55
0	63829	13163.255195004804	54
0	63850	13167.423107712215	55
0	63852	13167.472922732631	56
0	63856	13168.319141846368	55
0	63864	13170.156713077365	54
0	63870	13170.356966426258	55
0	63879	13171.315417813198	56
0	63896	13175.995261823791	55
0	63920	13180.612718850445	56
0	63921	13181.305017651744	55
0	63932	13183.44112466837	56
0	63949	13186.2605887006	57
0	63969	13190.425656457806	58
0	63970	13190.595142181809	57
0	63973	13191.72691272547	56
0	63979	13192.140709940978	57
0	63984	13192.89410929409	58
0	63986	13193.178490848664	59
0	63987	13193.912955334163	58
0	64006	13197.366361045559	59
0	64013	13198.735760746383	60
0	64014	13199.166780179119	59
0	64025	13201.11681273879	60
0	64029	13202.213834415409	59
0	64040	13203.40939397073	60
0	64059	13207.813442998877	59
0	64068	13209.244285697865	60
0	64069	13209.968073993302	59
0	64072	13211.106851680051	58
0	64076	13212.08465944825	59
0	64077	13212.246945642434	58
0	64081	13212.338286991031	59
0	64082	13213.260571035404	58
0	64091	13215.06029436804	59
0	64092	13215.197718663268	58
0	64101	13216.427400826669	59
0	64103	13216.761927191783	60
0	64104	13217.544513411574	59
0	64107	13218.464193206593	58
0	64110	13219.658782143458	57
0	64114	13219.678046973113	58
0	64115	13220.535057202014	57
0	64118	13221.425247898637	56
0	64122	13222.28848617804	57
0	64123	13222.328410770031	56
0	64129	13222.55749422172	57
0	64131	13222.795694323046	58
0	64135	13224.455378780267	57
0	64143	13225.05094659665	58
0	64151	13227.491947103863	59
0	64160	13227.953397374389	60
0	64172	13230.194961674241	61
0	64194	13233.991283684323	62
0	64203	13236.701925731296	61
0	64206	13237.53820421522	60
0	64209	13238.39996510114	59
0	64212	13239.503801620318	58
0	64216	13240.261620559075	59
0	64218	13240.348962013291	60
0	64219	13240.37985659515	59
0	64225	13240.661984839575	60
0	64230	13241.583866234678	61
0	64231	13242.314094610451	60
0	64239	13244.349370577125	59
0	64242	13245.375470323147	58
0	64251	13246.860492471217	59
0	64252	13247.3383288137	58
0	64260	13249.179886998826	57
0	64264	13249.252628485206	58
0	64270	13251.044838180237	57
0	64274	13251.160134370245	58
0	64275	13252.219877622866	57
0	64284	13253.372843879228	58
0	64286	13253.972791797294	59
0	64287	13254.189131051519	58
0	64290	13255.022727697373	57
0	64293	13256.013910839085	56
0	64296	13256.993150492136	55
0	64299	13257.828132349469	54
0	64303	13258.452567192606	55
0	64304	13258.756561469596	54
0	64308	13259.195675780265	55
0	64309	13259.926805496991	54
0	64313	13260.511454595302	55
0	64314	13261.105812871207	54
0	64317	13262.121962220438	53
0	64320	13263.084103427578	52
0	64326	13263.397730554323	53
0	64330	13264.836210083153	52
0	64338	13266.910614676337	51
0	64342	13267.717600571274	52
0	64343	13267.788501228514	51
0	64349	13268.847144575819	52
0	64354	13269.113435369996	53
0	64355	13269.92356500228	52
0	64364	13271.700705157882	53
0	64365	13271.710387370858	52
0	64369	13272.625994921905	53
0	64370	13272.872024210106	52
0	64379	13274.868388107872	53
0	64380	13275.018577662978	52
0	64388	13277.224554064527	51
0	64397	13278.331314889848	52
0	64399	13279.046085199301	53
0	64400	13279.182804328512	52
0	64409	13280.499385633282	53
0	64411	13280.604925263552	54
0	64413	13280.870690659494	55
0	64414	13281.235806430999	54
0	64423	13283.400174772173	55
0	64424	13283.487632543716	54
0	64433	13284.599825944503	55
0	64434	13285.667936905502	54
0	64438	13285.705845098589	55
0	64440	13286.3481979213	56
0	64441	13286.520844924199	55
0	64444	13287.430671180254	54
0	64452	13289.2070494382	53
0	64456	13290.014309522259	54
0	64457	13290.293089925806	53
0	64466	13291.231645859309	54
0	64467	13292.322659460577	53
0	64471	13293.029742074966	54
0	64473	13293.058331331115	55
0	64480	13294.048032323956	56
0	64484	13294.188292495913	57
0	64486	13294.216784349708	58
0	64491	13294.694998488507	59
0	64507	13298.368290274247	58
0	64518	13299.737697388582	59
0	64522	13301.542536811187	58
0	64531	13302.971048091299	59
0	64532	13303.638454481895	58
0	64541	13305.095543936376	59
0	64542	13305.744264792307	58
0	64545	13306.767651890061	57
0	64548	13307.701846809155	56
0	64554	13308.257123585516	57
0	64559	13308.945286573409	58
0	64571	13310.92625537067	59
0	64572	13311.005679836245	58
0	64583	13312.206709486305	59
0	64587	13314.035521707153	58
0	64596	13314.951445975476	59
0	64607	13317.994933430041	58
0	64610	13318.855878316081	57
0	64614	13319.21606977382	58
0	64615	13320.053771820973	57
0	64619	13320.203605321095	58
0	64620	13321.158434179361	57
0	64624	13321.78384432282	58
0	64625	13322.312071731809	57
0	64629	13322.639560783353	58
0	64630	13323.113810500718	57
0	64633	13323.993745980348	56
0	64637	13324.530694233677	57
0	64639	13324.890775446811	58
0	64640	13324.931190671615	57
0	64644	13325.535117813051	58
0	64645	13325.803593716614	57
0	64649	13326.136574816777	58
0	64651	13326.696390543884	59
0	64652	13326.813972927474	58
0	64656	13327.292245413115	59
0	64657	13327.845263740451	58
0	64661	13328.5825040938	59
0	64662	13328.675007892151	58
0	64666	13328.975847305891	59
0	64667	13329.64189843762	58
0	64670	13330.443701079332	57
0	64674	13330.55503961635	58
0	64675	13331.287604391326	57
0	64679	13331.683220515254	58
0	64681	13332.22270468343	59
0	64682	13332.299248885021	58
0	64685	13333.132437243436	57
0	64689	13333.161133209983	58
0	64691	13333.901090406889	59
0	64692	13334.305012382783	58
0	64695	13335.317113939516	57
0	64699	13335.35505720873	58
0	64701	13336.080755435733	59
0	64702	13336.389690568328	58
0	64705	13337.290084361408	57
0	64709	13337.6124277632	58
0	64711	13338.121919889626	59
0	64712	13338.36395235195	58
0	64721	13340.373226072174	59
0	64722	13340.501234877325	58
0	64726	13340.638364301947	59
0	64727	13341.657381546433	58
0	64731	13342.609227988795	59
0	64732	13342.709022052149	58
0	64738	13343.310546951624	59
0	64748	13344.941615295066	60
0	64750	13344.963426449053	61
0	64751	13345.999203603743	60
0	64754	13347.031006740621	59
0	64758	13347.186466186116	60
0	64759	13347.937174512661	59
0	64768	13349.375040684683	60
0	64769	13349.629524560022	59
0	64772	13350.824021530366	58
0	64775	13351.771204320183	57
0	64779	13352.105605176206	58
0	64780	13352.634857573388	57
0	64784	13353.191634469319	58
0	64785	13353.81137740084	57
0	64788	13354.707138686842	56
0	64791	13355.573819755512	55
0	64800	13357.396748416184	56
0	64802	13357.54619574415	57
0	64803	13357.72706295888	56
0	64812	13359.458538367077	57
0	64813	13359.643530029925	56
0	64822	13360.711318408104	57
0	64823	13361.648667803342	56
0	64826	13362.613344633421	55
0	64835	13363.782690954871	56
0	64836	13364.610027594427	55
0	64845	13366.329050327863	56
0	64846	13366.65368590274	55
0	64850	13367.109128448892	56
0	64851	13367.821817255142	55
0	64854	13368.670411130722	54
0	64858	13368.721713028389	55
0	64859	13369.577137620311	54
0	64862	13370.454775234341	53
0	64865	13371.266261620662	52
0	64869	13371.548423255705	53
0	64870	13372.360106497194	52
0	64874	13372.700092638724	53
0	64875	13373.52540185324	52
0	64878	13374.560347553371	51
0	64881	13375.510312274034	50
0	64890	13376.819018037464	51
0	64891	13377.38306768586	50
0	64894	13378.192595519992	49
0	64898	13378.394138298759	50
0	64899	13379.017937222151	49
0	64902	13379.850782750575	48
0	64906	13379.888832335078	49
0	64913	13381.204893290789	50
0	64914	13382.04243531202	49
0	64918	13382.295089437003	50
0	64919	13383.119300234253	49
0	64925	13384.286558840485	50
0	64930	13384.698510702658	51
0	64931	13385.140074224333	50
0	64934	13385.97692746616	49
0	64938	13386.959693531623	50
0	64939	13387.032721872749	49
0	64945	13387.465783361554	50
0	64950	13388.881951920539	51
0	64951	13388.934463608107	50
0	64957	13389.829253878037	51
0	64959	13389.839006778465	52
0	64964	13390.7859140519	53
0	64965	13391.153292925497	52
0	64973	13393.290367874996	51
[...]
9	138481	28475.899302770453	0
9	138484	28475.96865206532	1
9	138487	28476.847037753219	2
9	138494	28478.55050879306	1
9	138499	28479.006712787163	0
9	138507	28481.028000748287	1
9	138509	28481.287846956071	0
9	138512	28482.116557972728	1
9	138514	28482.664126754105	0
9	138517	28483.015071798152	1
9	138522	28483.912951551414	2
9	138524	28484.504865178867	1
9	138530	28485.847741621583	2
9	138532	28486.015057804372	1
9	138536	28486.499464260595	0
9	138544	28487.867131259608	1
9	138546	28488.376618886288	0
9	138549	28488.829949258025	1
9	138551	28489.809584155602	0
9	138596	28497.988139948844	1
9	138598	28498.465730913322	0
9	138604	28500.058315772786	1
9	138606	28500.33183115033	0
9	138612	28502.032537413798	1
9	138614	28502.658537336039	0
9	138627	28504.65057432143	1
9	138629	28505.19811575772	0
9	138666	28511.423673459365	1
9	138669	28512.614288111254	2
9	138671	28513.089581640047	1
9	138678	28514.351394787188	0
9	138681	28514.887262548636	1
9	138683	28515.526841857636	0
9	138711	28520.666749552209	1
9	138713	28520.753901592066	0
9	138716	28521.662873341926	1
9	138718	28521.677261894591	0
9	138754	28530.21838058386	1
9	138762	28532.556140111038	0
9	138768	28534.239985958896	1
9	138773	28535.33590848486	0
9	138801	28541.223964229449	1
9	138803	28541.87340379743	0
9	138862	28553.043052163011	1
9	138864	28553.788921201428	0
9	138867	28554.090303082148	1
9	138870	28554.989871249291	2
9	138872	28555.3245781025	1
9	138879	28556.28893989688	0
9	138910	28563.469433251059	1
9	138936	28569.982016403428	0
9	138951	28572.953477170447	1
9	138953	28573.750574146623	0
9	138985	28578.890734440589	1
9	138988	28579.82038967436	2
9	138990	28580.46519498213	1
9	138993	28580.721872186137	2
9	138995	28581.09300012228	1
9	138998	28581.523591331428	2
9	139000	28581.650091641726	1
9	139002	28582.332315221117	0
9	139005	28582.54529855022	1
9	139007	28582.984248843016	0
9	139010	28583.38491535926	1
9	139012	28583.468654311322	0
9	139029	28586.634004111623	1
9	139031	28587.117490418195	0
9	139034	28587.68892523892	1
9	139037	28588.507233127335	2
9	139039	28589.277890125006	1
9	139044	28589.347100974468	2
9	139046	28589.996830387157	1
9	139048	28590.476426216933	0
9	139051	28590.508647036215	1
9	139053	28591.134358872901	0
9	139114	28603.708284326119	1
9	139117	28604.782351000456	2
9	139120	28605.955219368206	3
9	139122	28606.893331015577	2
9	139125	28607.144461651833	3
9	139129	28608.082888381224	2
9	139132	28608.127201052976	3
9	139135	28608.981793830765	4
9	139150	28613.194347036649	3
9	139157	28614.108479383642	2
9	139160	28614.212708978762	3
9	139168	28614.873686282104	2
9	139173	28615.806319177427	1
9	139176	28616.100305265502	2
9	139178	28616.629277093112	1
9	139183	28617.342893677505	0
9	139186	28617.7776457433	1
9	139188	28618.357177261427	0
9	139228	28625.697260830306	1
9	139230	28626.196673653716	0
9	139233	28626.516845674381	1
9	139235	28627.009155169244	0
9	139238	28627.581860283237	1
9	139241	28628.757282980286	2
9	139243	28629.507265986475	1
9	139245	28629.60974650469	0
9	139251	28630.644725657754	1
9	139255	28630.978961294544	0
9	139260	28631.516056890913	1
9	139265	28632.706690773216	2
9	139268	28633.686753029038	3
9	139270	28634.301124821782	2
9	139273	28634.770660459564	3
9	139275	28635.178083037748	2
9	139277	28635.501154770079	1
9	139280	28635.677872947079	2
9	139282	28636.33773079214	1
9	139284	28636.364982454656	0
9	139287	28636.751965128944	1
9	139291	28637.138021476016	0
9	139294	28637.892989798576	1
9	139296	28638.063977664814	0
9	139306	28639.765597660687	1
9	139308	28639.820508439315	0
9	139344	28646.139974175241	1
9	139346	28646.262516090642	0
9	139359	28648.98430528821	1
9	139361	28649.618770156839	0
9	139377	28653.087273243289	1
9	139379	28653.221536289726	0
9	139382	28653.910940841525	1
9	139387	28655.378217015317	0
9	139390	28656.158066622201	1
9	139393	28656.975940193083	2
9	139395	28657.390580123385	1
9	139398	28658.092579016495	2
9	139400	28658.127136007253	1
9	139403	28659.201441219761	2
9	139405	28659.586227675983	1
9	139407	28659.604987997373	0
9	139410	28660.194067392251	1
9	139412	28661.144176047415	0
9	139415	28661.208523827637	1
9	139417	28661.240504749997	0
9	139427	28663.231828564437	1
9	139429	28663.827235586607	0
9	139432	28664.408375991633	1
9	139436	28665.372649148629	0
9	139439	28665.395512049584	1
9	139442	28666.215163985299	2
9	139444	28666.860450805329	1
9	139447	28667.352415840639	2
9	139449	28668.057874402825	1
9	139455	28669.253547058845	2
9	139457	28669.997376058901	1
9	139460	28670.382879245779	2
9	139462	28670.697478661993	1
9	139465	28671.569181714332	2
9	139467	28671.753567216205	1
9	139469	28672.362308063878	0
9	139516	28682.136977511119	1
9	139518	28682.997115771547	0
9	139606	28700.43197095733	1
9	139608	28700.677436479888	0
9	139830	28748.830631701686	1
9	139835	28750.352427830948	0
9	139848	28752.887464847081	1
9	139852	28753.177858063635	0
9	139865	28755.893525070083	1
9	139867	28756.262024944572	0
9	139962	28774.588098079654	1
9	139964	28774.699239611727	0
9	139979	28778.021351354791	1
9	139981	28778.831765777097	0
9	139984	28778.919353010914	1
9	139986	28779.963133089744	0
9	139989	28780.09898675898	1
9	139991	28780.108234838003	0
9	139994	28780.932611429169	1
9	139996	28781.224789552347	0
9	139999	28781.97498128483	1
9	140003	28782.548616411116	0
9	140006	28783.111744229346	1
9	140009	28784.043399430289	2
9	140011	28784.101067449826	1
9	140013	28784.680669144114	0
9	140016	28785.16973355919	1
9	140018	28785.356338556546	0
9	140047	28792.304241601787	1
9	140049	28792.915583588039	0
9	140069	28796.523804644532	1
9	140074	28797.584003663757	0
9	140097	28802.354419039506	1
9	140104	28803.333666478789	0
9	140107	28804.113478873148	1
9	140109	28804.232852655808	0
9	140119	28806.071966521758	1
9	140122	28807.077732219211	2
9	140124	28807.729742749299	1
9	140128	28807.78336905668	0
9	140136	28809.169384313039	1
9	140138	28809.801881076902	0
9	140141	28809.999535563439	1
9	140144	28810.820342944041	2
9	140147	28811.723340908382	3
9	140152	28812.6292775333	2
9	140156	28813.238642320745	1
9	140164	28814.64011315288	2
9	140166	28815.115683155292	1
9	140169	28815.443478310704	2
9	140171	28815.911158512815	1
9	140177	28817.360340946205	2
9	140179	28818.05338099926	1
9	140185	28819.104290345349	2
9	140187	28819.221181900234	1
9	140194	28820.950070200444	0
9	140202	28822.161031318679	1
9	140204	28823.040301617303	0
9	140207	28823.097607313599	1
9	140209	28823.914030604326	0
9	140239	28828.979352635182	1
9	140241	28828.989761265058	0
9	140501	28883.354630760696	1
9	140503	28884.007944545329	0
9	140708	28925.492212065433	1
9	140710	28925.874428174325	0
9	140924	28969.907851826988	1
9	140931	28970.945894664174	0
9	140939	28972.869396812498	1
9	140941	28973.1887197878	0
9	140956	28975.67734867775	1
9	140959	28976.494358000933	2
9	140966	28978.005164215958	1
9	140968	28978.459320900476	0
9	140995	28982.719686906255	1
9	140998	28983.691750210366	2
9	141000	28984.200840943784	1
9	141003	28984.869871724426	2
9	141008	28985.835363025061	3
9	141013	28986.692696421809	4
9	141015	28987.289763999627	3
9	141018	28987.634176602151	4
9	141020	28988.151105558425	3
9	141023	28988.78850866913	4
9	141025	28989.174586989674	3
9	141032	28990.332784343955	2
9	141034	28990.754827314964	1
9	141037	28990.86398213937	2
9	141039	28991.101683375439	1
9	141041	28991.452251290006	0
9	141044	28991.742342591966	1
9	141046	28992.64027999697	0
9	141049	28992.800175542785	1
9	141056	28994.386915498431	0
9	141059	28994.840849340363	1
9	141061	28994.879368130229	0
9	141064	28995.651483052811	1
9	141066	28996.299303017293	0
9	141069	28996.775352184596	1
9	141074	28997.754435931175	2
9	141077	28998.769690316386	3
9	141079	28999.089702771954	2
9	141082	28999.651357298094	3
9	141084	28999.930493790822	2
9	141087	29000.726293653651	3
9	141089	29000.915541208429	2
9	141092	29001.607418423827	3
9	141094	29001.865308974747	2
9	141102	29003.768792143493	3
9	141105	29004.740352851368	4
9	141108	29005.560068913299	5
9	141110	29005.724732545158	4
9	141112	29006.185785387444	3
9	141119	29006.828742580164	2
9	141124	29007.494150301005	3
9	141126	29007.701167103199	2
9	141128	29008.213511146691	1
9	141134	29009.599752470508	2
9	141136	29010.306033738664	1
9	141138	29010.335048974543	0
9	141141	29010.462134249724	1
9	141145	29011.299099457299	0
9	141153	29012.731537648692	1
9	141156	29013.608762793924	2
9	141159	29014.721245259914	3
9	141161	29015.567195277887	2
9	141163	29015.863940198484	1
9	141166	29015.894421922538	2
9	141168	29016.783722403793	1
9	141171	29017.042968815967	2
9	141173	29017.073977983414	1
9	141175	29017.810427276442	0
9	141178	29018.23867369502	1
9	141180	29018.257704963092	0
9	141196	29022.296339075575	1
9	141198	29022.883091627392	0
9	141209	29025.480028675338	1
9	141211	29026.458419586618	0
9	141214	29026.536874383809	1
9	141216	29026.53939803493	0
9	141259	29035.498552383882	1
9	141261	29036.109376717282	0
9	141264	29036.665904489373	1
9	141266	29036.832490023228	0
9	141269	29037.62384818674	1
9	141271	29037.811564799449	0
9	141279	29039.849943346092	1
9	141282	29040.954199934406	2
9	141285	29041.909332408132	3
9	141290	29043.064662874592	2
9	141292	29043.495025504508	1
9	141298	29044.607803977123	2
9	141305	29045.719342890131	3
9	141311	29047.6158845858	4
9	141313	29047.674495084671	3
9	141318	29048.736391785395	2
9	141320	29049.082068274873	1
9	141325	29049.672097626171	2
9	141327	29050.205350164935	1
9	141329	29050.228218904348	0
9	141344	29052.800490112445	1
9	141346	29053.2657582896	0
9	141349	29053.972049598518	1
9	141351	29054.312650952317	0
9	141359	29055.764440494805	1
9	141361	29056.016787988511	0
9	141388	29060.910308565043	1
9	141391	29061.773613380019	2
9	141393	29062.281338051719	1
9	141395	29062.737665857962	0
9	141398	29062.839945905406	1
9	141400	29062.895394661286	0
9	141403	29063.689686577797	1
9	141405	29063.793948973912	0
9	141446	29073.329276523397	1
9	141448	29073.354812634844	0
9	141511	29086.292024261906	1
9	141513	29086.458005786572	0
9	141582	29101.353952042043	1
9	141584	29101.883909027071	0
9	141595	29104.236342825863	1
9	141597	29104.937595857808	0
9	141609	29106.396043165244	1
9	141611	29106.411849172014	0
9	141629	29109.972794365354	1
9	141634	29110.871561699391	2
9	141639	29111.794654058449	1
9	141641	29111.824830024875	0
9	141661	29115.535872915138	1
9	141664	29116.361244431261	2
9	141666	29116.559372439826	1
9	141674	29118.343848526973	2
9	141676	29118.791178263215	1
9	141683	29119.513148339959	0
9	141688	29120.121819077928	1
9	141690	29120.366903964014	0
9	141703	29122.930533575483	1
9	141705	29123.04745680079	0
9	142087	29203.466084031143	1
9	142109	29208.084141891689	0
9	142193	29221.089834381952	1
9	142195	29221.312557343403	0
9	142198	29222.067979103732	1
9	142202	29222.438769822368	0
9	142205	29223.11664831595	1
9	142208	29223.945402616574	2
9	142210	29224.071156843367	1
9	142213	29224.850917180473	2
9	142215	29225.595118943668	1
9	142218	29225.865141792906	2
9	142220	29226.0278676241	1
9	142226	29227.731393799682	2
9	142231	29229.784912983653	1
9	142236	29230.08296307179	0
9	142264	29236.051494678607	1
9	142266	29236.737737971525	0
9	142465	29279.50578912546	1
9	142467	29279.934863290744	0
9	142470	29280.502692694711	1
9	142474	29281.391594197985	0
9	142631	29312.343871212312	1
9	142633	29312.381093496856	0
9	142636	29313.503620350574	1
9	142638	29314.079713111283	0
9	142641	29314.573144989022	1
9	142643	29315.015782327429	0
9	142646	29315.620238804937	1
9	142648	29316.484821084229	0
9	142651	29316.795691813555	1
9	142654	29317.75426209255	2
9	142656	29318.330358204828	1
9	142658	29318.607242009698	0
9	142701	29326.60773504882	1
9	142706	29327.594269482366	0
9	142736	29333.433782595515	1
9	142738	29333.640975184785	0
9	142741	29334.60151808786	1
9	142744	29335.441544862304	2
9	142751	29337.193716395756	1
9	142756	29338.062903850542	0
9	142759	29338.478215013751	1
9	142761	29338.576822135318	0
9	142784	29343.471709272293	1
9	142788	29344.331449047501	0
9	142794	29345.432775092339	1
9	142799	29347.309990334348	0
9	142841	29354.551024764526	1
9	142846	29355.680862237542	2
9	142851	29357.0353616175	1
9	142853	29357.19331011364	0
9	142861	29358.940358963451	1
9	142863	29359.262022512845	0
9	142866	29359.868087088531	1
9	142873	29361.119651591534	0
9	142876	29361.528112228429	1
9	142878	29361.898208273057	0
9	142891	29364.836523267282	1
9	142893	29365.018826090886	0
9	142904	29367.785592554258	1
9	142906	29368.115499222007	0
9	142928	29372.263295957474	1
9	142930	29372.267424483534	0
9	142945	29375.605877353838	1
9	142953	29377.631241434748	2
9	142955	29377.853862788616	1
9	142960	29378.678162982809	2
9	142962	29378.875311432288	1
9	142965	29379.488397389493	2
9	142969	29380.020497469427	1
9	142976	29381.230036145272	0
9	142979	29381.354873707361	1
9	142981	29381.721948451037	0
9	142986	29382.201355360664	1
9	142988	29382.549607734743	0
9	142991	29383.041027832619	1
9	142994	29383.892878372251	2
9	142997	29385.029444668936	3
9	142999	29385.365372202613	2
9	143001	29385.910283674341	1
9	143003	29386.008746251501	0
9	143006	29386.053218252054	1
9	143009	29386.976106415531	2
9	143012	29387.860842097579	3
9	143014	29388.343765283433	2
9	143021	29388.822535812299	1
9	143025	29389.416378384572	0
9	143033	29390.764164185739	1
9	143035	29391.320613587735	0
9	143046	29393.755589690554	1
9	143048	29394.574105638904	0
9	143051	29394.889964219677	1
9	143053	29394.907151937665	0
9	143069	29399.000006844411	1
9	143072	29399.807659558421	2
9	143075	29400.637261664616	3
9	143078	29401.481575070536	4
9	143083	29402.473673997289	5
9	143085	29402.999274367387	4
9	143088	29403.483994939207	5
9	143090	29403.72607397364	4
9	143093	29404.577388910326	5
9	143095	29405.070994661614	4
9	143098	29405.607545185211	5
9	143100	29406.05007888353	4
9	143103	29406.732864141586	5
9	143106	29407.643662711262	6
9	143108	29407.745686932933	5
9	143111	29408.59001494472	6
9	143113	29408.607200240764	5
9	143115	29409.427209985917	4
9	143118	29409.470527705393	5
9	143120	29409.742915629261	4
9	143122	29409.747772997059	3
9	143124	29409.891423432668	2
9	143126	29409.951380750954	1
9	143128	29410.584298784502	0
9	143131	29410.646221665322	1
9	143138	29412.009828265024	0
9	143141	29412.711260159343	1
9	143144	29413.775093135546	2
9	143147	29414.826892136811	3
9	143152	29415.637569921865	4
9	143157	29416.700836707308	5
9	143162	29417.949666154247	4
9	143164	29418.532007768735	3
9	143166	29418.549654474794	2
9	143169	29418.563607346295	3
9	143171	29419.060820659564	2
9	143174	29419.755990709393	3
9	143179	29420.590576217725	4
9	143181	29420.682505055715	3
9	143184	29421.637516272842	4
9	143187	29422.506734665419	5
9	143190	29423.618357101298	6
9	143192	29424.07779370999	5
9	143194	29424.131746841957	4
9	143197	29424.718629847682	5
9	143199	29425.539994843954	4
9	143203	29425.736978892749	3
9	143206	29425.895542321662	4
9	143210	29426.369533455754	3
9	143213	29426.98968023167	4
9	143216	29427.829151346749	5
9	143219	29428.984646283677	6
9	143224	29429.883877320473	5
9	143227	29430.887317732842	6
9	143232	29431.755010455129	7
9	143234	29432.744276531909	6
9	143236	29432.830372775948	5
9	143239	29432.889578257715	6
9	143241	29433.036275371159	5
9	143243	29433.908015924077	4
9	143246	29433.918056602524	5
9	143248	29434.237094916232	4
9	143250	29434.484282211926	3
9	143253	29434.821712245168	4
9	143255	29435.488799975539	3
9	143258	29435.90026172989	4
9	143261	29436.771380346016	5
9	143265	29437.503497433806	4
9	143268	29437.783443318521	5
9	143271	29438.619472288926	6
9	143273	29439.081511704331	5
9	143276	29439.737623045993	6
9	143278	29439.893639708948	5
9	143280	29440.366704316034	4
9	143283	29440.873884417889	5
9	143285	29441.613941495064	4
9	143290	29441.917091992804	5
9	143292	29442.588611778044	4
9	143297	29443.049338424904	3
9	143302	29443.939099300587	4
9	143304	29444.502682193084	3
9	143307	29444.919662731355	4
9	143310	29445.877226878079	5
9	143312	29446.299884614466	4
9	143315	29446.787076723883	5
9	143317	29447.281134866702	4
9	143323	29448.492965117777	5
9	143325	29448.753917776453	4
9	143327	29449.056015916675	3
9	143330	29449.482844155403	4
9	143332	29449.771572194628	3
9	143335	29450.547991865622	4
9	143338	29451.576651098048	5
9	143340	29452.222406372496	4
9	143346	29453.497101217349	5
9	143348	29453.670629863765	4
9	143353	29455.173705911822	3
9	143356	29455.518810644401	4
9	143358	29455.616503556465	3
9	143360	29455.919892208632	2
9	143363	29456.573632383654	3
9	143365	29456.676089717709	2
9	143367	29456.723198324315	1
9	143373	29458.470044945767	2
9	143375	29458.830009376986	1
9	143380	29459.63025693113	0
9	143424	29469.451950096273	1
9	143426	29469.639970048128	0
9	143434	29471.624660536674	1
9	143436	29471.646040797839	0
9	143439	29472.519623361555	1
9	143443	29472.979659481309	0
9	143479	29480.248241951622	1
9	143481	29480.299226606916	0
9	143491	29482.417173913799	1
9	143493	29482.940437015286	0
9	143507	29486.342506433956	1
9	143510	29487.323711038034	2
9	143512	29487.503413644351	1
9	143514	29487.820288640826	0
9	143569	29497.809777971663	1
9	143571	29498.548334689159	0
9	143589	29502.2910972141	1
9	143592	29503.175415301257	2
9	143594	29503.433342663694	1
9	143599	29504.842375146482	0
9	143602	29505.316665600361	1
9	143607	29506.159440251654	2
9	143617	29508.36644604773	1
9	143619	29508.410897530005	0
9	143644	29512.580461895028	1
9	143646	29513.579666121317	0
9	143649	29513.715311164809	1
9	143651	29513.847695970077	0
9	143654	29514.689380162609	1
9	143656	29514.788234979577	0
9	143674	29518.740984817808	1
9	143676	29518.974449213335	0
9	143694	29523.228309290232	1
9	143702	29525.788721840114	0
9	143708	29526.775809276504	1
9	143710	29526.976859363834	0
9	143728	29530.406461010341	1
9	143730	29531.045620586232	0
9	144080	29596.670821884955	1
9	144082	29596.865559926558	0
9	144117	29603.564836629508	1
9	144122	29604.781341559496	0
9	144139	29607.2635185635	1
9	144141	29608.21162159723	0
9	144147	29609.259422678435	1
9	144149	29609.980818103867	0
9	144242	29627.813325359515	1
9	144244	29628.792533360049	0
9	144280	29635.787192673173	1
9	144284	29636.686891400544	0
9	144330	29645.945066305186	1
9	144332	29646.42654521091	0
9	144342	29648.00211428267	1
9	144344	29648.454076893074	0
9	144354	29649.993683730653	1
9	144358	29650.43746185881	0
9	144374	29653.83650994015	1
9	144376	29654.553152520688	0
9	144432	29665.814028609386	1
9	144435	29666.924219739	2
9	144437	29667.511539477037	1
9	144442	29667.844823501567	0
9	144500	29680.016256787937	1
9	144502	29680.313661116464	0
9	144640	29707.652093096107	1
9	144652	29710.032918960755	0
9	144677	29714.446165595139	1
9	144682	29716.043159926234	0
9	144690	29717.440429101633	1
9	144692	29718.11109987433	0
9	144700	29719.550922542559	1
9	144718	29723.556379429567	0
9	145154	29812.813051885676	1
9	145158	29813.705546046318	0
9	145731	29930.125191260164	1
9	145733	29930.225376322895	0
9	145858	29955.416411623581	1
9	145863	29956.447569490736	0
9	145869	29958.519435155242	1
9	145871	29958.646406208241	0
9	145895	29962.244136406239	1
9	145897	29962.821496427514	0
9	145900	29963.148718190696	1
9	145902	29963.380817880568	0
9	145910	29965.413133634012	1
9	145915	29966.598128716126	2
9	145917	29966.939516197944	1
9	145919	29967.348245944345	0
9	145922	29967.407227565199	1
9	145924	29967.475144204884	0
9	145951	29972.29497304283	1
9	145954	29973.174510679896	2
9	145956	29974.280299102998	1
9	145959	29974.32451897826	2
9	145962	29975.328807505443	3
9	145970	29977.159968191422	4
9	145972	29977.539717923281	3
9	145974	29977.551695778142	2
9	145976	29977.722703749801	1
9	145978	29977.966694946408	0
9	145991	29980.131964270994	1
9	145994	29981.002298749555	2
9	145999	29982.381262741223	1
9	146002	29983.328220646958	2
9	146004	29983.521297472399	1
9	146008	29983.60409909237	0
9	146046	29991.060293298995	1
9	146049	29992.022056922445	2
9	146056	29993.130497669137	1
9	146061	29993.857495958874	0
9	146064	29994.819513243379	1
9	146068	29995.292721614172	0
9	146078	29996.993002068846	1
9	146081	29998.124386707915	2
9	146084	29999.292458658887	3
9	146086	29999.583550333912	2

