version 2
run Second_exit_9-10-20191114-11:42:52-8985
attr configname Second_exit_9
attr datetime 20191114-11:42:52
attr experiment Second_exit_9
attr inifile omnetpp.ini
attr iterationvars ""
attr iterationvarsf ""
attr measurement ""
attr network ResponseTimeNetwork
attr processid 8985
attr repetition 10
attr replication #10
attr resultdir results
attr runnumber 10
attr seedset 10
param **.Source.interArrivalTime exponential(5s)
param **.jobPriority bernoulli(0.6)
param **.PS.serviceTimeU1 "uniform(0.8s, 1.2s)"
param **.PS.serviceTimeU2 "uniform(1.8s, 2.2s)"
param **.SS1.serviceTime exponential(1s)
param **.SS2.serviceTime exponential(1.2s)
param **.PS.exitProbability bernoulli(0.9)

vector 0 ResponseTimeNetwork.QueueU1 queueLength:vector ETV
attr interpolationmode sample-hold
attr title "queue length, vector"
vector 1 ResponseTimeNetwork.SS1 queueLength:vector ETV
attr interpolationmode sample-hold
attr title "queue length, vector"
vector 2 ResponseTimeNetwork.sink lifeTimeU1:vector ETV
attr interpolationmode none
attr title "lifetime of arrived jobs U1, vector"
attr unit s
vector 3 ResponseTimeNetwork.sink totalServiceTimeU1:vector ETV
attr interpolationmode none
attr title "the total time spent  by arrived jobs U1, vector"
attr unit s
vector 4 ResponseTimeNetwork.sink lifeTime:vector ETV
attr interpolationmode none
attr title "lifetime of arrived jobs, vector"
attr unit s
vector 5 ResponseTimeNetwork.sink totalServiceTime:vector ETV
attr interpolationmode none
attr title "the total time spent  by arrived jobs, vector"
attr unit s
vector 6 ResponseTimeNetwork.QueueU2 queueLength:vector ETV
attr interpolationmode sample-hold
attr title "queue length, vector"
0	51963	10000.016296854899	220
0	51964	10000.409399024159	219
0	51967	10001.600592279569	218
0	51971	10002.120459339197	219
0	51972	10002.407086321567	218
0	51976	10002.43573303498	219
0	51980	10002.671157584089	220
0	51982	10003.312199192664	221
0	51983	10003.519613791392	220
0	51986	10004.525834803511	219
0	51990	10004.885434413281	220
0	51992	10004.998429955479	221
0	51994	10005.148903463076	222
0	51995	10005.528153014131	221
0	51999	10005.556865580195	222
0	52000	10006.643483499851	221
0	52004	10006.732381162375	222
0	52006	10006.738109298472	223
0	52007	10007.669628041651	222
0	52010	10008.618859309185	221
0	52014	10009.516147143726	222
0	52015	10009.658754176873	221
0	52019	10010.299236240432	222
0	52020	10010.482013729348	221
0	52024	10010.600563353397	222
0	52025	10011.54017710103	221
0	52029	10011.837966575063	222
0	52031	10012.216122633769	223
0	52032	10012.344501577451	222
0	52035	10013.285468911513	221
0	52039	10013.691686572812	222
0	52041	10013.865551191794	223
0	52043	10014.212780986018	224
0	52044	10014.381468057207	223
0	52048	10014.47634550981	224
0	52049	10015.295923653378	223
0	52052	10016.292547429579	222
0	52055	10017.190781592152	221
0	52058	10018.303852163575	220
0	52062	10018.923270184238	221
0	52064	10018.979501892418	222
0	52065	10019.23542287717	221
0	52068	10020.244436502963	220
0	52072	10020.990203020643	221
0	52073	10021.098123545054	220
0	52077	10021.554865068083	221
0	52079	10022.08931494478	222
0	52081	10022.251853348587	223
0	52082	10022.255037820566	222
0	52086	10022.296703271738	223
0	52089	10023.314231333456	222
0	52093	10023.753330407386	223
0	52095	10024.287867672585	224
0	52096	10024.424152271676	223
0	52100	10025.144160391854	224
0	52101	10025.401824493281	223
0	52104	10026.210351784568	222
0	52108	10026.620182853726	223
0	52110	10026.983728424506	224
0	52111	10027.393423983682	223
0	52114	10028.419380359672	222
0	52118	10029.072684938614	223
0	52120	10029.214575959059	224
0	52122	10029.215618032227	225
0	52123	10029.45081511917	224
0	52127	10029.678646000724	225
0	52129	10029.84914062885	226
0	52130	10030.465467310831	225
0	52134	10030.761313806298	226
0	52135	10031.536066730082	225
0	52139	10031.644795673747	226
0	52141	10032.281389352376	227
0	52142	10032.39676871695	226
0	52145	10033.216521242395	225
0	52151	10033.342962046842	226
0	52153	10033.951304993194	227
0	52155	10034.076224233461	228
0	52156	10034.35848356089	227
0	52160	10034.906153566767	228
0	52161	10035.385172646813	227
0	52165	10035.736792038622	228
0	52167	10036.159926524173	229
0	52168	10036.583610691078	228
0	52172	10036.918250452513	229
0	52174	10037.365486404928	230
0	52175	10037.697734301671	229
0	52179	10038.393679681656	230
0	52180	10038.638282088324	229
0	52184	10039.085623776349	230
0	52186	10039.187865494614	231
0	52187	10039.683935720048	230
0	52191	10039.939410480596	231
0	52193	10040.5153861276	232
0	52194	10040.873443892079	231
0	52198	10040.936206295338	232
0	52200	10041.32235794568	233
0	52202	10041.407056162199	234
0	52204	10041.627336356062	235
0	52205	10041.888574166449	234
0	52209	10041.929988930845	235
0	52211	10042.451387896954	236
0	52212	10042.987350731848	235
0	52215	10043.953321016619	234
0	52218	10044.804354568144	233
0	52221	10045.678357311936	232
0	52224	10046.747288425771	231
0	52228	10047.214890236255	232
0	52230	10047.306442933811	233
0	52231	10047.798803586738	232
0	52235	10047.829485078047	233
0	52236	10048.688556294555	232
0	52239	10049.591719857456	231
0	52242	10050.484308167679	230
0	52245	10051.471973523723	229
0	52248	10052.515583797583	228
0	52252	10052.715102043653	229
0	52253	10053.357081513704	228
0	52256	10054.410610468072	227
0	52260	10055.068782471351	228
0	52262	10055.117252638863	229
0	52263	10055.437695064713	228
0	52267	10055.91453501193	229
0	52268	10056.593392698505	228
0	52272	10056.868623280683	229
0	52274	10056.988328668943	230
0	52275	10057.430030306281	229
0	52279	10057.574075338186	230
0	52280	10058.373611382434	229
0	52284	10058.612869078022	230
0	52285	10059.497144335361	229
0	52289	10059.965467701628	230
0	52290	10060.301853187887	229
0	52293	10061.130102325456	228
0	52296	10061.961059058683	227
0	52300	10062.132290893289	228
0	52302	10062.984476530125	229
0	52303	10063.025463606922	228
0	52307	10063.045504513391	229
0	52308	10064.111867971944	228
0	52312	10064.437037824775	229
0	52314	10064.671705923143	230
0	52315	10065.204785024135	229
0	52318	10066.363106087821	228
0	52322	10066.372395912207	229
0	52324	10067.328692819827	230
0	52325	10067.410090884885	229
0	52329	10068.186853383201	230
0	52331	10068.42636803564	231
0	52333	10068.512012882604	232
0	52334	10068.578375297824	231
0	52338	10068.960628622491	232
0	52340	10069.231434811498	233
0	52341	10069.553163586689	232
0	52344	10070.423437594754	231
0	52348	10071.147694754056	232
0	52349	10071.42966439942	231
0	52352	10072.232337165569	230
0	52356	10072.977504397594	231
0	52357	10073.15767167233	230
0	52361	10073.613482249868	231
0	52362	10073.971736219563	230
0	52366	10074.79270943979	231
0	52367	10074.799967805241	230
0	52370	10075.730897774865	229
0	52373	10076.918371409309	228
0	52377	10077.212962566844	229
0	52379	10077.915406648986	230
0	52380	10078.071714038906	229
0	52384	10078.14890314813	230
0	52386	10078.539360058625	231
0	52388	10078.794352383091	232
0	52389	10079.264063328171	231
0	52393	10079.49365318431	232
0	52394	10080.350022489244	231
0	52398	10081.036904423867	232
0	52400	10081.381944201491	233
0	52401	10081.491500429289	232
0	52404	10082.480658019838	231
0	52408	10082.572607602573	232
0	52410	10083.465408866472	233
0	52412	10083.540141582791	234
0	52414	10083.57454008265	235
0	52415	10083.603441540749	234
0	52419	10083.647513971292	235
0	52421	10083.673363015318	236
0	52422	10084.40933535047	235
0	52426	10084.554948638197	236
0	52428	10084.980744288687	237
0	52430	10084.981954397652	238
0	52434	10085.172098354131	239
0	52435	10085.568913441097	238
0	52438	10086.567900605818	237
0	52441	10087.612468690743	236
0	52445	10088.253867064936	237
0	52446	10088.468043269535	236
0	52449	10089.642869534382	235
0	52453	10089.720060248293	236
0	52455	10089.780277927017	237
0	52456	10090.735857561362	236
0	52459	10091.554985971135	235
0	52463	10091.951147493428	236
0	52465	10092.584198798355	237
0	52466	10092.6496681536	236
0	52470	10092.803214946819	237
0	52472	10093.07115467941	238
0	52474	10093.407692871211	239
0	52475	10093.805979791322	238
0	52478	10094.945878165067	237
0	52482	10094.965168719183	238
0	52484	10095.446798709028	239
0	52486	10095.537228950467	240
0	52487	10096.094632887226	239
0	52491	10096.151517586793	240
0	52493	10096.312934904828	241
0	52494	10096.968233510144	240
0	52497	10097.853128605559	239
0	52501	10098.286781017968	240
0	52502	10099.040305342003	239
0	52506	10099.070845765406	240
0	52508	10099.505507749299	241
0	52509	10099.93859369032	240
0	52512	10100.858582000564	239
0	52515	10102.0553833431	238
0	52518	10102.867914985157	237
0	52522	10103.029827941805	238
0	52524	10103.477008947972	239
0	52525	10103.939582762718	238
0	52529	10104.319863200559	239
0	52531	10104.706501062335	240
0	52533	10104.836597338227	241
0	52534	10104.972396404613	240
0	52537	10106.124036977571	239
0	52541	10106.350535412769	240
0	52545	10106.881097297286	241
0	52546	10107.035201381185	240
0	52550	10107.411253888908	241
0	52551	10107.847735402119	240
0	52554	10108.827972853315	239
0	52558	10108.915779129832	240
0	52560	10109.444677347037	241
0	52561	10109.924126747289	240
0	52564	10110.815605422148	239
0	52568	10110.886858609355	240
0	52570	10111.373430122389	241
0	52571	10111.761153239795	240
0	52574	10112.925535452777	239
0	52578	10112.942900677647	240
0	52580	10113.362358161518	241
0	52581	10113.765140819961	240
0	52585	10114.028825869778	241
0	52586	10114.687270555032	240
0	52590	10115.249994016723	241
0	52591	10115.550758610891	240
0	52595	10115.9253416153	241
0	52596	10116.435807202423	240
0	52600	10117.157739223278	241
0	52601	10117.401111135205	240
0	52605	10117.47151157848	241
0	52606	10118.418035440745	240
0	52610	10119.367558976815	241
0	52611	10119.509949548489	240
0	52614	10120.507755483913	239
0	52617	10121.415369140303	238
0	52621	10121.852804629099	239
0	52623	10121.908472906123	240
0	52625	10122.302430922983	241
0	52626	10122.544598232249	240
0	52630	10123.174768543368	241
0	52631	10123.373982989269	240
0	52634	10124.206877460464	239
0	52638	10124.362964908662	240
0	52641	10125.095666432514	239
0	52644	10126.11235793032	238
0	52648	10126.388875625504	239
0	52650	10126.526066657462	240
0	52651	10127.093340750637	239
0	52655	10127.292555738754	240
0	52657	10127.316480882168	241
0	52658	10128.134604583068	240
0	52661	10129.186344686097	239
0	52665	10129.452335662869	240
0	52666	10130.196484590827	239
0	52670	10131.223488725362	240
0	52671	10131.259912459685	239
0	52675	10131.875664194346	240
0	52676	10132.396281235332	239
0	52680	10132.873348288594	240
0	52681	10133.302043443119	239
0	52684	10134.240484360738	238
0	52688	10134.312055961087	239
0	52690	10134.857458554443	240
0	52693	10135.43908275584	239
0	52697	10135.769821340732	240
0	52699	10135.829673377498	241
0	52700	10136.45464824293	240
0	52703	10137.285033432247	239
0	52706	10138.34168988526	238
0	52709	10139.290238362589	237
0	52713	10139.408330763145	238
0	52715	10139.660346263943	239
0	52717	10139.811362837865	240
0	52719	10139.914772079842	241
0	52720	10140.308093841971	240
0	52724	10140.913012911639	241
0	52725	10141.430435439331	240
0	52728	10142.265060066564	239
0	52731	10143.170005592836	238
0	52735	10144.085417147299	239
0	52736	10144.210984045399	238
0	52740	10144.282332408545	239
0	52741	10145.263451465817	238
0	52745	10145.895036045242	239
0	52746	10146.129573512116	238
0	52750	10146.879276257129	239
0	52751	10147.292827224491	238
0	52755	10147.625937556462	239
0	52756	10148.449353638889	238
0	52760	10148.585057916136	239
0	52763	10149.528968418522	238
0	52767	10149.72614985807	239
0	52769	10150.526601514486	240
0	52770	10150.649263279459	239
0	52774	10150.71210782354	240
0	52775	10151.495608369487	239
0	52779	10151.698060225149	240
0	52780	10152.522708253043	239
0	52784	10152.929548834959	240
0	52785	10153.333175523618	239
0	52789	10153.36383961044	240
0	52790	10154.464985188415	239
0	52794	10154.597688663036	240
0	52795	10155.310762778802	239
0	52798	10156.315412391761	238
0	52801	10157.488620435206	237
0	52805	10157.541861328473	238
0	52807	10157.69355127752	239
0	52809	10157.693620110215	240
0	52810	10158.290141508208	239
0	52814	10159.314219513806	240
0	52815	10159.314526140822	239
0	52818	10160.485452836512	238
0	52822	10160.66424760247	239
0	52824	10161.010133152691	240
0	52825	10161.325533642007	239
0	52829	10161.48683293993	240
0	52833	10162.038968899326	241
0	52834	10162.432042712664	240
0	52837	10163.533688002864	239
0	52840	10164.344168051837	238
0	52844	10165.144183191773	239
0	52845	10165.266357662009	238
0	52848	10166.100000445025	237
0	52852	10166.403535357933	238
0	52853	10166.960543171728	237
0	52857	10167.401523612253	238
0	52858	10167.799411748202	237
0	52862	10168.381547472791	238
0	52864	10168.439331854543	239
0	52866	10168.50192121482	240
0	52867	10168.789769978208	239
0	52871	10168.84255993866	240
0	52872	10169.843068299388	239
0	52875	10170.660191646536	238
0	52878	10171.713207094968	237
0	52881	10172.703159379624	236
0	52884	10173.709785830919	235
0	52888	10174.733533599119	236
0	52889	10174.867963969279	235
0	52893	10175.35249939905	236
0	52896	10176.012982040681	235
0	52900	10176.301033267553	236
0	52901	10177.113069068864	235
0	52905	10177.284128386443	236
0	52907	10177.637928917091	237
0	52909	10177.681632542426	238
0	52911	10178.215498125296	239
0	52912	10178.307622257564	238
0	52917	10179.141063717045	237
0	52921	10179.681052251089	238
0	52923	10179.856232742858	239
0	52925	10179.92655226517	240
0	52927	10180.038620799761	241
0	52928	10180.119018516075	240
0	52931	10181.279103923999	239
0	52934	10182.100794291627	238
0	52939	10183.034966544658	237
0	52943	10184.139281210495	238
0	52944	10184.147185092364	237
0	52947	10185.013106267378	236
0	52950	10186.017688642945	235
0	52954	10186.292576549128	236
0	52956	10186.334659920373	237
0	52959	10186.927799880635	236
0	52963	10187.024085964523	237
0	52965	10187.046236468458	238
0	52967	10187.122125611818	239
0	52969	10187.285505667584	240
0	52970	10187.86625787694	239
0	52973	10188.733884851113	238
0	52977	10188.80895778404	239
0	52979	10189.178760140724	240
0	52981	10189.370096402395	241
0	52982	10189.918667356521	240
0	52986	10190.188675771271	241
0	52988	10190.738342644578	242
0	52989	10191.03706801137	241
0	52992	10191.915612588395	240
0	52996	10192.235255544794	241
0	52997	10192.764109557439	240
0	53001	10192.812769105941	241
0	53003	10193.253391792601	242
0	53005	10193.308212794006	243
0	53007	10193.735047640189	244
0	53008	10193.868736141399	243
0	53012	10194.108887464142	244
0	53013	10194.842934857998	243
0	53016	10195.677930654623	242
0	53020	10196.251910752389	243
0	53021	10196.704976664707	242
0	53024	10197.867200817577	241
0	53028	10197.867688721199	242
0	53030	10198.183221887381	243
0	53031	10198.712872084174	242
0	53034	10199.690191422533	241
0	53037	10200.617518943213	240
0	53041	10200.963229274361	241
0	53043	10200.971935645617	242
0	53045	10201.052645198742	243
0	53047	10201.76366321893	244
0	53048	10201.775789591521	243
0	53051	10202.86009744931	242
0	53055	10203.347541554286	243
0	53056	10203.996172199063	242
0	53059	10204.863873172309	241
0	53063	10204.943807387069	242
0	53064	10205.95774065949	241
0	53067	10206.942093048747	240
0	53070	10208.038639768715	239
0	53073	10209.028070531542	238
0	53077	10209.821522605389	239
0	53078	10210.161477541121	238
0	53081	10211.354550893547	237
0	53085	10211.526950577291	238
0	53087	10212.060491346274	239
0	53088	10212.371054570878	238
0	53092	10212.398111419549	239
0	53093	10213.214595951175	238
0	53097	10213.838488133769	239
0	53098	10214.298411287496	238
0	53102	10214.964414949432	239
0	53103	10215.216046411021	238
0	53107	10216.023680475882	239
0	53108	10216.142570174428	238
0	53111	10216.990565618163	237
0	53117	10217.643208255135	238
0	53119	10217.657330375207	239
0	53121	10218.09351312687	240
0	53122	10218.152570489643	239
0	53126	10218.489559919553	240
0	53127	10219.112431788759	239
0	53131	10219.813025156762	240
0	53132	10219.942665085232	239
0	53136	10220.524309656324	240
0	53137	10220.98877226807	239
0	53141	10221.281492840322	240
0	53142	10221.859972022323	239
0	53146	10222.871140970471	240
0	53147	10223.000267731993	239
0	53150	10223.805942389871	238
0	53154	10223.931437716121	239
0	53156	10224.399415356783	240
0	53157	10224.665638129263	239
0	53162	10225.841610140296	238
0	53166	10226.168478035085	239
0	53168	10226.659109758484	240
0	53169	10226.990177958867	239
0	53173	10227.907760205066	240
0	53176	10228.165514653678	239
0	53179	10229.280134074054	238
0	53182	10230.164421610478	237
0	53185	10231.091207378488	236
0	53189	10231.64523778538	237
0	53190	10232.263199572954	236
0	53194	10232.674800169434	237
0	53196	10233.328333073313	238
0	53197	10233.448751469087	237
0	53201	10233.560576356427	238
0	53202	10234.311647010725	237
0	53206	10235.229848514258	238
0	53207	10235.406023451164	237
0	53210	10236.586335445605	236
0	53215	10237.430839871838	235
0	53219	10237.680078406852	236
0	53220	10238.377693740036	235
0	53223	10239.271044502351	234
0	53230	10240.444354081284	233
0	53234	10241.221081386773	234
0	53235	10241.396839608196	233
0	53239	10241.81622293463	234
0	53240	10242.516874737423	233
0	53243	10243.578578275945	232
0	53247	10244.368922384564	233
0	53248	10244.39409798611	232
0	53252	10244.615419643026	233
0	53254	10244.856758740674	234
0	53255	10245.417945128158	233
0	53258	10246.243458321728	232
0	53262	10246.852902969111	233
0	53263	10247.230796636585	232
0	53267	10247.330759918609	233
0	53268	10248.067052236702	232
0	53271	10249.225371898468	231
0	53275	10249.460619681504	232
0	53277	10249.669826196532	233
0	53279	10249.748423674498	234
0	53280	10250.188959252778	233
0	53284	10250.259126486322	234
0	53285	10251.288888779226	233
0	53289	10251.334002642157	234
0	53290	10252.430458462461	233
0	53294	10252.447731797909	234
0	53296	10252.861435644035	235
0	53298	10252.871447527833	236
0	53300	10252.899634848286	237
0	53301	10253.432988336439	236
0	53305	10253.462808767287	237
0	53306	10254.368989889825	236
0	53310	10254.439187418515	237
0	53313	10255.442642790487	236
0	53316	10256.330289384386	235
0	53320	10257.388734992229	236
0	53321	10257.499274523499	235
0	53325	10257.816575621057	236
0	53326	10258.584440686031	235
0	53330	10259.124989838974	236
0	53331	10259.712784612681	235
0	53335	10260.356390104355	236
0	53336	10260.880192614942	235
0	53341	10261.992344452384	234
0	53345	10262.037578820848	235
0	53347	10262.196281815838	236
0	53348	10262.897651254515	235
0	53351	10264.048496514129	234
0	53355	10264.109406529631	235
0	53357	10264.457880662377	236
0	53358	10265.14930916516	235
0	53362	10265.640050226679	236
0	53364	10266.054526293195	237
0	53365	10266.260765300355	236
0	53369	10266.363565991542	237
0	53372	10267.301627220343	236
0	53375	10268.359217734858	235
0	53379	10268.532252483203	236
0	53381	10268.902588503373	237
0	53382	10269.261194146461	236
0	53385	10270.248389588985	235
0	53389	10270.414207834298	236
0	53391	10271.009233458753	237
0	53392	10271.195632357932	236
0	53395	10272.225153527632	235
0	53399	10272.692202389414	236
0	53401	10273.10566249191	237
0	53402	10273.195128793399	236
0	53406	10273.356025122371	237
0	53408	10273.994387495451	238
0	53409	10274.170918790939	237
0	53413	10274.540009669632	238
0	53414	10275.286062572746	237
0	53417	10276.294956349152	236
0	53423	10277.013789426771	237
0	53425	10277.039386297838	238
0	53427	10277.208172215102	239
0	53428	10277.397282438575	238
0	53432	10277.940196259271	239
0	53433	10278.295507564245	238
0	53436	10279.337481721154	237
0	53440	10279.687016322788	238
0	53444	10279.885988394948	239
0	53445	10280.28781593399	238
0	53448	10281.231206357236	237
0	53452	10282.235649700555	238
0	53453	10282.290650842561	237
0	53457	10282.428872854398	238
0	53458	10283.132316721825	237
0	53462	10284.156293035659	238
0	53463	10284.156404375134	237
0	53467	10284.381172709793	238
0	53469	10284.97549483558	239
0	53470	10285.102127206454	238
0	53474	10285.157411916413	239
0	53476	10285.458617311074	240
0	53478	10285.79975076518	241
0	53479	10285.99285596473	240
0	53483	10286.432890161432	241
0	53485	10286.852478989712	242
0	53486	10286.857937152347	241
0	53490	10287.778176657782	242
0	53491	10287.937291816751	241
0	53495	10288.449897339914	242
0	53496	10288.88533594556	241
0	53499	10289.7260653037	240
0	53503	10289.828239810807	241
0	53504	10290.663020384161	240
0	53508	10290.750459736848	241
0	53509	10291.7413508315	240
0	53513	10292.045670811034	241
0	53514	10292.548933427258	240
0	53518	10293.523226856288	241
0	53520	10293.698779664332	242
0	53521	10293.747182319163	241
0	53525	10294.231396655627	242
0	53527	10294.298429012137	243
0	53528	10294.859048002529	242
0	53532	10294.947344714889	243
0	53534	10295.077966322658	244
0	53536	10295.623952158509	245
0	53537	10295.831824038214	244
0	53541	10296.903678640009	245
0	53542	10296.980964008103	244
0	53545	10298.079557287264	243
0	53549	10298.271932895864	244
0	53551	10298.44021197799	245
0	53553	10298.863331132552	246
0	53554	10299.095385748371	245
0	53557	10300.208589626047	244
0	53560	10301.40215492336	243
0	53564	10301.751276762016	244
0	53565	10302.321663007177	243
0	53569	10302.33298912393	244
0	53570	10303.207307812422	243
0	53573	10304.042336152438	242
0	53579	10304.788635388893	243
0	53580	10305.154714340474	242
0	53584	10305.211513238745	243
0	53585	10306.236907799206	242
0	53588	10307.195735115129	241
0	53591	10308.160699436478	240
0	53597	10308.790036882223	241
0	53598	10309.279504516758	240
0	53602	10309.619953601649	241
0	53603	10310.464321038257	240
0	53607	10310.85445306472	241
0	53608	10311.387644815202	240
0	53612	10311.678519935897	241
0	53613	10312.268289299811	240
0	53616	10313.370090989991	239
0	53620	10313.54013743239	240
0	53621	10314.189724751971	239
0	53624	10315.293931712433	238
0	53628	10315.720969556349	239
0	53629	10316.20679997079	238
0	53633	10317.28353324641	239
0	53634	10317.348819797243	238
0	53637	10318.365062285717	237
0	53643	10319.086116532916	238
0	53644	10319.347786077614	237
0	53648	10320.237654090349	238
0	53649	10320.530810151099	237
0	53652	10321.473622608873	236
0	53656	10321.48807318801	237
0	53658	10321.848957423422	238
0	53659	10322.596595210339	237
0	53662	10323.764176164883	236
0	53666	10324.278572553513	237
0	53669	10324.714130056313	236
0	53673	10325.501182616982	237
0	53674	10325.562914120256	236
0	53678	10325.959450534237	237
0	53680	10326.02770898967	238
0	53681	10326.543376890141	237
0	53685	10326.645208978937	238
0	53687	10326.754307171106	239
0	53689	10327.034272818857	240
0	53690	10327.532508115041	239
0	53694	10327.594725759812	240
0	53695	10328.340520452837	239
0	53698	10329.173687712791	238
0	53702	10329.308266489773	239
0	53703	10330.179083148799	238
0	53706	10331.074948944002	237
0	53709	10332.116760258879	236
0	53713	10332.763555904456	237
0	53714	10333.291285867281	236
0	53718	10333.525410228047	237
0	53719	10334.121654062103	236
0	53722	10335.10352041101	235
0	53725	10336.218295030984	234
0	53729	10337.071167944827	235
0	53730	10337.177151730507	234
0	53733	10338.065432197544	233
0	53737	10339.125642295573	234
0	53738	10339.179341808743	233
0	53741	10340.114293094016	232
0	53745	10340.884838607687	233
0	53746	10341.190913512222	232
0	53749	10341.995279782023	231
0	53754	10343.182793859895	230
0	53758	10344.024823048047	231
0	53759	10344.189309091717	230
0	53763	10345.132217131883	231
0	53764	10345.34083469877	230
0	53768	10345.8051976303	231
0	53772	10346.022882865144	232
0	53774	10346.0280057735	233
0	53776	10346.17588034318	234
0	53778	10346.42354002827	235
0	53779	10346.473003679458	234
0	53783	10346.921844409871	235
0	53785	10347.208221437039	236
0	53786	10347.536431667898	235
0	53790	10347.623344172599	236
0	53792	10347.772160504132	237
0	53794	10348.016753300638	238
0	53795	10348.365758599844	237
0	53798	10349.362480968461	236
0	53803	10350.354836067968	235
0	53807	10350.635774927824	236
0	53808	10351.470314640776	235
0	53812	10351.543575459579	236
0	53814	10351.608018447727	237
0	53815	10352.295709178635	236
0	53819	10352.435120265127	237
0	53822	10353.309465883804	236
0	53825	10354.222438745426	235
0	53828	10355.211205129271	234
0	53831	10356.347915590221	233
0	53835	10356.874812518244	234
0	53837	10356.909162851106	235
0	53839	10357.287379120964	236
0	53841	10357.532170527192	237
0	53842	10357.534898710476	236
0	53846	10357.703793203671	237
0	53848	10358.006429170965	238
0	53849	10358.493207910882	237
0	53852	10359.400081556422	236
0	53855	10360.500458882601	235
0	53858	10361.501982481443	234
0	53862	10361.917503282138	235
0	53864	10362.335412639767	236
0	53865	10362.700605800786	235
0	53868	10363.723642381598	234
0	53872	10363.853315296943	235
0	53874	10364.235812953663	236
0	53875	10364.603830559869	235
0	53879	10365.064248308794	236
0	53880	10365.697342414912	235
0	53884	10366.460413696238	236
0	53886	10366.502060826142	237
0	53887	10366.604588995911	236
0	53890	10367.579462816883	235
0	53893	10368.69833351573	234
0	53896	10369.675606757812	233
0	53900	10369.806223672803	234
0	53901	10370.600514996927	233
0	53905	10371.011360034054	234
0	53906	10371.419586132411	233
0	53910	10372.275188862846	234
0	53911	10372.61132272467	233
0	53915	10373.044343588084	234
0	53917	10373.13505263573	235
0	53918	10373.575058066696	234
0	53922	10373.995093157774	235
0	53924	10374.163276279516	236
0	53925	10374.741941895094	235
0	53929	10375.335158711593	236
0	53931	10375.471545958528	237
0	53932	10375.744283694346	236
0	53935	10376.876384578217	235
0	53938	10377.861148412563	234
0	53941	10378.776012340225	233
0	53945	10379.37039283667	234
0	53947	10379.641619308709	235
0	53948	10379.730564988441	234
0	53952	10379.953651955663	235
0	53953	10380.893213101047	234
0	53957	10381.110813686626	235
0	53958	10381.8001404405	234
0	53962	10381.818739486992	235
0	53964	10381.852734386226	236
0	53966	10382.330308323494	237
0	53967	10382.958640004451	236
0	53971	10383.524379902914	237
0	53973	10383.75757268103	238
0	53974	10383.885286857131	237
0	53978	10384.404536317647	238
0	53980	10384.482063068246	239
0	53982	10384.696886942635	240
0	53983	10385.0813041245	239
0	53987	10385.228341031637	240
0	53988	10386.222441278342	239
0	53992	10386.392360097659	240
0	53993	10387.049183825999	239
0	53997	10387.677547045906	240
0	53999	10387.87695216364	241
0	54001	10387.927096761863	242
0	54003	10388.094204752676	243
0	54004	10388.198709800783	242
0	54007	10389.282348729241	241
0	54011	10390.194230204874	242
0	54012	10390.370134647879	241
0	54016	10390.760865459003	242
0	54017	10391.340202725529	241
0	54020	10392.476228206548	240
0	54024	10392.628213515414	241
0	54026	10392.746521432752	242
0	54027	10393.511785609498	241
0	54031	10393.866321105767	242
0	54032	10394.429774284772	241
0	54036	10394.754422268911	242
0	54038	10395.178957104166	243
0	54040	10395.376307990209	244
0	54041	10395.590616671498	243
0	54045	10396.372582052371	244
0	54046	10396.596346850078	243
0	54050	10397.427661029721	244
0	54051	10397.450770209953	243
0	54055	10397.717519159062	244
0	54057	10397.977912759106	245
0	54059	10398.276209672848	246
0	54060	10398.60849469373	245
0	54064	10398.658623180583	246
0	54066	10398.932359313453	247
0	54067	10399.530085197687	246
0	54071	10399.611530369102	247
0	54073	10400.369756071471	248
0	54074	10400.39618259523	247
0	54078	10400.636395097442	248
0	54080	10401.014672139766	249
0	54081	10401.26206295168	248
0	54085	10402.12931789289	249
0	54086	10402.251305728815	248
0	54089	10403.375383423306	247
0	54093	10403.559121931341	248
0	54094	10404.422369349692	247
0	54098	10404.873352876734	248
0	54099	10405.546629952211	247
0	54103	10405.815439431302	248
0	54104	10406.359667383265	247
0	54108	10406.969224034454	248
0	54109	10407.486412197575	247
0	54113	10407.941138382617	248
0	54114	10408.370792150442	247
0	54118	10409.139010764779	248
0	54120	10409.181027857272	249
0	54121	10409.307257429641	248
0	54125	10409.861273096216	249
0	54126	10410.239783069901	248
0	54130	10410.823901735521	249
0	54131	10411.069569658339	248
0	54135	10411.630280511832	249
0	54136	10411.909278175272	248
0	54140	10413.065433812804	249
0	54141	10413.093805385604	248
0	54145	10413.096206366801	249
0	54146	10414.14372060908	248
0	54150	10414.213386175203	249
0	54152	10415.148900864808	250
0	54153	10415.31506406622	249
0	54157	10415.455448331355	250
0	54159	10415.850497649595	251
0	54160	10416.209113365635	250
0	54164	10416.535451541925	251
0	54165	10417.176015959438	250
0	54170	10418.069369758051	249
0	54174	10418.941564568298	250
0	54175	10418.955183230844	249
0	54178	10419.975409694706	248
0	54181	10420.836888625883	247
0	54185	10421.237729410925	248
0	54186	10421.66841070721	247
0	54189	10422.544391037282	246
0	54192	10423.570371036828	245
0	54196	10423.656137780854	246
0	54198	10423.962770178129	247
0	54201	10424.465333704502	246
0	54205	10424.846295642462	247
0	54207	10425.432746837986	248
0	54208	10425.555623277501	247
0	54212	10425.649225932545	248
0	54214	10425.793764007283	249
0	54215	10426.6481080186	248
0	54218	10427.490919967872	247
0	54222	10427.874873049718	248
0	54223	10428.688509120644	247
0	54227	10428.72907217107	248
0	54228	10429.695763646756	247
0	54232	10429.726109836469	248
0	54233	10430.569073857964	247
0	54237	10431.665006053054	248
0	54238	10431.668771417105	247
0	54242	10432.153932322467	248
0	54243	10432.489132458941	247
0	54247	10433.009849074511	248
0	54248	10433.673022933156	247
0	54252	10434.213184463515	248
0	54253	10434.518730084263	247
0	54257	10434.626084298398	248
0	54259	10435.010736879583	249
0	54260	10435.460408857782	248
0	54263	10436.396370887142	247
0	54267	10436.804584262542	248
0	54269	10437.201129062877	249
0	54270	10437.455926417224	248
0	54274	10437.617277481051	249
0	54275	10438.510587673858	248
0	54279	10438.634828281775	249
0	54280	10439.547649453525	248
0	54284	10439.812391970362	249
0	54285	10440.605356100519	248
0	54289	10440.923495262974	249
0	54291	10441.246212947169	250
0	54292	10441.644562195931	249
0	54295	10442.502675303482	248
0	54298	10443.547398000807	247
0	54302	10443.826307293179	248
0	54304	10444.384950559913	249
0	54305	10444.570794076603	248
0	54308	10445.381681337152	247
0	54312	10445.939963706668	248
0	54314	10445.971726298249	249
0	54316	10446.072373781292	250
0	54320	10446.209667389352	251
0	54321	10446.311545566228	250
0	54325	10446.457306223189	251
0	54327	10446.460812503517	252
0	54329	10446.75215519464	253
0	54330	10447.143308777307	252
0	54333	10448.240347779021	251
0	54336	10449.12932881549	250
0	54340	10449.866956487656	251
0	54341	10450.201833921429	250
0	54345	10450.261644856898	251
0	54347	10450.619627852746	252
0	54348	10451.378849888724	251
0	54354	10451.681901436515	252
0	54356	10452.392971309112	253
0	54357	10452.475629110113	252
0	54361	10452.561966358451	253
0	54362	10453.280133419428	252
0	54367	10454.130704816282	251
0	54370	10455.079189435616	250
0	54373	10456.076234115884	249
0	54377	10456.180396017416	250
0	54378	10457.201396261938	249
0	54382	10457.494253677258	250
0	54383	10458.288538567852	249
0	54387	10458.7695968133	250
0	54388	10459.173967064488	249
0	54392	10459.535587713957	250
0	54393	10460.083999352194	249
0	54397	10460.830633256101	250
0	54399	10461.170956225451	251
0	54400	10461.283104395251	250
0	54404	10461.609050108358	251
0	54405	10462.468378417975	250
0	54408	10463.621528874281	249
0	54412	10464.089602110277	250
0	54414	10464.370463217277	251
0	54415	10464.790919507052	250
0	54418	10465.713132734168	249
0	54421	10466.562644408773	248
0	54425	10467.201066838202	249
0	54428	10467.512660601399	248
0	54431	10468.320997461434	247
0	54434	10469.275711409319	246
0	54438	10469.47311572595	247
0	54440	10469.55508403907	248
0	54441	10470.166690650899	247
0	54444	10471.288837369103	246
0	54447	10472.313386664111	245
0	54451	10472.874305808533	246
0	54452	10473.173760237582	245
0	54456	10473.610941190431	246
0	54457	10473.988238329012	245
0	54461	10474.330380735827	246
0	54463	10474.596051520383	247
0	54465	10474.909993485178	248
0	54466	10475.019877090249	247
0	54470	10475.091602834534	248
0	54472	10475.499717447511	249
0	54474	10475.706039997496	250
0	54476	10475.801941855531	251
0	54478	10476.101821624891	252
0	54479	10476.114536392074	251
0	54482	10476.952070157919	250
0	54486	10477.672209105393	251
0	54487	10477.984643839709	250
0	54491	10478.313048988872	251
0	54492	10479.094651797264	250
0	54496	10479.276924760017	251
0	54499	10480.110204251799	250
0	54503	10480.691750251301	251
0	54504	10481.045188438463	250
0	54508	10481.444808807877	251
0	54510	10481.573137025315	252
0	54512	10481.80634338566	253
0	54513	10482.138237613942	252
0	54517	10482.404070876389	253
0	54519	10482.563784775786	254
0	54520	10483.127394325789	253
0	54523	10484.216946028117	252
0	54527	10484.449077864048	253
0	54528	10485.231397946682	252
0	54531	10486.234398331344	251
0	54534	10487.402461711727	250
0	54537	10488.552814312875	249
0	54540	10489.41326754665	248
0	54544	10489.698297364799	249
0	54545	10490.31817856323	248
0	54548	10491.243735003509	247
0	54551	10492.391875721645	246
0	54554	10493.411169514098	245
0	54558	10493.431290679735	246
0	54559	10494.532178713326	245
0	54563	10495.622171633244	246
0	54564	10495.7321219901	245
0	54567	10496.83476995131	244
0	54570	10497.641467458606	243
0	54574	10498.415042387565	244
0	54575	10498.687363674902	243
0	54578	10499.537000709251	242
0	54582	10499.618930247859	243
0	54584	10500.157879172178	244
0	54585	10500.446249482446	243
0	54589	10500.602419708992	244
0	54590	10501.290935548619	243
0	54594	10501.550939579204	244
0	54595	10502.133325882573	243
0	54598	10502.982620863468	242
0	54601	10504.07525892336	241
0	54605	10504.225591811744	242
0	54607	10504.553766705881	243
0	54609	10504.735646110924	244
0	54610	10505.273922643849	243
0	54613	10506.111337565949	242
0	54617	10506.561743253871	243
0	54619	10507.192703932185	244
0	54620	10507.262193753423	243
0	54624	10507.369370542127	244
0	54625	10508.142008902637	243
0	54628	10509.205420591907	242
0	54632	10510.075135624132	243
0	54633	10510.262338620463	242
0	54637	10510.433112090545	243
0	54638	10511.275281932057	242
0	54641	10512.131292324458	241
0	54645	10512.483106485264	242
0	54646	10512.933467114289	241
0	54649	10514.118985983488	240
0	54653	10514.136445962053	241
0	54657	10514.965825308912	242
0	54658	10515.247732768525	241
0	54661	10516.299091418405	240
0	54665	10516.489071385045	241
0	54666	10517.316872974989	240
0	54669	10518.438070461565	239
0	54673	10519.218500450584	240
0	54674	10519.585213377738	239
0	54678	10520.446563973194	240
0	54679	10520.524424666484	239
0	54683	10521.295644786379	240
0	54685	10521.337105656894	241
0	54686	10521.623027590142	240
0	54690	10521.673413253708	241
0	54692	10522.19599725586	242
0	54693	10522.782288184428	241
0	54696	10523.635869659149	240
0	54699	10524.734969041907	239
0	54703	10524.998604524469	240
0	54705	10525.787074341676	241
0	54706	10525.879711125456	240
0	54709	10526.919904084914	239
0	54713	10527.540346998402	240
0	54715	10527.662309894954	241
0	54716	10527.793983337973	240
0	54720	10527.988757766618	241
0	54721	10528.707680525576	240
0	54724	10529.652076725048	239
0	54728	10530.598577089019	240
0	54729	10530.624217686188	239
0	54733	10531.15172499291	240
0	54735	10531.285085728051	241
0	54736	10531.45225423392	240
0	54739	10532.499316945151	239
0	54743	10532.80970107289	240
0	54745	10532.955361782922	241
0	54747	10532.971136491877	242
0	54749	10533.1357509771	243
0	54750	10533.603972878997	242
0	54753	10534.524805845358	241
0	54757	10535.174212927097	242
0	54759	10535.26835902864	243
0	54760	10535.518132712357	242
0	54763	10536.712480568085	241
0	54767	10536.821337187411	242
0	54769	10536.894251108047	243
0	54770	10537.584529099465	242
0	54774	10537.597039644663	243
0	54775	10538.41224891454	242
0	54778	10539.439652919714	241
0	54783	10540.464561698437	240
0	54786	10541.539363832623	239
0	54789	10542.73165917838	238
0	54793	10543.04037459991	239
0	54795	10543.066670300208	240
0	54797	10543.11503053838	241
0	54798	10543.53791721737	240
0	54801	10544.723538642693	239
0	54804	10545.624529807213	238
0	54808	10545.698199591774	239
0	54810	10546.455159523159	240
0	54811	10546.625805526543	239
0	54815	10546.686386545072	240
0	54817	10546.824884400393	241
0	54819	10547.503586413804	242
0	54820	10547.570336506739	241
0	54824	10547.948977674717	242
0	54825	10548.641776433065	241
0	54829	10549.304836122926	242
0	54830	10549.765284088943	241
0	54834	10549.849773486632	242
0	54836	10549.850534258573	243
0	54838	10549.892938223041	244
0	54842	10549.974989317563	245
0	54844	10550.639007916326	246
0	54845	10550.942885613665	245
0	54850	10551.791768978387	244
0	54854	10552.447448905324	245
0	54855	10552.980169486385	244
0	54859	10553.011560326495	245
0	54861	10553.165075066013	246
0	54862	10553.879351849426	245
0	54866	10553.940215223133	246
0	54869	10554.872182324287	245
0	54872	10555.946140295305	244
0	54875	10557.002416878045	243
0	54879	10557.341210960262	244
0	54881	10557.769758279135	245
0	54882	10557.896080961116	244
0	54888	10558.700527914418	245
0	54889	10558.869458030761	244
0	54892	10559.895739800055	243
0	54896	10560.669391749033	244
0	54897	10560.972202993967	243
0	54900	10561.898329515793	242
0	54906	10562.014545550547	243
0	54908	10562.085949948396	244
0	54910	10562.669296879903	245
0	54911	10562.946147484091	244
0	54915	10563.16905292565	245
0	54916	10563.80898324227	244
0	54920	10564.349012587107	245
0	54921	10564.723925948181	244
0	54924	10565.528634970487	243
0	54928	10565.655746193458	244
0	54930	10566.196176759325	245
0	54931	10566.638247574718	244
0	54934	10567.521071067491	243
0	54938	10568.094378916985	244
0	54939	10568.685431011991	243
0	54943	10568.701211799847	244
0	54945	10568.903012207993	245
0	54947	10569.21642877196	246
0	54949	10569.429773740116	247
0	54951	10569.670391515367	248
0	54952	10569.672328407077	247
0	54955	10570.516286547987	246
0	54959	10570.6456358877	247
0	54960	10571.648257413173	246
0	54964	10572.111284244033	247
0	54967	10572.683497871684	246
0	54971	10573.195448223817	247
0	54973	10573.353879698518	248
0	54974	10573.775688323232	247
0	54978	10573.922435324632	248
0	54980	10574.119498901275	249
0	54984	10574.276380012832	250
0	54986	10574.423495204914	251
0	54987	10574.783366173639	250
0	54991	10575.651232434502	251
0	54992	10575.973012375872	250
0	54996	10576.178798066756	251
0	55000	10576.463544416479	252
0	55001	10576.836768041498	251
0	55004	10577.725197682942	250
0	55008	10578.411410732043	251
0	55009	10578.71792843085	250
0	55012	10579.868018013465	249
0	55015	10580.698871854453	248
0	55019	10581.174202515944	249
0	55021	10581.182227796073	250
0	55022	10581.599381964973	249
0	55026	10581.637166073293	250
0	55028	10581.755200962253	251
0	55030	10581.768920151948	252
0	55031	10582.552322940568	251
0	55035	10583.038713099509	252
0	55036	10583.686514380521	251
0	55040	10583.900165519774	252
0	55041	10584.747652253642	251
0	55044	10585.623182449251	250
0	55048	10586.164817480806	251
0	55049	10586.470816593472	250
0	55053	10586.513285111524	251
0	55054	10587.398228525132	250
0	55058	10587.590382043151	251
0	55059	10588.284321829904	250
0	55063	10588.308041416867	251
0	55064	10589.150434230123	250
0	55068	10589.85856191098	251
0	55069	10590.286653337296	250
0	55074	10591.29370764973	249
0	55078	10591.557619245894	250
0	55079	10592.121993222035	249
0	55083	10592.519466880442	250
0	55084	10593.316769552271	249
0	55088	10593.581948102117	250
0	55089	10594.361212295893	249
0	55093	10594.375547519781	250
0	55094	10595.434683473635	249
0	55098	10596.138451132086	250
0	55099	10596.493156200129	249
0	55104	10597.463088956795	248
0	55108	10598.566175411588	249
0	55109	10598.662156766321	248
0	55113	10599.385429570756	249
0	55115	10599.439653827255	250
0	55116	10599.746107059851	249
0	55119	10600.606205805245	248
0	55123	10600.811410807973	249
0	55124	10601.416171225201	248
0	55128	10601.811385972491	249
0	55130	10601.908771127501	250
0	55131	10602.386457789637	249
0	55134	10603.329688667267	248
0	55138	10603.488984294667	249
0	55140	10604.069831762751	250
0	55141	10604.400324894715	249
0	55145	10604.565562052968	250
0	55147	10604.856989571427	251
0	55148	10605.350663286116	250
0	55152	10605.977176849274	251
0	55155	10606.451124931168	250
0	55158	10607.378539068107	249
0	55162	10607.994283297807	250
0	55163	10608.454728616443	249
0	55167	10609.381009470579	250
0	55168	10609.650080686383	249
0	55171	10610.45151985804	248
0	55175	10611.152334501449	249
0	55176	10611.303672939859	248
0	55179	10612.115620995633	247
0	55185	10612.672765019647	248
0	55186	10612.996610726736	247
0	55190	10613.299169202989	248
0	55192	10613.711058947072	249
0	55193	10614.007725321635	248
0	55197	10614.440098923501	249
0	55199	10614.528505020515	250
0	55200	10614.813416131067	249
0	55205	10615.951483223907	248
0	55209	10616.535487206466	249
0	55211	10617.021060848402	250
0	55212	10617.065441460296	249
0	55215	10618.178357032261	248
0	55219	10618.646377594569	249
0	55220	10619.289153442945	248
0	55224	10620.075775164528	249
0	55225	10620.319012763112	248
0	55229	10620.712086311037	249
0	55231	10620.940529157975	250
0	55232	10621.493222025356	249
0	55236	10621.501112429584	250
0	55237	10622.446059102512	249
0	55242	10623.420707091729	248
0	55245	10624.29520234125	247
0	55248	10625.124660943861	246
0	55252	10625.203365399418	247
0	55253	10625.943480223085	246
0	55257	10626.153576156315	247
0	55258	10626.761493784416	246
0	55261	10627.753042664513	245
0	55265	10628.057884078778	246
0	55266	10628.766311114788	245
0	55269	10629.778377404291	244
0	55273	10630.29360196811	245
0	55274	10630.859183863964	244
0	55277	10631.882212538779	243
0	55280	10632.752591496561	242
0	55284	10633.124888696749	243
0	55286	10633.407134509498	244
0	55287	10633.759913857602	243
0	55291	10634.560313612742	244
0	55292	10634.613785427664	243
0	55296	10634.730511034061	244
0	55297	10635.451270527807	243
0	55300	10636.536841424596	242
0	55303	10637.528919214052	241
0	55307	10638.06741906003	242
0	55309	10638.362609381989	243
0	55311	10638.363309813939	244
0	55312	10638.395094900713	243
0	55316	10638.407101219408	244
0	55317	10639.211700969883	243
0	55321	10639.44936695554	244
0	55325	10639.931531779666	245
0	55327	10640.228410504037	246
0	55329	10640.264557294548	247
0	55330	10640.343965834328	246
0	55334	10640.523452788254	247
0	55335	10641.271145751555	246
0	55338	10642.455721766171	245
0	55342	10642.804777738102	246
0	55343	10643.416613180325	245
0	55346	10644.403117406317	244
0	55349	10645.314071856574	243
0	55353	10645.817513235474	244
0	55355	10645.925665498036	245
0	55356	10646.442583438423	244
0	55360	10646.824261603179	245
0	55363	10647.282442758274	244
0	55366	10648.252188922879	243
0	55370	10648.443787563226	244
0	55371	10649.328248611041	243
0	55375	10649.337499288389	244
0	55377	10649.359117501687	245
0	55379	10649.896761415969	246
0	55380	10650.156049420074	245
0	55383	10651.206842026249	244
0	55390	10652.14965615286	243
0	55394	10652.25045396079	244
0	55395	10653.324492172193	243
0	55399	10653.881321467753	244
0	55400	10654.314860797249	243
0	55404	10654.569914276372	244
0	55406	10654.958009785241	245
0	55407	10655.324390289042	244
0	55411	10655.69707207935	245
0	55413	10655.764510151205	246
0	55415	10655.800047046149	247
0	55417	10656.277353203369	248
0	55418	10656.290806385916	247
0	55421	10657.288989330218	246
0	55424	10658.110434774537	245
0	55428	10659.058094366577	246
0	55429	10659.061507614371	245
0	55433	10659.201343386676	246
0	55434	10660.121303132497	245
0	55437	10661.243183959969	244
0	55440	10662.176043492877	243
0	55444	10662.779432811781	244
0	55446	10662.936846574841	245
0	55447	10663.089930462693	244
0	55450	10664.082869403851	243
0	55454	10664.154643186545	244
0	55455	10664.919502666821	243
0	55460	10665.986192633161	242
0	55463	10666.938821077203	241
0	55467	10667.503874966925	242
0	55468	10667.811844074396	241
0	55471	10668.743971598656	240
0	55475	10669.615734058151	241
0	55476	10669.780848828745	240
0	55480	10670.16709230234	241
0	55481	10670.649322762568	240
0	55485	10671.018145131608	241
0	55487	10671.637359841766	242
0	55489	10671.698995444121	243
0	55490	10671.728659178824	242
0	55494	10671.975033351711	243
0	55495	10672.824553226535	242
0	55499	10672.915247221244	243
0	55501	10673.548273295128	244
0	55503	10673.666006457492	245
0	55504	10673.873952074577	244
0	55507	10675.02426317506	243
0	55511	10675.190806479866	244
0	55512	10676.199721888588	243
0	55516	10677.283255029556	244
0	55517	10677.31704171686	243
0	55520	10678.225792321046	242
0	55524	10678.409570785806	243
0	55526	10678.870273647004	244
0	55527	10679.11989758587	243
0	55531	10679.197857669893	244
0	55532	10679.964116826975	243
0	55536	10679.977081079507	244
0	55537	10680.857439362672	243
0	55541	10681.324602477709	244
0	55542	10681.727410656721	243
0	55547	10682.649317645323	242
0	55551	10683.334744960522	243
0	55552	10683.671197035578	242
0	55555	10684.574282058277	241
0	55558	10685.642686265935	240
0	55562	10686.199959895315	241
0	55564	10686.440419686243	242
0	55565	10686.562446668786	241
0	55569	10686.802302693867	242
0	55571	10686.96991227066	243
0	55572	10687.430354025164	242
0	55576	10687.701740834159	243
0	55577	10688.245334847966	242
0	55581	10688.420230053527	243
0	55582	10689.40627207304	242
0	55586	10690.038060798592	243
0	55587	10690.209243501393	242
0	55591	10690.815982673742	243
0	55592	10691.022053564569	242
0	55596	10691.580999267172	243
0	55597	10692.122768020766	242
0	55603	10692.890295979881	243
0	55604	10693.152140426027	242
0	55608	10693.297543105738	243
0	55609	10694.009704958691	242
0	55613	10694.187760497774	243
0	55614	10694.969330822161	242
0	55618	10695.785175127207	243
0	55620	10695.7951917079	244
0	55621	10696.001571623466	243
0	55625	10696.156385061159	244
0	55627	10696.317346723043	245
0	55628	10696.957385345033	244
0	55632	10697.827525825815	245
0	55633	10697.954163991703	244
0	55636	10698.897466229504	243
0	55640	10699.157584320643	244
0	55641	10699.906819314087	243
0	55644	10701.032940686165	242
0	55650	10701.445358101369	243
0	55652	10701.745614977237	244
0	55654	10701.913929319319	245
0	55656	10702.086742152025	246
0	55658	10702.111842240398	247
0	55659	10702.220970147333	246
0	55663	10702.933899645602	247
0	55664	10703.308444798036	246
0	55667	10704.153421471032	245
0	55671	10704.576778640875	246
0	55672	10705.228582131254	245
0	55675	10706.25320656574	244
0	55679	10706.699701690159	245
0	55681	10707.391071149313	246
0	55682	10707.405880717697	245
0	55686	10707.678541906899	246
0	55688	10707.907975560194	247
0	55690	10708.122271818295	248
0	55691	10708.318453386935	247
0	55697	10708.9513936625	248
0	55698	10709.353982537004	247
0	55701	10710.348173552423	246
0	55705	10710.831926870414	247
0	55706	10711.156618205968	246
0	55709	10712.118044747084	245
0	55713	10712.758126014139	246
0	55715	10712.794013525172	247
0	55716	10713.106203091375	246
0	55719	10713.929293249778	245
0	55723	10714.385416973493	246
0	55724	10715.075678577877	245
0	55727	10715.976340875074	244
0	55731	10716.902312375427	245
0	55732	10716.966923092443	244
0	55735	10717.965829373661	243
0	55738	10718.894136073764	242
0	55741	10719.798671711932	241
0	55744	10720.928158354989	240
0	55748	10721.343780082825	241
0	55749	10721.81660319599	240
0	55752	10722.631890986903	239
0	55756	10722.875147379455	240
0	55758	10722.906514595255	241
0	55760	10723.2706208282	242
0	55761	10723.830744489232	241
0	55765	10723.876201368443	242
0	55767	10724.578811701542	243
0	55769	10724.691095658815	244
0	55770	10724.932017721744	243
0	55774	10724.96212098802	244
0	55776	10725.178974341542	245
0	55778	10725.353440963866	246
0	55780	10725.596486401872	247
0	55781	10725.959182807101	246
0	55784	10726.882891365556	245
0	55788	10726.938687009503	246
0	55790	10727.301975352449	247
0	55791	10727.701436583089	246
0	55795	10727.848015871665	247
0	55796	10728.836146163518	246
0	55800	10728.84119288231	247
0	55801	10729.702634784529	246
0	55805	10730.045241094187	247
0	55808	10730.542557033194	246
0	55814	10731.622176808722	247
0	55815	10731.653165147403	246
0	55819	10731.781783889961	247
0	55820	10732.769270377835	246
0	55825	10733.66366888261	245
0	55829	10734.28984775394	246
0	55830	10734.600190796559	245
0	55834	10734.651138528074	246
0	55835	10735.702346103681	245
0	55839	10736.605257016599	246
0	55841	10736.708785399235	247
0	55842	10736.760295320252	246
0	55846	10737.109774936103	247
0	55848	10737.119877483837	248
0	55849	10737.898350062916	247
0	55854	10738.724897962013	246
0	55857	10739.897547898484	245
0	55860	10740.793299115678	244
0	55864	10740.900937279609	245
0	55866	10741.062731649764	246
0	55868	10741.879791227468	247
0	55869	10741.965573634995	246
0	55873	10742.222146004441	247
0	55874	10743.032547402331	246
0	55878	10743.067130659482	247
0	55881	10744.123982317509	246
0	55885	10744.583081397659	247
0	55888	10745.103730490567	246
0	55892	10745.408411037435	247
0	55893	10746.034863067927	246
0	55896	10747.070674923012	245
0	55900	10748.143693034807	246
0	55901	10748.216684646295	245
0	55905	10748.393921485646	246
0	55907	10749.094834661447	247
0	55908	10749.321153117107	246
0	55912	10749.380873265959	247
0	55913	10750.1783987191	246
0	55917	10750.796886340948	247
0	55918	10751.345902004415	246
0	55922	10751.628217235399	247
0	55923	10752.54318708493	246
0	55927	10752.806962568475	247
0	55930	10753.587779926738	246
0	55934	10754.621850757347	247
0	55935	10754.656189454576	246
0	55939	10755.418894325716	247
0	55941	10755.605384558363	248
0	55942	10755.832406067519	247
0	55946	10755.922524896578	248
0	55949	10756.63796227411	247
0	55952	10757.49891954199	246
0	55955	10758.387097959449	245
0	55959	10759.000161889772	246
0	55961	10759.489924236649	247
0	55962	10759.51384231024	246
0	55966	10760.012727554926	247
0	55968	10760.03302555702	248
0	55970	10760.119963184786	249
0	55971	10760.635664159474	248
0	55975	10761.357605452443	249
0	55976	10761.512844062639	248
0	55979	10762.489879454808	247
0	55983	10763.022233753657	248
0	55984	10763.538493047325	247
0	55988	10763.660870226476	248
0	55990	10763.900505511384	249
0	55991	10764.632883594135	248
0	55995	10764.811708042306	249
0	55996	10765.821288643168	248
0	56000	10765.963427778616	249
0	56002	10766.437927458783	250
0	56003	10766.844567078581	249
0	56007	10767.024965913781	250
0	56008	10767.741615607073	249
0	56011	10768.597337578	248
0	56014	10769.409998897785	247
0	56018	10770.215846860378	248
0	56019	10770.525879338612	247
0	56023	10770.844344233324	248
0	56025	10771.099462589592	249
0	56026	10771.46159378611	248
0	56030	10771.789586373534	249
0	56031	10772.383812296339	248
0	56034	10773.461559354835	247
0	56038	10773.683363429798	248
0	56040	10774.188067261812	249
0	56041	10774.457448230632	248
0	56045	10774.667963338916	249
0	56046	10775.379831733968	248
0	56050	10776.314543704666	249
0	56051	10776.456850848108	248
0	56055	10777.03691579077	249
0	56057	10777.219372550509	250
0	56058	10777.322828442644	249
0	56062	10777.914870070208	250
0	56063	10778.142665538419	249
0	56066	10778.966257104784	248
0	56070	10779.808332666252	249
0	56073	10780.065864658117	248
0	56077	10780.085756596784	249
0	56080	10780.925842878729	248
0	56084	10781.301129571836	249
0	56085	10782.098489981744	248
0	56088	10783.011095818825	247
0	56092	10783.99656777466	248
0	56093	10784.193615992688	247
0	56096	10785.094554607984	246
0	56100	10785.257274401701	247
0	56102	10785.271098193971	248
0	56103	10786.262665969268	247
0	56107	10786.454840547733	248
0	56108	10787.156807152875	247
0	56112	10788.13930368151	248
0	56113	10788.203953160759	247
0	56117	10788.873360350265	248
0	56118	10789.020456571173	247
0	56122	10789.508953869547	248
0	56123	10790.04528869227	247
0	56127	10790.776617298019	248
0	56128	10791.137515621022	247
0	56132	10791.138986848516	248
0	56134	10791.836234564396	249
0	56135	10792.14389526606	248
0	56138	10793.035657364171	247
0	56141	10793.891746960342	246
0	56145	10794.22544550979	247
0	56147	10794.264862980965	248
0	56148	10794.72200050861	247
0	56152	10795.555082275755	248
0	56153	10795.789339544479	247
0	56157	10796.284820725621	248
0	56158	10796.711513670854	247
0	56161	10797.866344041977	246
0	56165	10797.943808502909	247
0	56167	10798.610115239327	248
0	56169	10798.617659283058	249
0	56170	10799.005595424998	248
0	56173	10799.984556534554	247
0	56177	10799.99768268385	248
0	56179	10800.449466944549	249
0	56181	10800.962520137564	250
0	56182	10801.032094936486	249
0	56186	10801.456256759703	250
0	56188	10801.937116908768	251
0	56189	10802.012248852424	250
0	56193	10802.059906818645	251
0	56194	10803.170591783192	250
0	56198	10803.189731782476	251
0	56199	10804.335424533155	250
0	56202	10805.268340770383	249
0	56206	10805.876450403129	250
0	56207	10806.130514616095	249
0	56210	10807.086233817362	248
0	56214	10807.205858916286	249
0	56215	10808.280460619782	248
0	56218	10809.088607741189	247
0	56222	10809.426354125765	248
0	56224	10809.662469077864	249
0	56226	10809.844150682885	250
0	56227	10810.247643218417	249
0	56231	10810.596067967875	250
0	56233	10810.682755119528	251
0	56234	10811.185416677915	250
0	56239	10812.137115822588	249
0	56242	10813.021888523777	248
0	56246	10813.935468342889	249
0	56247	10814.085363470525	248
0	56251	10814.29946873816	249
0	56252	10814.99207468661	248
0	56256	10815.036762197679	249
0	56258	10815.421919660874	250
0	56259	10816.135107919802	249
0	56262	10817.292032762379	248
0	56266	10817.819462530739	249
0	56267	10818.296648461506	248
0	56271	10818.645648342952	249
0	56273	10818.987366903415	250
0	56274	10819.442008031946	249
0	56278	10819.97391966538	250
0	56280	10820.077433731557	251
0	56281	10820.244319430501	250
0	56285	10820.434589677974	251
0	56286	10821.159816036415	250
0	56289	10822.000182637707	249
0	56292	10822.929722577096	248
0	56296	10823.663445223353	249
0	56297	10823.937514843741	248
0	56300	10825.052856109799	247
0	56303	10826.138801252511	246
0	56307	10826.172359017011	247
0	56309	10826.192889674938	248
0	56311	10826.65417962877	249
0	56312	10827.076197074488	248
0	56316	10827.193160206541	249
0	56318	10827.738748128859	250
0	56319	10827.968818106264	249
0	56323	10828.159344017425	250
0	56324	10829.129375840113	249
0	56328	10829.243932013404	250
0	56329	10830.013546998281	249
0	56332	10831.18703649104	248
0	56336	10831.402160846347	249
0	56337	10832.283453526202	248
0	56340	10833.346571103338	247
0	56344	10833.422627055475	248
0	56346	10834.046379682981	249
0	56347	10834.346296369139	248
0	56351	10834.548364273511	249
0	56352	10835.38563948492	248
0	56356	10835.54065630982	249
0	56357	10836.19670636835	248
0	56361	10836.277489731432	249
0	56362	10837.324742114679	248
0	56366	10837.936840501488	249
0	56367	10838.129993741163	248
0	56370	10839.001527978335	247
0	56374	10839.792529629722	248
0	56375	10839.934541018349	247
0	56378	10840.88589647342	246
0	56382	10840.90353917585	247
0	56384	10841.066726101633	248
0	56385	10841.738759283205	247
0	56389	10842.184008836261	248
0	56390	10842.864725731076	247
0	56393	10843.890565983714	246
0	56397	10844.180706989456	247
0	56399	10844.853854456375	248
0	56400	10845.082555313823	247
0	56404	10845.906006098169	248
0	56405	10846.020956639615	247
0	56408	10847.08705068598	246
0	56411	10848.186887119379	245
0	56415	10848.723921351732	246
0	56416	10849.11243122159	245
0	56420	10849.190014938467	246
0	56421	10850.140096775577	245
0	56425	10850.288018879992	246
0	56427	10850.459477793672	247
0	56428	10851.070874168952	246
0	56431	10852.160328014051	245
0	56434	10853.233183177417	244
0	56437	10854.14324575136	243
0	56440	10855.055267750794	242
0	56444	10855.151026229319	243
0	56445	10856.131576829726	242
0	56449	10856.158485619178	243
0	56453	10856.824134642903	244
0	56454	10857.297331380887	243
0	56458	10857.703784932676	244
0	56459	10858.461644916931	243
0	56463	10858.592883206569	244
0	56465	10859.098893172563	245
0	56466	10859.511520692656	244
0	56470	10859.668451278831	245
0	56471	10860.541180406554	244
0	56475	10861.244556614604	245
0	56476	10861.475209579567	244
0	56480	10861.689337290213	245
0	56481	10862.327564616731	244
0	56485	10862.529944464605	245
0	56487	10862.697326192118	246
0	56488	10863.223216037123	245
0	56491	10864.322715559831	244
0	56495	10865.133417089045	245
0	56496	10865.140065052683	244
0	56500	10865.680858361037	245
0	56501	10866.151728974605	244
0	56505	10866.352274897051	245
0	56507	10866.729774481301	246
0	56508	10867.032726544743	245
0	56512	10867.685187588948	246
0	56513	10867.898970279978	245
0	56517	10868.234924443147	246
0	56518	10868.866889274721	245
0	56521	10869.771909909085	244
0	56525	10870.48962028084	245
0	56527	10870.526154271099	246
0	56528	10870.720761638083	245
0	56531	10871.885410041497	244
0	56535	10872.605321186701	245
0	56536	10872.879188807257	244
0	56540	10872.921208451642	245
0	56541	10874.033674415242	244
0	56544	10875.017847901624	243
0	56548	10875.433983035814	244
0	56549	10876.136369753018	243
0	56552	10877.014953441773	242
0	56556	10877.177649279221	243
0	56558	10877.535641571553	244
0	56559	10878.05613696095	243
0	56562	10879.120657162875	242
0	56566	10879.731166444371	243
0	56567	10879.965556776099	242
0	56570	10880.929391943053	241
0	56573	10881.92182394084	240
0	56577	10882.231025229122	241
0	56579	10882.519883335579	242
0	56580	10882.813917218469	241
0	56584	10883.009931115755	242
0	56586	10883.803099151784	243
0	56587	10884.000610121101	242
0	56593	10884.811213757135	243
0	56594	10885.102474194433	242
0	56598	10885.540744622957	243
0	56599	10885.937984486896	242
0	56603	10886.271626913582	243
0	56604	10886.842352060828	242
0	56608	10887.140780358263	243
0	56610	10887.274601810792	244
0	56611	10887.808383430954	243
0	56615	10887.952655644063	244
0	56617	10888.44554042431	245
0	56618	10888.991854106117	244
0	56622	10889.675715591211	245
0	56623	10889.994650473393	244
0	56627	10890.420353375821	245
0	56629	10890.765780033217	246
0	56630	10890.859775023296	245
0	56635	10891.941314428526	244
0	56639	10892.771930794128	245
0	56640	10892.977876879408	244
0	56643	10894.062372499558	243
0	56647	10894.576876051439	244
0	56649	10894.87102000467	245
0	56650	10895.145101542345	244
0	56654	10896.068637776338	245
0	56655	10896.161174083448	244
0	56659	10896.683590817008	245
0	56661	10896.900146662387	246
0	56662	10897.166820512007	245
0	56666	10897.362560501032	246
0	56667	10898.345859465136	245
0	56670	10899.330816681257	244
0	56674	10899.682168843828	245
0	56676	10899.796839222584	246
0	56677	10900.271467597077	245
0	56681	10901.107684756195	246
0	56682	10901.307411383598	245
0	56685	10902.435909180476	244
0	56689	10902.733679829756	245
0	56691	10903.327836730295	246
0	56692	10903.505129563476	245
0	56696	10904.349853175055	246
0	56697	10904.577427284832	245
0	56701	10905.455270409123	246
0	56702	10905.581672996323	245
0	56705	10906.64422735222	244
0	56709	10906.91898019932	245
0	56710	10907.565362281206	244
0	56713	10908.586683631542	243
0	56716	10909.399021050746	242
0	56720	10909.54122167919	243
0	56723	10910.52049055746	242
0	56727	10910.857600115619	243
0	56730	10911.583366922142	242
0	56734	10912.25801788355	243
0	56735	10912.548534073906	242
0	56741	10913.629016669556	243
0	56742	10913.700630423373	242
0	56745	10914.580792110267	241
0	56749	10915.313596302342	242
0	56750	10915.629088563326	241
0	56754	10916.016290286075	242
0	56755	10916.472480208001	241
0	56758	10917.515806261397	240
0	56761	10918.382219272706	239
0	56765	10918.586847504684	240
0	56766	10919.208429308276	239
0	56770	10919.504752038324	240
0	56771	10920.018914614006	239
0	56775	10920.730961488091	240
0	56776	10921.19014330529	239
0	56780	10922.196837204785	240
0	56782	10922.222802214961	241
0	56783	10922.284643028531	240
0	56787	10922.317263704675	241
0	56789	10922.598482461371	242
0	56790	10923.224691802025	241
0	56796	10923.776594674428	242
0	56797	10924.031914551038	241
0	56801	10924.292075893901	242
0	56802	10925.053691335808	241
0	56806	10925.061176737434	242
0	56807	10926.137574949901	241
0	56811	10926.275447736107	242
0	56813	10926.336966097403	243
0	56815	10926.59622563346	244
0	56817	10926.941774608618	245
0	56818	10927.038704637385	244
0	56822	10927.47835066488	245
0	56823	10928.092086991522	244
0	56827	10928.103398461424	245
0	56829	10928.202694950473	246
0	56830	10929.157235293597	245
0	56834	10929.234252498429	246
0	56836	10929.625239054612	247
0	56837	10930.348348357383	246
0	56841	10931.212391331239	247
0	56842	10931.326844915975	246
0	56847	10932.419222319447	245
0	56851	10932.63283161064	246
0	56852	10933.31732290056	245
0	56855	10934.250922806509	244
0	56859	10934.746378035412	245
0	56860	10935.325899709337	244
0	56864	10935.635537688124	245
0	56866	10935.931562487763	246
0	56868	10936.110278136496	247
0	56869	10936.203105459869	246
0	56872	10937.269904544711	245
0	56876	10937.818806353093	246
0	56877	10938.359979795799	245
0	56881	10938.422165278754	246
0	56883	10938.544386658578	247
0	56885	10939.064061412031	248
0	56886	10939.228268501483	247
0	56890	10939.935499404858	248
0	56891	10940.150348107558	247
0	56895	10941.045588284691	248
0	56896	10941.339925106377	247
0	56900	10941.758847304341	248
0	56901	10942.489639323712	247
0	56904	10943.380489069544	246
0	56908	10943.784937926536	247
0	56910	10943.999706132228	248
0	56911	10944.210372683447	247
0	56915	10944.485966855714	248
0	56916	10945.36996858776	247
0	56920	10945.733813134556	248
0	56922	10946.342421612482	249
0	56923	10946.453636944987	248
0	56927	10946.45809908681	249
0	56929	10946.589901640193	250
0	56931	10946.630959125563	251
0	56932	10947.4063981038	250
0	56935	10948.355283140153	249
0	56939	10948.84266594293	250
0	56942	10949.529323293403	249
0	56945	10950.648762721796	248
0	56948	10951.530459413905	247
0	56951	10952.556333798118	246
0	56955	10952.885980054871	247
0	56957	10953.249029410827	248
0	56958	10953.479926504515	247
0	56962	10954.071039485982	248
0	56964	10954.122262335209	249
0	56965	10954.324609256949	248
0	56968	10955.3612850537	247
0	56972	10955.606541853857	248
0	56974	10955.624933950956	249
0	56975	10956.244784002326	248
0	56978	10957.374626385368	247
0	56982	10957.694925220971	248
0	56983	10958.313085764315	247
0	56986	10959.444721131161	246
0	56990	10959.670579027237	247
0	56992	10959.946575216165	248
0	56994	10960.227687973219	249
0	56995	10960.353816832271	248
0	56999	10960.420943680462	249
0	57001	10960.872495451842	250
0	57003	10960.900415451815	251
0	57004	10961.207723503043	250
0	57007	10962.081776401443	249
0	57011	10963.234731522435	250
0	57012	10963.259012711742	249
0	57016	10963.489611848622	250
0	57017	10964.344219796308	249
0	57020	10965.293466626615	248
0	57023	10966.375385375083	247
0	57027	10966.402266530841	248
0	57028	10967.482320105885	247
0	57032	10968.284220593849	248
0	57033	10968.308524182015	247
0	57037	10968.699268870087	248
0	57039	10968.942074942514	249
0	57040	10969.307205557679	248
0	57044	10969.546632817135	249
0	57045	10970.127179845278	248
0	57048	10971.128426806857	247
0	57052	10971.569285105038	248
0	57054	10971.709801548803	249
0	57056	10971.982757199442	250
0	57057	10972.066463879445	249
0	57060	10973.014493245301	248
0	57064	10973.275851634571	249
0	57065	10974.048742179149	248
0	57069	10974.900983613646	249
0	57070	10974.944064978087	248
0	57074	10975.103564167304	249
0	57076	10975.200989612392	250
0	57077	10975.775340493718	249
0	57081	10976.086739172503	250
0	57082	10976.629193515373	249
0	57086	10976.849239497971	250
0	57088	10977.314300392425	251
0	57089	10977.722048784928	250
0	57093	10978.03397116301	251
0	57094	10978.708432213259	250
0	57098	10978.935276012758	251
0	57099	10979.558852000577	250
0	57103	10979.981689593737	251
0	57104	10980.642688738877	250
0	57107	10981.467221329218	249
0	57110	10982.396094623903	248
0	57114	10982.632602362792	249
0	57115	10983.337207665524	248
0	57119	10984.198374898703	249
0	57120	10984.233073287594	248
0	57123	10985.143929065249	247
0	57127	10985.505243643134	248
0	57129	10985.878926574097	249
0	57130	10986.164425396591	248
0	57134	10986.353182855009	249
0	57136	10986.794050869603	250
0	57137	10987.059683774083	249
0	57140	10987.865263274635	248
0	57144	10988.627951167206	249
0	57145	10988.716862337614	248
0	57149	10989.058134098784	249
0	57150	10989.758236544623	248
0	57154	10990.348246435528	249
0	57155	10990.887071803256	248
0	57158	10992.01649700389	247
0	57162	10992.593216322365	248
0	57164	10992.717153869387	249
0	57165	10992.819407002299	248
0	57168	10993.998496861613	247
0	57172	10994.72587627804	248
0	57173	10994.927310589186	247
0	57177	10995.106021251784	248
0	57179	10995.249952585452	249
0	57180	10995.786030636213	248
0	57184	10996.459347874657	249
0	57186	10996.688176944185	250
0	57187	10996.755179489727	249
0	57191	10997.499575053268	250
0	57192	10997.902452330242	249
0	57195	10998.967693056303	248
0	57199	10999.039128461607	249
0	57200	10999.807005040391	248
0	57204	11000.064671950263	249
0	57206	11000.422652171803	250
0	57207	11000.761333851001	249
0	57211	11001.455254557061	250
0	57213	11001.545800910664	251
0	57214	11001.669892932704	250
0	57218	11002.228723596987	251
0	57219	11002.558679073813	250
0	57223	11002.637463755453	251
0	57226	11003.700928161337	250
0	57229	11004.533638814042	249
0	57232	11005.380192494995	248
0	57238	11005.734248259289	249
0	57239	11006.181201930947	248
0	57243	11006.507426560328	249
0	57245	11006.954528269021	250
0	57246	11007.107012204497	249
0	57250	11008.030409624678	250
0	57251	11008.121658701214	249
0	57254	11009.235455643057	248
0	57258	11009.843062904113	249
0	57260	11010.298732137538	250
0	57261	11010.419314308788	249
0	57265	11010.675622799583	250
0	57266	11011.502337625387	249
0	57270	11011.740187454678	250
0	57272	11011.856065095199	251
0	57273	11012.606572981874	250
0	57277	11013.347258914867	251
0	57278	11013.579024650479	250
0	57282	11013.738279232192	251
0	57284	11013.747824829252	252
0	57286	11014.383892900742	253
0	57287	11014.624158916759	252
0	57291	11015.093551446154	253
0	57292	11015.716165994524	252
0	57296	11015.933376054384	253
0	57297	11016.557675619281	252
0	57300	11017.646831367581	251
0	57304	11018.741449073258	252
0	57305	11018.830444096911	251
0	57309	11019.524906014709	252
0	57310	11019.801038008041	251
0	57314	11020.494671766403	252
0	57315	11020.667768965147	251
0	57319	11020.794247899016	252
0	57320	11021.511192323405	251
0	57324	11021.909504729816	252
0	57325	11022.657405980535	251
0	57329	11022.990008703427	252
0	57330	11023.814063436769	251
0	57334	11023.955928443086	252
0	57335	11024.934597152423	251
0	57338	11025.816984036144	250
0	57341	11026.698859903447	249
0	57345	11026.724271503185	250
0	57346	11027.504475843113	249
0	57349	11028.31556398873	248
0	57353	11028.598919459923	249
0	57355	11028.950591266538	250
0	57358	11029.318733900178	249
0	57362	11029.577910144737	250
0	57364	11029.724883148327	251
0	57365	11030.324021454479	250
0	57369	11030.901563345598	251
0	57370	11031.422039723254	250
0	57374	11031.73311778686	251
0	57376	11032.364956457679	252
0	57377	11032.55440982091	251
0	57381	11032.562036052785	252
0	57382	11033.355367294836	251
0	57385	11034.329317223138	250
0	57389	11034.922197463783	251
0	57390	11035.250250137082	250
0	57393	11036.257144685692	249
0	57397	11036.337772993056	250
0	57398	11037.234380516081	249
0	57402	11037.483445074353	250
0	57404	11037.664795705821	251
0	57406	11037.905693930815	252
0	57407	11038.247015949848	251
0	57410	11039.317496329403	250
0	57414	11039.827300517638	251
0	57415	11040.391085337239	250
0	57419	11040.397392175696	251
0	57421	11040.722527441069	252
0	57424	11041.339416103854	251
0	57427	11042.194350485175	250
0	57431	11042.268271526133	251
0	57433	11042.578510872888	252
0	57434	11043.366362804032	251
0	57437	11044.36845494718	250
0	57440	11045.293549482475	249
0	57444	11045.792519276209	250
0	57446	11046.066355947306	251
0	57448	11046.131160667171	252
0	57449	11046.412973673313	251
0	57453	11047.440636634661	252
0	57454	11047.592240814163	251
0	57458	11048.29979164947	252
0	57460	11048.505270680596	253
0	57461	11048.551403500183	252
0	57465	11049.4910696077	253
0	57466	11049.646399975332	252
0	57469	11050.548990763022	251
0	57472	11051.423111778913	250
0	57475	11052.320651689308	249
0	57479	11052.404333641587	250
0	57481	11052.900630107903	251
0	57482	11053.520091875034	250
0	57486	11053.569650539993	251
0	57488	11054.208024004088	252
0	57489	11054.66941136331	251
0	57495	11055.82568701538	252
0	57496	11055.838044995113	251
0	57500	11056.078680479929	252
0	57501	11056.949622891794	251
0	57505	11057.627293716612	252
0	57506	11057.767797417424	251
0	57509	11058.655262527473	250
0	57513	11058.716790449505	251
0	57514	11059.837315893125	250
0	57517	11060.705874503728	249
0	57521	11061.126045246139	250
0	57522	11061.851133177381	249
0	57526	11061.95227925633	250
0	57527	11062.921606834278	249
0	57531	11063.415761538444	250
0	57533	11063.616143368918	251
0	57534	11063.975346600216	250
0	57538	11064.321281610531	251
0	57539	11065.139946126703	250
0	57543	11065.413624787107	251
0	57544	11066.000275355436	250
0	57548	11066.192574894049	251
0	57549	11066.872706332103	250
0	57553	11067.224826795565	251
0	57554	11067.983739632134	250
0	57558	11067.983814157714	251
0	57559	11069.101696859532	250
0	57562	11070.037939109606	249
0	57565	11071.06035809447	248
0	57569	11071.150539589278	249
0	57571	11071.431213101048	250
0	57572	11072.205410582804	249
0	57576	11072.475191179149	250
0	57578	11072.953160840171	251
0	57579	11073.12673474322	250
0	57583	11073.793371411436	251
0	57585	11073.933325991049	252
0	57586	11074.285472871875	251
0	57590	11075.070080045915	252
0	57591	11075.35972980964	251
0	57594	11076.424629309261	250
0	57597	11077.421011150675	249
0	57601	11077.481111920197	250
0	57602	11078.431588089699	249
0	57605	11079.34918665993	248
0	57609	11079.421308643792	249
0	57611	11079.977918910068	250
0	57612	11080.456012775795	249
0	57616	11081.259156738012	250
0	57617	11081.583445923449	249
0	57620	11082.600732680549	248
0	57624	11082.9884855141	249
0	57626	11083.583444543547	250
0	57627	11083.630128171061	249
0	57631	11083.651493796383	250
0	57633	11083.675934770767	251
0	57635	11083.709557520983	252
0	57636	11084.807162719265	251
0	57639	11085.697113401115	250
0	57642	11086.628539593563	249
0	57646	11086.723973812448	250
0	57648	11087.184544422897	251
0	57649	11087.554611972113	250
0	57655	11088.184380198824	251
0	57656	11088.355078217433	250
0	57659	11089.397902299416	249
0	57663	11089.742036450233	250
0	57664	11090.272253772476	249
0	57667	11091.143922188831	248
0	57670	11092.269127515098	247
0	57673	11093.234511016915	246
0	57677	11093.941666814619	247
0	57678	11094.039819502598	246
0	57682	11094.771664591872	247
0	57683	11094.845179960551	246
0	57686	11095.803620118881	245
0	57690	11096.097532376699	246
0	57691	11096.667185075628	245
0	57695	11097.101873124019	246
0	57697	11097.234417472846	247
0	57698	11097.773395661684	246
0	57701	11098.659706272511	245
0	57704	11099.596644718526	244
0	57707	11100.528302636324	243
0	57710	11101.719047888881	242
0	57713	11102.766693196027	241
0	57716	11103.719148043963	240
0	57720	11103.919422877266	241
0	57722	11104.569323314909	242
0	57723	11104.595936998959	241
0	57726	11105.511636771309	240
0	57729	11106.67500743256	239
0	57733	11107.077206482176	240
0	57735	11107.236192784885	241
0	57736	11107.484085623129	240
0	57739	11108.389158516797	239
0	57743	11108.617953299597	240
0	57745	11109.356842457719	241
0	57746	11109.392411439634	240
0	57750	11110.155331691775	241
0	57751	11110.406266559242	240
0	57755	11111.079330838927	241
0	57756	11111.537036762061	240
0	57760	11112.185848712832	241
0	57762	11112.269882390356	242
0	57763	11112.386440316169	241
0	57768	11113.472185016284	240
0	57772	11113.645375986198	241
0	57774	11114.05550612764	242
0	57776	11114.400759270252	243
0	57777	11114.488841028838	242
0	57780	11115.499613104621	241
0	57783	11116.494453652343	240
0	57787	11116.872586153664	241
0	57788	11117.536354086595	240
0	57792	11117.830494889854	241
0	57793	11118.724930951326	240
0	57796	11119.719554275135	239
0	57800	11119.724341989396	240
0	57804	11120.734915302594	241
0	57805	11120.89858341082	240
0	57809	11120.904876860133	241
0	57811	11121.018414195607	242
0	57812	11121.956449753465	241
0	57815	11123.019806193234	240
0	57819	11123.211721212291	241
0	57821	11123.456629413636	242
0	57822	11123.96596674011	241
0	57825	11125.028703050827	240
0	57829	11125.331533369511	241
0	57830	11126.10748144933	240
0	57834	11126.407723843518	241
0	57836	11126.714783524354	242
0	57837	11127.083928827336	241
0	57841	11127.323195553886	242
0	57842	11128.210202361038	241
0	57846	11128.754680046019	242
0	57847	11129.311947514722	241
0	57851	11129.540571332771	242
0	57852	11130.477638998674	241
0	57856	11130.79253992675	242
0	57858	11130.961272869806	243
0	57860	11130.990062309331	244
0	57861	11131.42951911767	243
0	57865	11131.615782026475	244
0	57867	11131.622561688308	245
0	57868	11132.595622502407	244
0	57872	11132.717495761666	245
0	57874	11133.203625855853	246
0	57875	11133.720447170502	245
0	57879	11134.468924142392	246
0	57880	11134.789954768261	245
0	57884	11135.385930438559	246
0	57885	11135.644312656252	245
0	57891	11136.139710577342	246
0	57892	11136.71720194337	245
0	57896	11137.218155709504	246
0	57898	11137.40164962402	247
0	57899	11137.721118416684	246
0	57902	11138.811975684902	245
0	57906	11138.966511010235	246
0	57909	11139.699002316455	245
0	57913	11139.835957349109	246
0	57915	11139.912707041612	247
0	57917	11140.221196667523	248
0	57919	11140.648664372838	249
0	57920	11140.781028320501	248
0	57926	11141.695141306493	249
0	57927	11141.823915102473	248
0	57931	11141.928061526672	249
0	57933	11142.037921684778	250
0	57934	11142.87411320624	249
0	57938	11143.243960175723	250
0	57940	11143.457620150488	251
0	57942	11143.528326461848	252
0	57944	11143.612680260971	253
0	57945	11143.831926114439	252
0	57949	11144.139164543182	253
0	57951	11144.40734030495	254
0	57952	11144.914263901628	253
0	57955	11145.969094663441	252
0	57958	11147.04769113227	251
0	57961	11148.169892897412	250
0	57964	11149.052873456061	249
0	57967	11150.163518216789	248
0	57971	11150.339905722172	249
0	57973	11150.364677776074	250
0	57974	11151.068192717761	249
0	57977	11152.143215396304	248
0	57980	11153.078339055695	247
0	57985	11154.06679642345	246
0	57989	11154.389002201109	247
0	57991	11154.63663706428	248
0	57993	11154.983046983746	249
0	57994	11155.02531164163	248
0	57998	11155.439621294733	249
0	57999	11155.838329684783	248
0	58003	11156.543988943252	249
0	58004	11156.737997005835	248
0	58008	11156.93517101603	249
0	58010	11157.032800056529	250
0	58012	11157.264422865927	251
0	58013	11157.581087373804	250
0	58017	11158.572276218215	251
0	58018	11158.67090219739	250
0	58021	11159.624682114135	249
0	58025	11159.69554117864	250
0	58026	11160.555070632651	249
0	58030	11161.157192269268	250
0	58032	11161.581907568853	251
0	58033	11161.591099981546	250
0	58037	11161.631104017998	251
0	58039	11161.939199246088	252
0	58040	11162.429945296377	251
0	58044	11162.51965529152	252
0	58047	11163.346128717206	251
0	58051	11163.490644827993	252
0	58052	11164.224715635228	251
0	58055	11165.276687201905	250
0	58059	11165.315702021512	251
0	58060	11166.373522893107	250
0	58064	11166.487748134433	251
0	58067	11167.448246710049	250
0	58072	11168.435472404258	249
0	58076	11168.602915031903	250
0	58078	11168.625561337544	251
0	58079	11169.326095110317	250
0	58083	11170.033803895808	251
0	58084	11170.191292116278	250
0	58087	11171.095897205313	249
0	58090	11172.291652451595	248
0	58094	11172.768927799266	249
0	58095	11173.299244873738	248
0	58099	11174.077827244593	249
0	58100	11174.208652867237	248
0	58104	11174.618344854926	249
0	58105	11175.224608956044	248
0	58108	11176.211380652105	247
0	58112	11176.500013056342	248
0	58114	11176.632945046726	249
0	58115	11177.365405161539	248
0	58118	11178.514477706561	247
0	58121	11179.366461002221	246
0	58124	11180.408177327318	245
0	58128	11180.515737869732	246
0	58129	11181.537319135899	245
0	58132	11182.703859209037	244
0	58135	11183.735072333133	243
0	58139	11184.204087889791	244
0	58140	11184.909493738646	243
0	58144	11185.517596121986	244
0	58145	11185.806410955312	243
0	58148	11186.980138724624	242
0	58154	11187.877133273303	243
0	58155	11188.07337730839	242
0	58159	11188.31270166538	243
0	58160	11188.895012959885	242
0	58164	11189.427452767988	243
0	58165	11189.787160810223	242
0	58169	11189.811018608423	243
0	58171	11190.494457223875	244
0	58173	11190.519574609501	245
0	58174	11190.835017364891	244
0	58178	11190.965421084982	245
0	58180	11191.242026698507	246
0	58181	11191.683597411075	245
0	58185	11192.101600204882	246
0	58186	11192.73350270926	245
0	58189	11193.682625254756	244
0	58193	11194.026718627272	245
0	58194	11194.486773029482	244
0	58199	11195.677375480579	243
0	58203	11195.80172708533	244
0	58205	11196.446936512163	245
0	58206	11196.578112054011	244
0	58209	11197.655420617806	243
0	58212	11198.695141195273	242
0	58215	11199.531438110163	241
0	58219	11199.708325038269	242
0	58221	11199.925440688861	243
0	58225	11200.629353687213	244
0	58226	11200.648854749696	243
0	58231	11201.546362694027	242
0	58235	11201.934412228405	243
0	58237	11202.000312412476	244
0	58238	11202.476262333477	243
0	58242	11202.928540580051	244
0	58244	11203.046540688532	245
0	58246	11203.264808926392	246
0	58248	11203.392510061877	247
0	58249	11203.41280875071	246
0	58252	11204.328824614874	245
0	58256	11204.494260276101	246
0	58257	11205.477669618419	245
0	58260	11206.532276102389	244
0	58264	11207.422909675356	245
0	58265	11207.596131383768	244
0	58269	11207.609113967813	245
0	58270	11208.58981825444	244
0	58273	11209.537974631647	243
0	58277	11209.906002860795	244
0	58278	11210.383008268057	243
0	58282	11210.397227839661	244
0	58284	11210.472801268319	245
0	58286	11210.676371471071	246
0	58288	11211.318562430798	247
0	58290	11211.481107885042	248
0	58291	11211.582630010089	247
0	58294	11212.538663482526	246
0	58300	11213.208224382408	247
0	58301	11213.689627595478	246
0	58304	11214.656251307064	245
0	58308	11214.924112292258	246
0	58310	11215.118635555386	247
0	58312	11215.213708855414	248
0	58314	11215.271507089969	249
0	58315	11215.54713758123	248
0	58319	11216.05848468337	249
0	58321	11216.315322205438	250
0	58322	11216.550203162198	249
0	58326	11216.906381634304	250
0	58327	11217.42271120143	249
0	58330	11218.601450071064	248
0	58333	11219.476509291445	247
0	58337	11219.667382677993	248
0	58339	11219.694461286154	249
0	58341	11219.818225326697	250
0	58342	11220.382346511026	249
0	58346	11221.163228361142	250
0	58347	11221.271243340568	249
0	58350	11222.381463632965	248
0	58353	11223.393422017665	247
0	58356	11224.421791894594	246
0	58359	11225.562784192757	245
0	58363	11225.56397363983	246
0	58365	11225.75722534874	247
0	58367	11226.151773461429	248
0	58368	11226.724935449985	247
0	58372	11226.783254250882	248
0	58374	11226.934760604429	249
0	58375	11227.712960902182	248
0	58379	11227.903228874476	249
0	58380	11228.881263540731	248
0	58383	11230.019825348956	247
0	58387	11230.742841884592	248
0	58388	11230.914899088582	247
0	58392	11231.079642767935	248
0	58394	11231.528768118884	249
0	58395	11232.004384108493	248
0	58399	11232.228310033087	249
0	58402	11232.851863521477	248
0	58406	11233.199885953463	249
0	58407	11233.953421191172	248
0	58410	11234.781740275909	247
0	58414	11234.915819898861	248
0	58416	11235.396485463576	249
0	58417	11235.643657278501	248
0	58420	11236.780183030803	247
0	58424	11237.731301261028	248
0	58425	11237.883339346897	247
0	58429	11237.94238939582	248
0	58430	11239.067021283832	247
0	58434	11239.86994274077	248
0	58435	11239.981454228096	247
0	58438	11241.060542916086	246
0	58442	11241.096548416418	247
0	58444	11241.874221866141	248
0	58445	11242.232067271088	247
0	58449	11243.071541184927	248
0	58450	11243.139343418599	247
0	58454	11243.374765828253	248
0	58456	11243.92703733234	249
0	58457	11243.944499724218	248
0	58461	11244.15528220739	249
0	58465	11244.562169505138	250
0	58466	11244.959624100988	249
0	58470	11245.3687164894	250
0	58471	11245.932649209862	249
0	58475	11246.633977815686	250
0	58476	11246.786176455067	249
0	58479	11247.692625431763	248
0	58483	11248.403826761952	249
0	58484	11248.612374635553	248
0	58487	11249.630244870158	247
0	58491	11249.708874335902	248
0	58493	11249.994268942883	249
[...]
6	115238	22203.086524744206	1640
6	115251	22206.367331051128	1641
6	115286	22213.193443995291	1642
6	115451	22243.128113105487	1643
6	115539	22260.943496675539	1644
6	115688	22290.321808389202	1645
6	115705	22293.206213050775	1646
6	115745	22299.949056615566	1647
6	115790	22307.150717546019	1648
6	115816	22311.812481760328	1649
6	115845	22317.123690978497	1650
6	116083	22362.09951044752	1651
6	116119	22368.286054932926	1652
6	116141	22372.59388708775	1653
6	116192	22383.535791184701	1654
6	116234	22389.67188804715	1655
6	116289	22400.881146093248	1656
6	116373	22416.30908605453	1657
6	116390	22418.436701061875	1658
6	116610	22461.077293919601	1659
6	116636	22465.112710545119	1660
6	116911	22519.554290582627	1661
6	116955	22527.090526925234	1662
6	116989	22531.034719888114	1663
6	117008	22534.069119445463	1664
6	117069	22545.544931587463	1665
6	117074	22546.538369401918	1666
6	117092	22550.542671574228	1667
6	117159	22562.538630007032	1668
6	117207	22569.987179420798	1669
6	117336	22595.110490922024	1670
6	117377	22603.381847808841	1671
6	117379	22603.401089165764	1672
6	117429	22611.504164593142	1673
6	117456	22616.703174881271	1674
6	117574	22641.195066849533	1675
6	117649	22656.361537213587	1676
6	117695	22664.15432776149	1677
6	117712	22667.18628067657	1678
6	117743	22673.546180888284	1679
6	117748	22674.476979679666	1680
6	117786	22680.658986723934	1681
6	117799	22683.341394367978	1682
6	117870	22698.377542296709	1683
6	117875	22698.896087730624	1684
6	117880	22700.116776613995	1685
6	117907	22704.896755553603	1686
6	117934	22709.78952220052	1687
6	117938	22710.600092269038	1688
6	117977	22716.958914170318	1689
6	118021	22724.703872953853	1690
6	118058	22731.685372477288	1691
6	118182	22755.438858708414	1692
6	118204	22759.958490955079	1693
6	118229	22764.381715583903	1694
6	118231	22764.478852336566	1695
6	118247	22766.898655570659	1696
6	118294	22775.289743088062	1697
6	118389	22792.794851001449	1698
6	118417	22798.627455485934	1699
6	118594	22833.75309395054	1700
6	118601	22834.918789787625	1701
6	118800	22878.192839246529	1702
6	118823	22882.729343388283	1703
6	119095	22935.225572018151	1704
6	119107	22937.879809885411	1705
6	119169	22947.257283281487	1706
6	119337	22979.215529833083	1707
6	119402	22991.899124023061	1708
6	119426	22995.63069154373	1709
6	119546	23015.423674037194	1710
6	119559	23018.073956786132	1711
6	119667	23038.545502680255	1712
6	119675	23040.318128732005	1713
6	119758	23056.223537462891	1714
6	119765	23057.289603098648	1715
6	119798	23063.811804260822	1716
6	119850	23074.483236717696	1717
6	119855	23074.847418235551	1718
6	119877	23079.015356689442	1719
6	120009	23109.419565914834	1720
6	120029	23113.855214979349	1721
6	120137	23136.649979528695	1722
6	120157	23140.096205421863	1723
6	120169	23142.14108507998	1724
6	120274	23161.643099272205	1725
6	120301	23165.791512629286	1726
6	120341	23175.017272051164	1727
6	120403	23186.710507065348	1728
6	120484	23199.7964664874	1729
6	120570	23216.520209941434	1730
6	120585	23219.377845063195	1731
6	120595	23221.016612666622	1732
6	120642	23228.121290764082	1733
6	120646	23228.597187821483	1734
6	120669	23233.343830149195	1735
6	120712	23241.49020838486	1736
6	120726	23243.708028008092	1737
6	120733	23244.560825357344	1738
6	120779	23252.787209805751	1739
6	120819	23260.647190572566	1740
6	120864	23267.826829096931	1741
6	120890	23273.240299918412	1742
6	121034	23300.273277016313	1743
6	121045	23301.340493825086	1744
6	121124	23317.151438485502	1745
6	121167	23325.935610341526	1746
6	121234	23341.007319814968	1747
6	121248	23342.779588765677	1748
6	121324	23357.330148509187	1749
6	121402	23374.859443449121	1750
6	121532	23399.364189628659	1751
6	121567	23407.868348615697	1752
6	121620	23417.635089678459	1753
6	121661	23426.326750107644	1754
6	121820	23456.124688119425	1755
6	121843	23460.107372645008	1756
6	121855	23461.159106650069	1757
6	121872	23463.885646649568	1758
6	121958	23481.120172810247	1759
6	122119	23510.343369740346	1760
6	122143	23514.608929717078	1761
6	122212	23527.259287855026	1762
6	122302	23547.667005843077	1763
6	122419	23570.101770735873	1764
6	122465	23577.889150361073	1765
6	122511	23585.824243841648	1766
6	122566	23595.271946178317	1767
6	122743	23633.727822403077	1768
6	122807	23643.951697004424	1769
6	122814	23644.941123183875	1770
6	122983	23674.469432030147	1771
6	123413	23761.104458954621	1772
6	123418	23761.592218367677	1773
6	123454	23766.063100512544	1774
6	123462	23767.372616330429	1775
6	123503	23774.519240665232	1776
6	123612	23796.610421077238	1777
6	123737	23822.022258670501	1778
6	123756	23824.639586843484	1779
6	123823	23837.377152887949	1780
6	123854	23842.737879666958	1781
6	123916	23852.215993603695	1782
6	123994	23868.463528852576	1783
6	124028	23875.097350124834	1784
6	124058	23880.885091196236	1785
6	124156	23900.935948802226	1786
6	124166	23902.098443567022	1787
6	124207	23909.10612030841	1788
6	124235	23913.232787614172	1789
6	124441	23957.174131948709	1790
6	124456	23959.715903906091	1791
6	124475	23962.710488790842	1792
6	124489	23965.370980660069	1793
6	124501	23966.729806214247	1794
6	124523	23970.924930288508	1795
6	124584	23982.0874872654	1796
6	124740	24015.812480716105	1797
6	124831	24032.68068108072	1798
6	124836	24032.981968148006	1799
6	125038	24069.6299819673	1800
6	125133	24087.709799283906	1801
6	125140	24088.071074881335	1802
6	125182	24094.131539955896	1803
6	125189	24095.114885210646	1804
6	125220	24100.760786966621	1805
6	125222	24101.000432332645	1806
6	125227	24101.250107078478	1807
6	125268	24108.469587459177	1808
6	125507	24158.331960319991	1809
6	125597	24174.827716039628	1810
6	125614	24177.767738239996	1811
6	125652	24185.225798975807	1812
6	125699	24194.895440433826	1813
6	125738	24201.434675236541	1814
6	125750	24203.318851964303	1815
6	125767	24206.890201501066	1816
6	125797	24212.771312098896	1817
6	125815	24214.776323610791	1818
6	125824	24216.552046450596	1819
6	125856	24222.448279589903	1820
6	125858	24222.487519969145	1821
6	125879	24225.608312752435	1822
6	125956	24242.583369337132	1823
6	125972	24244.64527624059	1824
6	126046	24258.230668915793	1825
6	126226	24294.001965743045	1826
6	126271	24300.80798749003	1827
6	126278	24301.73705453136	1828
6	126310	24308.318109240819	1829
6	126356	24316.383809320844	1830
6	126471	24338.98820839002	1831
6	126483	24340.268728405255	1832
6	126592	24361.712970230655	1833
6	126614	24365.791448012371	1834
6	126718	24384.931811713294	1835
6	126777	24396.259019939332	1836
6	126887	24418.957612542832	1837
6	126905	24420.943219160687	1838
6	126933	24426.287634902917	1839
6	127124	24463.548654026393	1840
6	127192	24477.304070848016	1841
6	127207	24480.866474959648	1842
6	127232	24486.129978962293	1843
6	127302	24498.064170426346	1844
6	127458	24530.57721923456	1845
6	127599	24559.405957747521	1846
6	127680	24574.125709000876	1847
6	127682	24574.322283723511	1848
6	127695	24577.340271449838	1849
6	127697	24578.385612218901	1850
6	127756	24588.85877233208	1851
6	127831	24603.757674522163	1852
6	127862	24608.897675567642	1853
6	128138	24661.561166753438	1854
6	128155	24664.109013625963	1855
6	128229	24677.705576245948	1856
6	128338	24699.449514586314	1857
6	128362	24704.336919005118	1858
6	128470	24724.623123943847	1859
6	128524	24734.44824121415	1860
6	128591	24747.81355347916	1861
6	128608	24752.962406844548	1862
6	128767	24782.225002085008	1863
6	128794	24786.754897957698	1864
6	128870	24804.892969217329	1865
6	128885	24807.416157762548	1866
6	128958	24821.030920412253	1867
6	129013	24830.262868461212	1868
6	129025	24832.351608562235	1869
6	129033	24834.160720221891	1870
6	129082	24842.077293112058	1871
6	129097	24844.32996246806	1872
6	129156	24855.9139027772	1873
6	129330	24890.354273193832	1874
6	129344	24892.044441301664	1875
6	129398	24902.301053433481	1876
6	129426	24908.000504772856	1877
6	129490	24920.250516819728	1878
6	129606	24946.558629860361	1879
6	129650	24953.831878043756	1880
6	129731	24970.555821012563	1881
6	129851	24994.174699088075	1882
6	129913	25006.171381119591	1883
6	129915	25006.17998358103	1884
6	129973	25018.510103284545	1885
6	130088	25042.544961437036	1886
6	130190	25061.510914339968	1887
6	130374	25096.26239691655	1888
6	130471	25113.359498764722	1889
6	130492	25116.798944533529	1890
6	130514	25120.882116705396	1891
6	130589	25138.248742665609	1892
6	130594	25138.923728594907	1893
6	130598	25139.398368008474	1894
6	130710	25160.7004066831	1895
6	130717	25162.036778883199	1896
6	130808	25180.854711003105	1897
6	130815	25181.862911246981	1898
6	130868	25192.514435361922	1899
6	130954	25208.750005220288	1900
6	131066	25228.072145967909	1901
6	131199	25249.833890342263	1902
6	131238	25256.539337007048	1903
6	131288	25267.781100887962	1904
6	131306	25269.903685592713	1905
6	131349	25278.125007579991	1906
6	131409	25289.796196799841	1907
6	131461	25300.371331971581	1908
6	131481	25305.001123906174	1909
6	131496	25307.464602024891	1910
6	131553	25316.727347419011	1911
6	131638	25333.197280211466	1912
6	131740	25352.873086928109	1913
6	131760	25356.633216785259	1914
6	131831	25371.367560241156	1915
6	131849	25373.395657642154	1916
6	131870	25378.202118491695	1917
6	131904	25384.302691027995	1918
6	131973	25397.427461879702	1919
6	131986	25399.948066968995	1920
6	132063	25415.107664126787	1921
6	132073	25416.809046089369	1922
6	132171	25434.30093547502	1923
6	132280	25456.306897622753	1924
6	132333	25467.536835178013	1925
6	132432	25483.637644574136	1926
6	132474	25489.941004208003	1927
6	132755	25542.379180674267	1928
6	132824	25555.132124392588	1929
6	132880	25565.792954260586	1930
6	133023	25591.07694932319	1931
6	133062	25598.28775981526	1932
6	133082	25602.244749113092	1933
6	133089	25603.691612254506	1934
6	133310	25649.188688192265	1935
6	133379	25662.303045815696	1936
6	133467	25680.446090688036	1937
6	133491	25684.432567935266	1938
6	133513	25688.965837766249	1939
6	133642	25713.807128884689	1940
6	133830	25750.100439708054	1941
6	133913	25764.715730303622	1942
6	134150	25810.447114590022	1943
6	134166	25812.521574589159	1944
6	134462	25871.011938614493	1945
6	134483	25875.251610822776	1946
6	134490	25876.33425512444	1947
6	134509	25879.607176256882	1948
6	134534	25885.006336939787	1949
6	134539	25886.513477847065	1950
6	134568	25890.614322747014	1951
6	134668	25908.040126775186	1952
6	134694	25912.600760132036	1953
6	134726	25917.717952008306	1954
6	134823	25938.46640954821	1955
6	134838	25940.819289579111	1956
6	134875	25948.248172681107	1957
6	134983	25968.535960178101	1958
6	135056	25980.889717629168	1959
6	135058	25981.197422398708	1960
6	135184	26004.4184880828	1961
6	135251	26017.431404325225	1962
6	135271	26021.969220322693	1963
6	135276	26023.318262352876	1964
6	135376	26042.048182501455	1965
6	135422	26049.015360777557	1966
6	135434	26050.978116274163	1967
6	135490	26061.836907274777	1968
6	135505	26064.721881608988	1969
6	135527	26069.269076517587	1970
6	135574	26078.990636501671	1971
6	135579	26079.306308782651	1972
6	135588	26080.907985661903	1973
6	135747	26108.812573545694	1974
6	135878	26133.841558980766	1975
6	135916	26141.702888310999	1976
6	135918	26141.940977285537	1977
6	135978	26152.366060099161	1978
6	135988	26153.770416136551	1979
6	136307	26215.964478364716	1980
6	136364	26226.21734375202	1981
6	136381	26229.956629966115	1982
6	136420	26237.184332308635	1983
6	136525	26258.070911701405	1984
6	136532	26259.675163867845	1985
6	136608	26273.233015408076	1986
6	136734	26297.366181160784	1987
6	136819	26313.523443077905	1988
6	136866	26322.303380891074	1989
6	136896	26328.300832059962	1990
6	137168	26382.897978603616	1991
6	137179	26386.666287243025	1992
6	137297	26407.598425397683	1993
6	137536	26453.127261731124	1994
6	137605	26467.850118387078	1995
6	137710	26487.252271682758	1996
6	137734	26490.604764687066	1997
6	137738	26490.677193547988	1998
6	137838	26511.058030009505	1999
6	137921	26528.624482703642	2000
6	137939	26531.861204872135	2001
6	137954	26535.416052183298	2002
6	138016	26547.140038442961	2003
6	138239	26587.954244188309	2004
6	138344	26609.67117057697	2005
6	138346	26609.763776849108	2006
6	138468	26633.265168058097	2007
6	138566	26653.734392375868	2008
6	138594	26657.551334737122	2009
6	138622	26662.938173433323	2010
6	138678	26673.756944666251	2011
6	138710	26680.24167929753	2012
6	138750	26688.394242659604	2013
6	138861	26707.081396662047	2014
6	138972	26727.750478928808	2015
6	138988	26732.150430412088	2016
6	139085	26751.540748249595	2017
6	139153	26763.550898726685	2018
6	139226	26776.007602307164	2019
6	139257	26782.306212510023	2020
6	139271	26784.460816960468	2021
6	139276	26785.402323488038	2022
6	139410	26814.159822701876	2023
6	139449	26821.447707792756	2024
6	139660	26863.143104629066	2025
6	139774	26887.282463502919	2026
6	139848	26901.707261328579	2027
6	139882	26908.968881951716	2028
6	140068	26941.370715210027	2029
6	140080	26943.820394773242	2030
6	140174	26961.370854002962	2031
6	140338	26993.243953599151	2032
6	140366	26999.217243834617	2033
6	140376	27001.337482403884	2034
6	140381	27001.646379794835	2035
6	140453	27016.279050046607	2036
6	140510	27025.536521688367	2037
6	140665	27057.479631027293	2038
6	140698	27062.68194580979	2039
6	140707	27063.307041799831	2040
6	140718	27065.01816453558	2041
6	140729	27067.568781172992	2042
6	140746	27070.309387466236	2043
6	140761	27073.014625419614	2044
6	140819	27083.977807364341	2045
6	140885	27098.561307501919	2046
6	140944	27109.5237446386	2047
6	141098	27141.039884005647	2048
6	141183	27156.325612420649	2049
6	141251	27168.025774764593	2050
6	141384	27193.662016505019	2051
6	141658	27246.616585288929	2052
6	141747	27264.756898986847	2053
6	141897	27295.795839909777	2054
6	142062	27328.954318913188	2055
6	142115	27340.229408734733	2056
6	142294	27371.636946523817	2057
6	142464	27404.503107863542	2058
6	142598	27430.455231495543	2059
6	142861	27483.299300271946	2060
6	142902	27492.618368289281	2061
6	142933	27497.132389351976	2062
6	142935	27497.143208843264	2063
6	142982	27506.339977182115	2064
6	143081	27529.716003594237	2065
6	143094	27533.052586471179	2066
6	143180	27548.823755913244	2067
6	143338	27579.842640031063	2068
6	143389	27588.715900368316	2069
6	143493	27606.295130699075	2070
6	143536	27613.624490927091	2071
6	143561	27618.291818123285	2072
6	143573	27619.684573570751	2073
6	143648	27632.488567356089	2074
6	143681	27641.417030260319	2075
6	143725	27650.041849765626	2076
6	143887	27683.205597032102	2077
6	143942	27694.53647271863	2078
6	144093	27726.86071394539	2079
6	144294	27768.73509777105	2080
6	144307	27771.914697716302	2081
6	144384	27791.299720432599	2082
6	144414	27797.695879606342	2083
6	144489	27810.493364295393	2084
6	144597	27831.588376168565	2085
6	144747	27864.197629181824	2086
6	144857	27883.990316700402	2087
6	144984	27904.581479071534	2088
6	144989	27905.540338183537	2089
6	145005	27908.624305154868	2090
6	145015	27910.119402540561	2091
6	145131	27929.621000149286	2092
6	145190	27940.536018002416	2093
6	145230	27947.172959457301	2094
6	145241	27948.408462962439	2095
6	145260	27951.339906826748	2096
6	145273	27953.818285429002	2097
6	145308	27960.707806090733	2098
6	145334	27968.063525952249	2099
6	145388	27977.537274390354	2100
6	145427	27985.097908785249	2101
6	145429	27985.168442511343	2102
6	145433	27985.374204660177	2103
6	145581	28012.360842171831	2104
6	145675	28032.42981703413	2105
6	145827	28063.144628228131	2106
6	145832	28063.39273574328	2107
6	145846	28065.815875854124	2108
6	145931	28081.085234430124	2109
6	145980	28091.9672760301	2110
6	146121	28115.333832321938	2111
6	146208	28132.567109303562	2112
6	146316	28155.497498337849	2113
6	146403	28172.537942810568	2114
6	146422	28175.342369622028	2115
6	146426	28175.561376141908	2116
6	146616	28212.495071914972	2117
6	146732	28235.889977020761	2118
6	146819	28253.305819703266	2119
6	146936	28274.08127730721	2120
6	147123	28309.833209213894	2121
6	147160	28317.468879703717	2122
6	147265	28338.977506812847	2123
6	147299	28347.276929819003	2124
6	147304	28347.709753481015	2125
6	147342	28354.037463829976	2126
6	147405	28367.59880199147	2127
6	147628	28409.762417723482	2128
6	147690	28421.733316142175	2129
6	147732	28427.464037781636	2130
6	147760	28432.584703811316	2131
6	147931	28465.697304835496	2132
6	147988	28477.006550271535	2133
6	148015	28481.845730605793	2134
6	148109	28499.481349362129	2135
6	148267	28531.226360637933	2136
6	148308	28537.6553113522	2137
6	148446	28566.034973396921	2138
6	148516	28580.44406525555	2139
6	148547	28585.142311103534	2140
6	148582	28591.666047233159	2141
6	148621	28601.107872043084	2142
6	148868	28649.893508630132	2143
6	148881	28650.924937042085	2144
6	148895	28653.146306741422	2145
6	148929	28659.402969011653	2146
6	149038	28680.711324321721	2147
6	149054	28684.342551622132	2148
6	149092	28690.506500299748	2149
6	149207	28713.885994577505	2150
6	149248	28723.383019581517	2151
6	149300	28730.317889852253	2152
6	149366	28742.815972541514	2153
6	149454	28758.399005500661	2154
6	149501	28768.115288148183	2155
6	149653	28797.397022428377	2156
6	149699	28806.430221608762	2157
6	149710	28807.925392449158	2158
6	149715	28808.428411127216	2159
6	149722	28809.476350231311	2160
6	149794	28822.670171413702	2161
6	149845	28832.030596454419	2162
6	150031	28868.713407567242	2163
6	150103	28884.053767864189	2164
6	150231	28907.632516832247	2165
6	150338	28927.56094974978	2166
6	150403	28939.08473803887	2167
6	150429	28944.771347860524	2168
6	150451	28947.007488141654	2169
6	150489	28955.008389617777	2170
6	150764	29013.718322537807	2171
6	150770	29014.026381585733	2172
6	150929	29046.511211563174	2173
6	150934	29046.70580016156	2174
6	150944	29049.215148122328	2175
6	151010	29063.502213826897	2176
6	151034	29069.267441748792	2177
6	151050	29071.11188570307	2178
6	151081	29075.597255820881	2179
6	151217	29102.910248663622	2180
6	151330	29127.114529072799	2181
6	151436	29150.805851674427	2182
6	151467	29157.499981716766	2183
6	151510	29166.723988592031	2184
6	151526	29169.134413034599	2185
6	151662	29193.378785556578	2186
6	151745	29209.262139122981	2187
6	151900	29239.025953285148	2188
6	151979	29254.264489372392	2189
6	152014	29261.360944755274	2190
6	152043	29266.582382118708	2191
6	152221	29296.205462671676	2192
6	152259	29303.36351638667	2193
6	152261	29304.153802997729	2194
6	152314	29314.185019417579	2195
6	152352	29322.902206370939	2196
6	152364	29325.102831960601	2197
6	152433	29336.447340840399	2198
6	152459	29342.480239440494	2199
6	152488	29349.125282376742	2200
6	152617	29378.38490459742	2201
6	152655	29384.715870563248	2202
6	152707	29396.832935489134	2203
6	152709	29396.990870892349	2204
6	152771	29409.069796281367	2205
6	152785	29411.37200545907	2206
6	152821	29419.540426405384	2207
6	152826	29420.285963891755	2208
6	152851	29424.950665238472	2209
6	152859	29426.98301023808	2210
6	152949	29443.263921814203	2211
6	152966	29445.686809029023	2212
6	152999	29451.158103334402	2213
6	153053	29460.4121043462	2214
6	153071	29462.260527952038	2215
6	153092	29466.076724167066	2216
6	153182	29484.264990179254	2217
6	153221	29490.945104349064	2218
6	153251	29496.469937004688	2219
6	153270	29501.49976184756	2220
6	153313	29508.201520104787	2221
6	153548	29549.794374854007	2222
6	153558	29551.539668861785	2223
6	153685	29576.610606231322	2224
6	153728	29583.904490378169	2225
6	153783	29595.909325480478	2226
6	153831	29605.454422653955	2227
6	153851	29610.014358568756	2228
6	153935	29626.420482832272	2229
6	154028	29646.114873699714	2230
6	154104	29662.405655338555	2231
6	154202	29679.519925609181	2232
6	154271	29694.223134782224	2233
6	154522	29742.285183332866	2234
6	154675	29773.226147789373	2235
6	154832	29801.49896492854	2236
6	154956	29824.918547503296	2237
6	154980	29828.833500124681	2238
6	154997	29832.326088492028	2239
6	155070	29846.847022679307	2240
6	155165	29864.156704902031	2241
6	155414	29913.187931639775	2242
6	155491	29929.077501419286	2243
6	155687	29966.236938532067	2244
6	155751	29978.429859992195	2245
6	155825	29994.456193295738	2246
6	155829	29995.136180559907	2247

