version 2
run Second_exit_5-13-20191114-11:42:38-8929
attr configname Second_exit_5
attr datetime 20191114-11:42:38
attr experiment Second_exit_5
attr inifile omnetpp.ini
attr iterationvars ""
attr iterationvarsf ""
attr measurement ""
attr network ResponseTimeNetwork
attr processid 8929
attr repetition 13
attr replication #13
attr resultdir results
attr runnumber 13
attr seedset 13
param **.Source.interArrivalTime exponential(5s)
param **.jobPriority bernoulli(0.6)
param **.PS.serviceTimeU1 "uniform(0.8s, 1.2s)"
param **.PS.serviceTimeU2 "uniform(1.8s, 2.2s)"
param **.SS1.serviceTime exponential(1s)
param **.SS2.serviceTime exponential(1.2s)
param **.PS.exitProbability bernoulli(0.5)

vector 0 ResponseTimeNetwork.QueueU1 queueLength:vector ETV
attr interpolationmode sample-hold
attr title "queue length, vector"
vector 1 ResponseTimeNetwork.sink lifeTimeU2:vector ETV
attr interpolationmode none
attr title "lifetime of arrived jobs U2, vector"
attr unit s
vector 2 ResponseTimeNetwork.sink totalServiceTimeU2:vector ETV
attr interpolationmode none
attr title "the total time spent  by arrived jobs U2, vector"
attr unit s
vector 3 ResponseTimeNetwork.sink lifeTime:vector ETV
attr interpolationmode none
attr title "lifetime of arrived jobs, vector"
attr unit s
vector 4 ResponseTimeNetwork.sink totalServiceTime:vector ETV
attr interpolationmode none
attr title "the total time spent  by arrived jobs, vector"
attr unit s
vector 5 ResponseTimeNetwork.sink lifeTimeU1:vector ETV
attr interpolationmode none
attr title "lifetime of arrived jobs U1, vector"
attr unit s
vector 6 ResponseTimeNetwork.sink totalServiceTimeU1:vector ETV
attr interpolationmode none
attr title "the total time spent  by arrived jobs U1, vector"
attr unit s
vector 7 ResponseTimeNetwork.QueueU2 queueLength:vector ETV
attr interpolationmode sample-hold
attr title "queue length, vector"
vector 8 ResponseTimeNetwork.SS2 queueLength:vector ETV
attr interpolationmode sample-hold
attr title "queue length, vector"
vector 9 ResponseTimeNetwork.SS1 queueLength:vector ETV
attr interpolationmode sample-hold
attr title "queue length, vector"
0	19510	10001.798702171543	1
0	19511	10001.868777193757	0
0	19530	10008.028405801675	1
0	19531	10008.35604754142	0
0	19545	10016.705742933262	1
0	19546	10017.776676394773	0
0	19555	10020.066807615858	1
0	19556	10020.8715947837	0
0	19577	10027.812426424807	1
0	19578	10028.07764147495	0
0	19582	10028.589366584123	1
0	19583	10029.065230044658	0
0	19587	10029.62452673293	1
0	19588	10030.230002006731	0
0	19592	10030.883478346779	1
0	19593	10031.388860463287	0
0	19610	10035.107595729561	1
0	19611	10036.06493071544	0
0	19655	10050.751568609092	1
0	19656	10051.473096725524	0
0	19660	10051.525417745467	1
0	19661	10052.321743240573	0
0	19665	10052.743531105839	1
0	19668	10053.406795393762	0
0	19672	10053.47726809924	1
0	19673	10054.316119735961	0
0	19677	10054.51573783842	1
0	19679	10054.533645643917	2
0	19680	10055.448489864444	1
0	19684	10055.578961675029	2
0	19685	10056.344779624411	1
0	19689	10057.136909051389	2
0	19690	10057.171477720042	1
0	19694	10057.724774859073	2
0	19695	10058.223276274738	1
0	19699	10058.487202654353	2
0	19700	10059.143711412785	1
0	19704	10060.020560027435	2
0	19705	10060.150101972086	1
0	19709	10060.649417453863	2
0	19710	10061.21314160162	1
0	19713	10062.181101639656	0
0	19720	10063.632614748215	1
0	19721	10064.21742015825	0
0	19790	10091.712900025082	1
0	19791	10092.257170243241	0
0	19820	10108.641976665069	1
0	19821	10109.113106194014	0
0	19935	10170.027965061116	1
0	19936	10170.935418761756	0
0	19950	10175.870152167305	1
0	19951	10176.226321028123	0
0	20040	10246.632178626074	1
0	20041	10246.935576382092	0
0	20065	10253.059180238725	1
0	20066	10253.690853141011	0
0	20100	10273.271824278862	1
0	20101	10274.221566461596	0
0	20135	10306.800249732258	1
0	20136	10307.766817494752	0
0	20150	10310.907345254445	1
0	20151	10311.692794883061	0
0	20155	10312.10546232279	1
0	20156	10312.743087341912	0
0	20170	10316.088151930508	1
0	20171	10316.423189548834	0
0	20175	10316.798051550437	1
0	20176	10317.532691090426	0
0	20260	10399.106763882879	1
0	20262	10400.05542933408	2
0	20263	10400.169821720855	1
0	20266	10401.210707241209	0
0	20275	10403.899442792713	1
0	20276	10404.319638599229	0
0	20290	10407.358084563586	1
0	20291	10407.91970086917	0
0	20310	10415.933126849506	1
0	20311	10416.806323113965	0
0	20390	10461.016862952483	1
0	20391	10461.235440427805	0
0	20435	10480.934795998602	1
0	20436	10481.795416589398	0
0	20460	10506.246971143805	1
0	20461	10506.496995026469	0
0	20465	10507.374564845975	1
0	20466	10507.429020185712	0
0	20470	10507.714590418158	1
0	20472	10508.223752515434	2
0	20473	10508.333412110004	1
0	20477	10508.350282400442	2
0	20478	10509.173326647411	1
0	20482	10509.460591395938	2
0	20483	10510.342668162229	1
0	20487	10510.860102621274	2
0	20488	10511.228397316242	1
0	20491	10512.106071381959	0
0	20495	10512.832962054668	1
0	20496	10513.121369309387	0
0	20510	10517.457869846328	1
0	20511	10517.671931783896	0
0	20517	10518.416942523845	1
0	20518	10518.729298916966	0
0	20530	10520.813512432639	1
0	20531	10521.722881447636	0
0	20557	10530.335717692779	1
0	20558	10530.771615309216	0
0	20569	10532.581838682886	1
0	20570	10532.847828245949	0
0	20592	10536.952416646826	1
0	20593	10537.975989537447	0
0	20610	10542.868505823221	1
0	20613	10543.499493763749	0
0	20620	10544.78189391143	1
0	20625	10545.505062981568	0
0	20632	10546.622509828713	1
0	20635	10547.373534425315	0
0	20642	10548.529787205075	1
0	20643	10549.338506572474	0
0	20685	10577.492488579704	1
0	20686	10578.194421656223	0
0	20690	10578.978496675022	1
0	20691	10579.2899015812	0
0	20715	10588.136882346531	1
0	20716	10588.667620371135	0
0	20860	10683.800387143294	1
0	20861	10684.65271445956	0
0	20885	10697.351866990167	1
0	20886	10697.553034199149	0
0	20890	10697.763733055391	1
0	20891	10698.382517312401	0
0	20927	10712.775097089718	1
0	20928	10713.190661023667	0
0	20975	10729.676385120493	1
0	20976	10730.387124706841	0
0	21012	10743.282879169044	1
0	21013	10743.743362337463	0
0	21050	10761.539095465672	1
0	21051	10762.19603493709	0
0	21090	10794.022364911103	1
0	21091	10795.062004532326	0
0	21107	10797.762898304717	1
0	21108	10798.73760006126	0
0	21135	10803.93785273435	1
0	21136	10804.825664395128	0
0	21175	10835.456954145593	1
0	21176	10835.729031952757	0
0	21180	10835.740881925884	1
0	21181	10836.849490134798	0
0	21195	10842.937934657096	1
0	21196	10843.643785326533	0
0	21205	10845.4858410571	1
0	21206	10846.018086672242	0
0	21210	10846.98798839159	1
0	21211	10847.134539972193	0
0	21240	10880.106481855854	1
0	21241	10880.387278897274	0
0	21245	10880.532887972788	1
0	21248	10881.329660360846	0
0	21255	10882.899237107754	1
0	21256	10883.032811838439	0
0	21280	10904.725200271685	1
0	21281	10904.748674633923	0
0	21285	10905.858257613127	1
0	21286	10905.873490039735	0
0	21305	10929.781336356892	1
0	21306	10930.141041862392	0
0	21310	10930.429348695684	1
0	21311	10931.183011469976	0
0	21315	10931.729192692593	1
0	21316	10932.333258179375	0
0	21325	10933.374981409834	1
0	21328	10934.312735112629	0
0	21332	10934.814016476685	1
0	21333	10935.306956073514	0
0	21340	10936.989273642865	1
0	21341	10937.263798655628	0
0	21345	10937.657167187006	1
0	21346	10938.178422035987	0
0	21400	11017.251520758098	1
0	21403	11017.562755591517	0
0	21425	11028.185689909588	1
0	21426	11028.730360079237	0
0	21430	11029.026501593549	1
0	21431	11029.780886039284	0
0	21455	11042.027981983012	1
0	21456	11042.035191357467	0
0	21472	11044.983577824685	1
0	21473	11045.613707058393	0
0	21480	11046.693048132598	1
0	21482	11047.133527026069	2
0	21483	11047.675005532131	1
0	21488	11048.68940004481	0
0	21505	11054.654074809862	1
0	21506	11055.390313245106	0
0	21532	11068.73147688105	1
0	21533	11069.314137654802	0
0	21585	11125.629471677389	1
0	21586	11126.496343959124	0
0	21605	11130.641567784458	1
0	21606	11131.785474256249	0
0	21610	11131.880752857126	1
0	21611	11132.873582993457	0
0	21675	11192.493601625648	1
0	21676	11192.846682231808	0
0	21685	11193.955610140978	1
0	21687	11194.574899051934	2
0	21688	11194.983117317622	1
0	21693	11195.999364927997	0
0	21697	11196.078911998396	1
0	21698	11196.81436030467	0
0	21705	11198.232216693488	1
0	21707	11198.722874800622	2
0	21708	11198.725581181356	1
0	21711	11199.545865118996	0
0	21755	11222.971519834714	1
0	21756	11223.052789825018	0
0	21765	11224.866673948884	1
0	21766	11225.761973423692	0
0	21770	11226.224764852979	1
0	21771	11226.907558347652	0
0	21775	11227.377737369265	1
0	21777	11227.836763339481	2
0	21778	11227.937180612324	1
0	21782	11227.978359684648	2
0	21783	11228.826649167849	1
0	21786	11229.879803088954	0
0	21805	11241.689721471881	1
0	21808	11242.093097390819	0
0	21814	11242.747448621651	1
0	21815	11243.176411491565	0
0	21819	11243.327545118936	1
0	21824	11244.042056183543	0
0	21836	11246.239031125413	1
0	21838	11246.320245228542	2
0	21839	11246.613439964808	1
0	21844	11247.776069738462	0
0	21864	11252.155508521022	1
0	21867	11253.102363392829	0
0	21882	11256.473150832235	1
0	21883	11257.163634199861	0
0	21940	11278.81100168946	1
0	21941	11279.65297179503	0
0	22015	11323.147146173352	1
0	22017	11323.170894961919	2
0	22018	11323.731354809696	1
0	22021	11324.751245095911	0
0	22025	11324.767612483926	1
0	22027	11324.958771048652	2
0	22028	11325.635089287958	1
0	22032	11325.764471860509	2
0	22033	11326.830175829357	1
0	22036	11327.941053688949	0
0	22050	11332.771886015663	1
0	22052	11333.067066256059	2
0	22053	11333.117034456915	1
0	22056	11334.155092219858	0
0	22090	11351.393173667377	1
0	22091	11352.279584075187	0
0	22110	11365.435360012864	1
0	22111	11365.960637930573	0
0	22130	11373.671721233641	1
0	22131	11374.458864375162	0
0	22175	11399.532789932298	1
0	22176	11400.644990697051	0
0	22185	11401.898003045604	1
0	22186	11402.845518385819	0
0	22295	11473.893663580859	1
0	22296	11473.920449284895	0
0	22300	11474.000567945469	1
0	22301	11474.993715278211	0
0	22305	11475.185202174588	1
0	22306	11476.013718797511	0
0	22315	11477.108848452203	1
0	22316	11477.689632390498	0
0	22335	11484.405086474063	1
0	22336	11484.547862346645	0
0	22375	11523.212038346372	1
0	22376	11523.406537952893	0
0	22440	11570.067590003206	1
0	22441	11570.240921519508	0
0	22485	11581.725410226753	1
0	22486	11582.119082654524	0
0	22530	11594.622947443806	1
0	22531	11595.569927503707	0
0	22535	11595.801754791477	1
0	22536	11596.44994545223	0
0	22562	11602.189638939197	1
0	22563	11602.94507013916	0
0	22570	11603.994425532972	1
0	22571	11604.744385763378	0
0	22577	11605.590216566892	1
0	22580	11605.826869122245	0
0	22587	11607.53026398168	1
0	22588	11607.927509261974	0
0	22597	11608.931432374496	1
0	22598	11609.928778417621	0
0	22605	11610.855757698835	1
0	22607	11610.949072730361	2
0	22608	11611.927968926288	1
0	22613	11612.790214910757	0
0	22680	11636.6867918111	1
0	22681	11636.769078090348	0
0	22685	11636.803683939346	1
0	22688	11637.961822808095	0
0	22692	11638.059500090122	1
0	22693	11638.787879285522	0
0	22707	11642.079466881466	1
0	22708	11642.766733833433	0
0	22720	11645.258243196254	1
0	22721	11645.847511141406	0
0	22735	11650.426166864771	1
0	22736	11651.050511727962	0
0	22740	11651.594240778894	1
0	22741	11652.049850248839	0
0	22745	11652.24699567681	1
0	22746	11652.885168723124	0
0	22750	11653.429847058987	1
0	22751	11654.003199281185	0
0	22780	11685.541373512462	1
0	22781	11685.92146781397	0
0	22830	11707.553480653725	1
0	22831	11708.345356145166	0
0	22842	11710.245994762447	1
0	22843	11710.642930285856	0
0	22855	11713.812892018312	1
0	22856	11714.134786012469	0
0	22912	11738.026795106013	1
0	22913	11738.595558173307	0
0	22920	11739.98340106289	1
0	22921	11740.72742096093	0
0	22925	11741.579375001821	1
0	22926	11741.7044550743	0
0	22930	11742.378501231643	1
0	22931	11742.664281702884	0
0	22977	11762.22762925395	1
0	22978	11763.272916197411	0
0	22982	11763.870213724107	1
0	22984	11763.880326843666	2
0	22985	11764.147323670338	1
0	22989	11764.411255790475	2
0	22990	11765.212988272409	1
0	22993	11766.292988750066	0
0	22997	11766.373232398141	1
0	22998	11767.194179976459	0
0	23005	11768.36576151597	1
0	23006	11769.160742918037	0
0	23020	11773.361801311376	1
0	23021	11773.499520832631	0
0	23085	11808.363927936886	1
0	23086	11809.27378263749	0
0	23110	11824.463112006376	1
0	23111	11824.483318203987	0
0	23115	11824.851255383548	1
0	23117	11824.875708193423	2
0	23118	11825.289668158555	1
0	23122	11826.261352735078	2
0	23123	11826.471777790898	1
0	23127	11827.157560606401	2
0	23128	11827.469442307597	1
0	23131	11828.473393366786	0
0	23175	11863.912421603115	1
0	23176	11864.53950517219	0
0	23215	11902.686226301903	1
0	23216	11903.275981253112	0
0	23235	11908.777809812835	1
0	23238	11909.537089074523	0
0	23242	11909.589129813772	1
0	23243	11910.587450178553	0
0	23250	11911.951834841099	1
0	23254	11912.602158671988	2
0	23255	11912.6885923181	1
0	23258	11913.668619125829	0
0	23265	11915.082575962842	1
0	23266	11915.705543384821	0
0	23315	11930.290326170235	1
0	23316	11931.236447468461	0
0	23345	11948.336686621279	1
0	23346	11949.300882708883	0
0	23350	11949.32846093614	1
0	23353	11950.23652324597	0
0	23365	11953.65390452265	1
0	23366	11954.483937973393	0
0	23385	11961.388389813106	1
0	23386	11962.289231151516	0
0	23410	11976.82932847697	1
0	23411	11977.442033683956	0
0	23415	11978.607696092541	1
0	23416	11978.627686312311	0
0	23440	11989.432763719883	1
0	23441	11990.121745129639	0
0	23445	11990.980842617598	1
0	23446	11991.190131254738	0
0	23450	11991.268297037176	1
0	23451	11992.003003204299	0
0	23455	11992.14110375103	1
0	23456	11992.893871496862	0
0	23460	11993.456252882973	1
0	23461	11993.829700224811	0
0	23465	11993.987904192123	1
0	23466	11994.892391545197	0
0	23470	11994.965607573684	1
0	23471	11995.747885325236	0
0	23475	11996.382194502199	1
0	23476	11996.612806116847	0
0	23480	11996.86342117107	1
0	23482	11997.566661994924	2
0	23483	11997.735736469796	1
0	23487	11998.561787156198	2
0	23488	11998.593066980189	1
0	23492	11999.411985169722	2
0	23493	11999.557368650439	1
0	23496	12000.487550185772	0
0	23505	12003.002858720345	1
0	23506	12003.457857653657	0
0	23620	12092.028896818685	1
0	23621	12092.925152679125	0
0	23625	12093.403513534248	1
0	23626	12093.919784249889	0
0	23660	12124.798812394019	1
0	23661	12125.473742126491	0
0	23690	12137.912702091262	1
0	23691	12138.367021427925	0
0	23705	12142.23971450775	1
0	23706	12142.694495281235	0
0	23735	12173.240752128359	1
0	23736	12173.356008662222	0
0	23745	12175.067239448782	1
0	23746	12176.214400416822	0
0	23750	12176.585444325827	1
0	23753	12177.08768228211	0
0	23765	12179.785275687833	1
0	23766	12179.989614774494	0
0	23780	12183.828034489489	1
0	23783	12184.318199955119	0
0	23787	12184.614702676672	1
0	23788	12185.46251059855	0
0	23792	12186.286049684933	1
0	23793	12186.555702664988	0
0	23797	12187.588833951991	1
0	23799	12187.620359787328	2
0	23800	12187.675325881788	1
0	23803	12188.854017660958	0
0	23814	12190.280117670138	1
0	23815	12190.500169765396	0
0	23819	12191.368815846611	1
0	23821	12191.422197039262	2
0	23822	12191.59610663029	1
0	23826	12191.855020762597	2
0	23827	12192.733533126494	1
0	23830	12193.671643096214	0
0	23842	12195.973168302034	1
0	23844	12196.250394848152	2
0	23845	12196.297577655693	1
0	23848	12197.143612376047	0
0	23865	12200.11376554396	1
0	23866	12201.188080620066	0
0	23875	12202.478043528688	1
0	23876	12203.050590511364	0
0	23895	12221.4455221816	1
0	23896	12222.412220357768	0
0	23907	12224.374376310025	1
0	23908	12224.43780262148	0
0	23912	12225.040552318185	1
0	23913	12225.456837949566	0
0	23919	12226.264515211667	1
0	23921	12226.325960519735	2
0	23922	12226.408771874606	1
0	23925	12227.375447421371	0
0	23929	12227.955689428259	1
0	23931	12228.090893257703	2
0	23932	12228.537676706015	1
0	23936	12229.166922572947	2
0	23937	12229.500292965154	1
0	23940	12230.456685477624	0
0	23975	12239.372335827657	1
0	23976	12239.968711273089	0
0	24072	12286.719071455843	1
0	24073	12287.328517376833	0
0	24092	12292.675025605703	1
0	24093	12292.855476889435	0
0	24102	12293.900674552538	1
0	24104	12293.949425238128	2
0	24105	12294.712497396536	1
0	24108	12295.840888506967	0
0	24115	12297.162333717622	1
0	24117	12297.467445081547	2
0	24118	12297.908228041279	1
0	24121	12298.851026413078	0
0	24125	12299.333696139716	1
0	24126	12299.911521458393	0
0	24135	12302.286550365899	1
0	24137	12302.603330479722	2
0	24138	12303.187363921119	1
0	24141	12304.125847515384	0
0	24175	12336.885942913502	1
0	24178	12337.459445540739	0
0	24185	12339.146718785343	1
0	24186	12339.325569968057	0
0	24195	12347.401007327007	1
0	24196	12348.094749087934	0
0	24210	12353.035803975718	1
0	24211	12353.654855733265	0
0	24220	12356.717593033068	1
0	24221	12357.552583905702	0
0	24225	12357.882094647165	1
0	24226	12358.475531223157	0
0	24240	12372.970781590388	1
0	24241	12373.790821073857	0
0	24275	12382.856004957493	1
0	24276	12382.966290885756	0
0	24300	12398.542962710727	1
0	24301	12398.95543112163	0
0	24315	12401.810209677845	1
0	24317	12402.416633291214	2
0	24320	12402.669903406688	1
0	24325	12403.731447560062	0
0	24329	12403.823569656979	1
0	24330	12404.551790933871	0
0	24337	12406.264997266543	1
0	24338	12406.472166417447	0
0	24400	12432.172622569385	1
0	24401	12432.206087164228	0
0	24445	12475.376517794761	1
0	24446	12475.433736568469	0
0	24470	12482.884528093744	1
0	24471	12483.44250345459	0
0	24475	12484.53139240654	1
0	24476	12484.589101972298	0
0	24580	12540.480952348853	1
0	24583	12541.238984126993	0
0	24587	12541.759253725164	1
0	24588	12542.438549783476	0
0	24600	12544.370458610195	1
0	24602	12544.421203891785	2
0	24603	12545.306310974363	1
0	24606	12546.228525211498	0
0	24660	12580.48668526256	1
0	24661	12580.775870448404	0
0	24680	12590.787065936939	1
0	24681	12591.217011366527	0
0	24725	12624.461926460131	1
0	24726	12625.43223059244	0
0	24775	12668.955291141297	1
0	24776	12669.04731967687	0
0	24830	12694.157623547288	1
0	24831	12694.529924466394	0
0	24850	12697.895793030862	1
0	24851	12698.845376290493	0
0	24910	12718.136831890374	1
0	24911	12719.24245328936	0
0	24930	12727.751452142263	1
0	24931	12728.637634457626	0
0	24935	12729.445212919534	1
0	24936	12729.568392774534	0
0	24982	12758.715579047334	1
0	24983	12758.974424848137	0
0	24990	12760.132091444643	1
0	24991	12760.969734588908	0
0	25010	12767.392554217071	1
0	25013	12768.099286569084	0
0	25020	12769.994154764158	1
0	25021	12770.320693986944	0
0	25042	12774.399458899638	1
0	25043	12775.065144087725	0
0	25050	12776.66126614021	1
0	25051	12777.111842760236	0
0	25065	12804.42446287458	1
0	25067	12805.06442614975	2
0	25068	12805.092191028872	1
0	25072	12806.07941321064	2
0	25073	12806.188308435397	1
0	25076	12807.172275743538	0
0	25080	12807.880011082738	1
0	25081	12808.145048222502	0
0	25085	12808.766660910644	1
0	25086	12808.946537139171	0
0	25110	12815.919172090026	1
0	25111	12816.829297606739	0
0	25115	12817.481035945385	1
0	25118	12817.744085222295	0
0	25122	12817.830205259349	1
0	25124	12818.440079115151	2
0	25125	12818.678925711846	1
0	25128	12819.866819209604	0
0	25145	12829.787568968864	1
0	25146	12830.282036869234	0
0	25150	12830.726966440196	1
0	25152	12830.971380621778	2
0	25153	12831.35620739265	1
0	25157	12831.570201432858	2
0	25158	12832.189529322373	1
0	25161	12833.184158743272	0
0	25170	12834.90497890198	1
0	25171	12835.396281291423	0
0	25175	12836.207208729241	1
0	25177	12836.229390368584	2
0	25178	12836.48332282274	1
0	25181	12837.287932500774	0
0	25185	12837.403259276189	1
0	25186	12838.391000070581	0
0	25190	12838.481625240382	1
0	25192	12839.055246654109	2
0	25193	12839.28375384218	1
0	25197	12840.151216681122	2
0	25198	12840.31860168443	1
0	25202	12840.765760463306	2
0	25203	12841.260514196539	1
0	25206	12842.094146492211	0
0	25210	12842.304908129946	1
0	25211	12842.951966751711	0
0	25215	12843.024437682486	1
0	25216	12843.794833646966	0
0	25255	12873.167234663277	1
0	25256	12873.448019996396	0
0	25262	12874.527076525649	1
0	25263	12874.528470927681	0
0	25267	12874.958418783074	1
0	25268	12875.522618400789	0
0	25272	12875.603202286078	1
0	25273	12876.676171491034	0
0	25285	12879.697606629208	1
0	25286	12880.291765486519	0
0	25290	12880.798487817352	1
0	25291	12881.366865926027	0
0	25305	12887.843326639294	1
0	25306	12888.138483135474	0
0	25310	12888.319036676369	1
0	25311	12888.980485636906	0
0	25325	12891.493238018599	1
0	25326	12892.122125652639	0
0	25385	12915.051725719761	1
0	25386	12915.416409368573	0
0	25390	12915.803469265203	1
0	25391	12916.433773579395	0
0	25395	12916.537349199164	1
0	25396	12917.632762238609	0
0	25435	12944.476458818288	1
0	25436	12944.699557335636	0
0	25485	12966.485031612921	1
0	25487	12966.664642010179	2
0	25488	12967.182365102636	1
0	25491	12968.197176405358	0
0	25495	12968.491205663217	1
0	25496	12969.180791655219	0
0	25505	12972.113897969646	1
0	25506	12972.268650797331	0
0	25615	13065.13422687732	1
0	25616	13066.099981554869	0
0	25660	13105.592426605459	1
0	25661	13106.466469149713	0
0	25680	13111.426947673425	1
0	25681	13112.397609844213	0
0	25685	13112.728728919571	1
0	25686	13113.204521151414	0
0	25710	13121.195047658726	1
0	25711	13122.169826699746	0
0	25720	13123.516862567597	1
0	25721	13124.490886105478	0
0	25725	13125.215892301506	1
0	25727	13125.430687874357	2
0	25728	13125.457699300975	1
0	25732	13125.733345729133	2
0	25734	13126.112591965428	3
0	25736	13126.384263839485	4
0	25737	13126.574637269669	3
0	25741	13127.23272215753	4
0	25742	13127.463333705508	3
0	25745	13128.64516024587	2
0	25748	13129.6562268391	1
0	25751	13130.766726865594	0
0	25755	13130.815651896757	1
0	25757	13131.556901219087	2
0	25758	13131.777329660647	1
0	25761	13132.881601021413	0
0	25775	13137.029444201371	1
0	25776	13137.599684473483	0
0	25782	13137.851865291118	1
0	25783	13138.459190016689	0
0	25787	13138.479237632356	1
0	25788	13139.44342113564	0
0	25850	13170.584621204637	1
0	25851	13171.2471289287	0
0	25860	13172.402854575306	1
0	25861	13173.198105780842	0
0	25870	13175.081266514424	1
0	25871	13175.630402877398	0
0	25900	13183.170602146239	1
0	25901	13183.988074306782	0
0	25990	13233.166092769094	1
0	25992	13233.227643977886	2
0	25993	13233.465029375413	1
0	25996	13234.596941433167	0
0	26070	13288.663767923756	1
0	26071	13288.990468893165	0
0	26095	13298.319056019203	1
0	26098	13299.037279013433	0
0	26125	13304.487839875295	1
0	26126	13305.485505302084	0
0	26170	13326.136614239886	1
0	26171	13326.672859693485	0
0	26205	13353.888755519496	1
0	26206	13354.284852302935	0
0	26232	13360.71666362199	1
0	26233	13360.725906025847	0
0	26237	13361.687388302187	1
0	26238	13361.908367985157	0
0	26242	13361.965927583531	1
0	26243	13363.065209167214	0
0	26250	13363.942919160667	1
0	26252	13364.217996628433	2
0	26253	13365.002326617898	1
0	26258	13365.919946793602	0
0	26280	13373.39861219614	1
0	26281	13373.701007688477	0
0	26295	13377.371525622428	1
0	26296	13378.393510259318	0
0	26312	13381.140875559932	1
0	26313	13381.701271742617	0
0	26320	13382.781839920436	1
0	26321	13383.672078862169	0
0	26345	13398.326209000167	1
0	26346	13398.366843207209	0
0	26375	13404.932942003649	1
0	26378	13405.985370986619	0
0	26395	13409.334197064861	1
0	26398	13409.91431726328	0
0	26417	13415.456599797489	1
0	26418	13415.933018590701	0
0	26430	13418.358100941669	1
0	26431	13418.909216173929	0
0	26442	13420.845828257642	1
0	26444	13420.933290025998	2
0	26445	13421.276631285292	1
0	26448	13422.128004210577	0
0	26452	13422.218547876809	1
0	26453	13423.087841096376	0
0	26460	13424.26674458724	1
0	26462	13424.429551641953	2
0	26463	13425.072329718662	1
0	26468	13426.030419865852	0
0	26485	13431.680907766231	1
0	26487	13431.913047845821	2
0	26488	13431.961573040518	1
0	26491	13433.15866201337	0
0	26500	13434.312400384213	1
0	26501	13435.012352450202	0
0	26507	13435.749234819175	1
0	26508	13436.031306856788	0
0	26512	13436.29033221423	1
0	26513	13437.069295668706	0
0	26517	13437.140625453538	1
0	26518	13438.076533662818	0
0	26570	13460.449158104661	1
0	26571	13461.549507081378	0
0	26600	13473.35352925239	1
0	26601	13473.509028234261	0
0	26610	13475.105205971792	1
0	26613	13476.088988232301	0
0	26617	13476.760446470119	1
0	26618	13477.067878433844	0
0	26630	13480.024748078245	1
0	26632	13480.766175606433	2
0	26633	13480.808036825255	1
0	26638	13481.840248864525	0
0	26650	13484.08155584419	1
0	26655	13484.928404153613	0
0	26670	13490.670868342287	1
0	26671	13490.893745372403	0
0	26685	13494.632179377081	1
0	26686	13495.287929153252	0
0	26775	13546.809371891974	1
0	26776	13546.872940702858	0
0	26780	13546.961086766631	1
0	26783	13547.790150041255	0
0	26795	13549.751887112103	1
0	26799	13550.557703434768	2
0	26801	13550.617450669099	3
0	26802	13550.76308570535	2
0	26808	13551.418155910947	3
0	26809	13551.926803096599	2
0	26812	13553.023913922842	1
0	26816	13553.102882689479	2
0	26818	13553.660949977622	3
0	26819	13553.899411076895	2
0	26822	13554.70078195681	1
0	26826	13555.265916806994	2
0	26827	13555.644881542801	1
0	26830	13556.801447218034	0
0	26834	13557.550805102271	1
0	26835	13557.915308706864	0
0	26842	13559.061157458078	1
0	26844	13559.25133697139	2
0	26847	13560.007146829582	1
0	26850	13561.015713263984	0
0	26862	13563.404792677484	1
0	26864	13564.232580354896	2
0	26867	13564.425131500356	1
0	26873	13565.125479092214	2
0	26874	13565.527411636461	1
0	26878	13566.29055563356	2
0	26879	13566.499531114039	1
0	26882	13567.649011047681	0
0	26886	13568.247373999635	1
0	26887	13568.57983038531	0
0	26891	13569.254330280152	1
0	26892	13569.467056727906	0
0	26896	13569.539878446384	1
0	26897	13570.321359679413	0
0	26922	13576.057668144705	1
0	26923	13576.817452219874	0
0	26927	13577.521123674862	1
0	26928	13577.852120720316	0
0	26932	13578.900864711601	1
0	26933	13579.00453492906	0
0	26940	13580.746999622266	1
0	26941	13581.020653114003	0
0	26947	13581.422277196392	1
0	26948	13581.970620075148	0
0	26955	13583.144374176937	1
0	26956	13583.976398165431	0
0	26965	13585.424934881961	1
0	26966	13586.138600748777	0
0	26970	13586.19406919698	1
0	26972	13586.860499792547	2
0	26973	13587.14840784464	1
0	26976	13587.995649251155	0
0	26982	13588.758782637224	1
0	26983	13588.882556598447	0
0	26990	13590.022698131128	1
0	26992	13590.390676094092	2
0	26993	13590.717894232087	1
0	26998	13591.808504513931	0
0	27002	13592.847945407614	1
0	27003	13592.883408473246	0
0	27065	13628.991410491224	1
0	27066	13629.656158945318	0
0	27070	13629.720037109358	1
0	27071	13630.652424478046	0
0	27075	13630.777608140078	1
0	27076	13631.534140503946	0
0	27082	13632.201123644088	1
0	27083	13632.549099684301	0
0	27087	13633.463875800439	1
0	27088	13633.500887528042	0
0	27092	13634.289404423717	1
0	27093	13634.534230822864	0
0	27097	13635.026653195647	1
0	27098	13635.45489883365	0
0	27105	13636.405457923912	1
0	27106	13637.487877802625	0
0	27115	13641.605757788831	1
0	27117	13641.888967498969	2
0	27118	13642.232660363994	1
0	27121	13643.082403818525	0
0	27125	13643.195288002167	1
0	27126	13643.891396276287	0
0	27165	13673.401368819579	1
0	27166	13673.649653553111	0
0	27230	13725.821392311569	1
0	27231	13726.131954204144	0
0	27255	13743.841260778257	1
0	27256	13744.327602166014	0
0	27260	13744.527099720216	1
0	27261	13745.510068619421	0
0	27265	13745.583611826965	1
0	27266	13746.431372929627	0
0	27270	13747.022447846239	1
0	27271	13747.315624361282	0
0	27320	13786.010490493389	1
0	27323	13786.543500861279	0
0	27365	13806.825256461956	1
0	27366	13807.100578944586	0
0	27482	13920.753991834287	1
0	27483	13921.237407539706	0
0	27487	13921.4567990098	1
0	27488	13922.279246033463	0
0	27492	13922.547756955925	1
0	27494	13922.8022196371	2
0	27495	13923.439143613926	1
0	27498	13924.249412603876	0
0	27505	13925.86640829607	1
0	27506	13926.513358249622	0
0	27515	13927.879674978819	1
0	27516	13928.266164280953	0
0	27585	13976.577080233905	1
0	27586	13976.61579749321	0
0	27600	13981.179842269854	1
0	27601	13982.086509776956	0
0	27620	13986.591455673321	1
0	27621	13986.772218567724	0
0	27640	13994.395929118824	1
0	27641	13995.008005545245	0
0	27670	14005.180268833587	1
0	27671	14005.827455482328	0
0	27690	14019.944032814478	1
0	27691	14020.827408032482	0
0	27695	14020.875881121728	1
0	27697	14021.364152336396	2
0	27698	14021.63951308717	1
0	27703	14022.770679866141	0
0	27707	14023.440079976988	1
0	27708	14023.667857222716	0
0	27730	14030.692401623136	1
0	27731	14031.614437647961	0
0	27752	14035.550930675788	1
0	27753	14036.301255671804	0
0	27757	14036.462014192154	1
0	27759	14036.923511777225	2
0	27760	14037.454901543942	1
0	27763	14038.51861786389	0
0	27767	14038.863716877656	1
0	27768	14039.509017848067	0
0	27772	14039.787335088582	1
0	27773	14040.662368496351	0
0	27810	14053.693485018315	1
0	27811	14054.228937092984	0
0	27815	14054.365582620427	1
0	27817	14054.953947997665	2
0	27818	14055.161075434929	1
0	27821	14056.199532308804	0
0	27830	14059.457856619545	1
0	27831	14059.769573622518	0
0	27835	14060.564928615671	1
0	27836	14060.818584763859	0
0	27845	14062.29120384707	1
0	27846	14063.095492756541	0
0	27855	14065.148184726198	1
0	27856	14065.17352482843	0
0	27895	14087.518673328792	1
0	27898	14088.152325175321	0
0	27905	14089.184378108303	1
0	27906	14090.079801738625	0
0	27925	14096.362265042642	1
0	27926	14096.378162657265	0
0	27930	14096.402664659028	1
0	27932	14096.454495960457	2
0	27933	14097.317483718954	1
0	27936	14098.396098254882	0
0	27940	14099.160676571927	1
0	27941	14099.320572563242	0
0	28005	14170.83022429046	1
0	28006	14171.551315069389	0
0	28125	14271.394500300194	1
0	28126	14271.713303590719	0
0	28132	14272.10515519602	1
0	28133	14272.540625681881	0
0	28137	14272.747829418137	1
0	28140	14273.613389245201	0
0	28147	14274.946115339704	1
0	28148	14275.657008102689	0
0	28220	14295.981874702643	1
0	28222	14296.254669561379	2
0	28223	14296.369849924337	1
0	28226	14297.441441078823	0
0	28235	14299.451757608366	1
0	28237	14300.058313524688	2
0	28238	14300.107035151605	1
0	28243	14301.161340632864	0
0	28247	14301.793777284844	1
0	28248	14302.05108364971	0
0	28265	14306.326819030232	1
0	28266	14306.852944476193	0
0	28340	14349.269723642547	1
0	28341	14349.505710000019	0
0	28350	14351.478906711963	1
0	28352	14351.547638679726	2
0	28353	14351.560980848815	1
0	28356	14352.509803629234	0
0	28365	14356.924219735082	1
0	28366	14357.586311264562	0
0	28370	14358.123558633641	1
0	28371	14358.422735632437	0
0	28375	14358.549774060782	1
0	28376	14359.545869668147	0
0	28380	14360.131369023942	1
0	28381	14360.377752676925	0
0	28385	14360.94310662477	1
0	28387	14361.052417104975	2
0	28388	14361.351080955604	1
0	28391	14362.447737286745	0
0	28430	14379.12127713102	1
0	28431	14379.522970309574	0
0	28485	14398.128313990627	1
0	28486	14398.809274282463	0
0	28570	14458.319203035774	1
0	28571	14458.391144908873	0
0	28720	14553.516163712061	1
0	28721	14553.908189472133	0
0	28760	14585.755369064645	1
0	28761	14586.000066133038	0
0	28805	14643.847509066597	1
0	28806	14643.867528908718	0
0	28825	14650.05120994492	1
0	28826	14650.863147629724	0
0	28885	14672.213289511212	1
0	28886	14672.357656531835	0
0	28930	14692.36175281346	1
0	28931	14692.688575898805	0
0	28965	14707.63414194826	1
0	28966	14707.843633458182	0
0	28980	14717.557837042242	1
0	28981	14717.666501263345	0
0	29030	14741.541740141273	1
0	29031	14742.204828033545	0
0	29075	14753.819147647348	1
0	29076	14754.547484152765	0
0	29085	14757.684259481408	1
0	29086	14758.530927711561	0
0	29092	14758.912847627242	1
0	29093	14759.620157975912	0
0	29097	14759.928307217134	1
0	29100	14760.65220551195	0
0	29107	14762.68866656486	1
0	29108	14762.868046858557	0
0	29112	14762.928226339387	1
0	29115	14763.728330700122	0
0	29119	14763.976570335764	1
0	29121	14764.174677553737	2
0	29122	14764.911837035254	1
0	29125	14766.081273520947	0
0	29135	14767.790984810191	1
0	29137	14768.535152492005	2
0	29138	14768.635371689615	1
0	29141	14769.489391568513	0
0	29147	14770.315988403122	1
0	29148	14770.509845241276	0
0	29155	14772.180100214648	1
0	29156	14772.606366007426	0
0	29200	14801.183211158287	1
0	29201	14802.093064611968	0
0	29205	14802.862779982065	1
0	29206	14803.123765953914	0
0	29210	14803.992557721107	1
0	29211	14804.2720811219	0
0	29215	14805.113597983354	1
0	29216	14805.454693668899	0
0	29225	14806.677201881978	1
0	29226	14807.660330267814	0
0	29245	14813.729116948732	1
0	29246	14814.103709185246	0
0	29250	14814.606977221859	1
0	29251	14815.018646647531	0
0	29330	14861.918709303045	1
0	29331	14862.499716163035	0
0	29410	14931.775939490532	1
0	29411	14932.754834836507	0
0	29450	14955.180413334856	1
0	29451	14955.83444901929	0
0	29620	15071.004042834438	1
0	29621	15071.764276223774	0
0	29670	15102.839655462765	1
0	29672	15102.888034170492	2
0	29673	15103.491365691112	1
0	29676	15104.564198804298	0
0	29692	15108.46062842257	1
0	29693	15109.012035725937	0
0	29700	15110.535000861529	1
0	29701	15110.929346609786	0
0	29735	15131.829226472494	1
0	29736	15132.007525359303	0
0	29750	15137.324164427148	1
0	29751	15137.841546430222	0
0	29755	15138.156873647049	1
0	29757	15138.516531338281	2
0	29758	15138.949890005651	1
0	29762	15138.984711426031	2
0	29764	15139.862016203881	3
0	29765	15140.04466425643	2
0	29769	15140.321277722055	3
0	29770	15141.213737316585	2
0	29773	15142.111266177676	1
0	29776	15143.225277441058	0
0	29820	15187.151727242581	1
0	29822	15187.698807809778	2
0	29823	15188.299768055957	1
0	29826	15189.255517019127	0
0	29830	15189.409450244526	1
0	29831	15190.133166933507	0
0	29835	15190.235846037914	1
0	29837	15190.259085112288	2
0	29838	15191.002025251072	1
0	29841	15191.847249793988	0
0	29875	15209.965124665002	1
0	29876	15210.636090840241	0
0	29895	15220.626817950655	1
0	29896	15220.881348062252	0
0	29990	15254.41585374838	1
0	29991	15255.209988103427	0
0	29995	15255.662634239834	1
0	29997	15255.765270457239	2
0	29998	15256.044177403573	1
0	30001	15257.103766004361	0
0	30005	15257.460194259953	1
0	30006	15258.173892696846	0
0	30015	15259.537500837634	1
0	30017	15260.546478526928	2
0	30018	15260.564605507092	1
0	30022	15260.704331043834	2
0	30023	15261.588938244922	1
0	30027	15261.632717569296	2
0	30028	15262.462846608484	1
0	30032	15262.692724319058	2
0	30033	15263.550890182914	1
0	30037	15263.729088728053	2
0	30038	15264.467709597876	1
0	30042	15265.289759479873	2
0	30043	15265.310694120289	1
0	30047	15265.507040061847	2
0	30048	15266.28375926998	1
0	30051	15267.46485921538	0
0	30055	15268.434176220917	1
0	30056	15268.455408585002	0
0	30060	15268.976995766913	1
0	30061	15269.280492127058	0
0	30065	15269.559229626242	1
0	30066	15270.142248647124	0
0	30070	15270.519259175801	1
0	30071	15271.234907372319	0
0	30075	15271.680064057927	1
0	30076	15272.405163878505	0
0	30095	15279.61331354204	1
0	30096	15279.771769015837	0
0	30115	15297.883238333077	1
0	30116	15298.131280511579	0
0	30240	15388.315317227859	1
0	30241	15388.770764273097	0
0	30275	15411.780192309556	1
0	30276	15412.032188217677	0
0	30290	15414.153427867197	1
0	30291	15415.241458815145	0
0	30297	15416.257612791571	1
0	30298	15416.371078354488	0
0	30305	15417.565259437925	1
0	30307	15417.681702464381	2
0	30308	15418.562338302652	1
0	30311	15419.752809231165	0
0	30325	15429.764810515629	1
0	30326	15430.315871982312	0
0	30342	15439.922001192779	1
0	30345	15440.160558220628	0
0	30359	15443.27413749924	1
0	30362	15443.371217230032	0
0	30379	15446.596876161662	1
0	30380	15447.407584212975	0
0	30384	15447.587710335205	1
0	30385	15448.586353300021	0
0	30400	15451.912257374831	1
0	30401	15452.840500100465	0
0	30415	15461.610701356861	1
0	30416	15461.968999488668	0
0	30420	15462.001067984068	1
0	30421	15462.821438485307	0
0	30450	15474.2612362097	1
0	30451	15474.685929431288	0
0	30530	15511.969216174196	1
0	30531	15512.519793082853	0
0	30540	15514.57889704814	1
0	30541	15515.473814552837	0
0	30550	15516.658434701238	1
0	30551	15517.34489939632	0
0	30555	15517.437413642897	1
0	30558	15518.487012444158	0
0	30562	15518.554227911539	1
0	30563	15519.683385208343	0
0	30570	15520.561583386522	1
0	30572	15520.735621436999	2
0	30573	15521.493011753169	1
0	30577	15522.534562431536	2
0	30578	15522.65466895504	1
0	30581	15523.836894329731	0
0	30585	15524.092301697764	1
0	30586	15524.693264626712	0
0	30592	15524.987603169534	1
0	30593	15525.507869428955	0
0	30600	15526.600519154561	1
0	30602	15526.9647458302	2
0	30603	15527.648183552455	1
0	30606	15528.510115951113	0
0	30615	15530.502134244753	1
0	30616	15530.668086053058	0
0	30660	15554.277905116315	1
0	30661	15554.306333231895	0
0	30670	15559.280993530834	1
0	30671	15559.528841104579	0
0	30680	15561.225727868242	1
0	30681	15562.110638705504	0
0	30690	15568.642566079641	1
0	30691	15569.296999191812	0
0	30720	15583.638543777339	1
0	30722	15584.492114797792	2
0	30723	15584.654588786147	1
0	30726	15585.588214128937	0
0	30730	15586.165449927549	1
0	30731	15586.630649087119	0
0	30765	15597.913084905745	1
0	30766	15598.166633623187	0
0	30780	15602.503712224448	1
0	30781	15602.948045126363	0
0	30790	15604.112971487497	1
0	30792	15605.073512448548	2
0	30793	15605.143475657157	1
0	30797	15606.048225131657	2
0	30798	15606.052161688558	1
0	30802	15606.185054279828	2
0	30803	15607.232888481035	1
0	30807	15607.851172520193	2
0	30808	15608.30058515986	1
0	30811	15609.177336100038	0
0	30815	15609.86593619886	1
0	30816	15610.075462987661	0
0	30850	15628.714887772064	1
0	30851	15629.498192238804	0
0	30855	15629.498278416398	1
0	30856	15630.630151018776	0
0	30875	15652.268387555319	1
0	30877	15652.739209093338	2
0	30878	15653.248840618676	1
0	30883	15654.16857944865	0
0	30895	15656.059782333091	1
0	30896	15656.885235303438	0
0	30905	15658.160967967141	1
0	30906	15658.946960929858	0
0	30915	15661.867051254105	1
0	30916	15662.438395174155	0
0	30945	15671.103837628662	1
0	30948	15672.009581812991	0
0	30960	15676.488675284052	1
0	30961	15676.673753705701	0
0	30965	15677.28361885018	1
0	30966	15677.517223866178	0
0	30970	15677.694402023958	1
0	30971	15678.413582203524	0
0	30975	15678.741734164541	1
0	30976	15679.45607836925	0
0	30980	15679.883993895753	1
0	30981	15680.379889619244	0
0	30985	15680.476218227736	1
0	30986	15681.514682142703	0
0	30995	15682.814954280856	1
0	30997	15682.928093163482	2
0	30998	15683.355838771524	1
0	31001	15684.181842556583	0
0	31140	15768.040270583047	1
0	31141	15768.613934816309	0
0	31175	15780.612008225789	1
0	31180	15781.466045790611	0
0	31187	15783.009239193283	1
0	31188	15783.624821823908	0
0	31270	15847.108431779655	1
0	31271	15847.797825504767	0
0	31295	15852.261431884026	1
0	31298	15853.135546004044	0
0	31305	15854.431499272288	1
0	31306	15855.28010013813	0
0	31320	15866.815564133813	1
0	31321	15867.541418943578	0
0	31340	15876.396645614809	1
0	31341	15876.455659720709	0
0	31425	15941.627192205193	1
0	31426	15942.69500880735	0
0	31482	15969.887019968946	1
0	31483	15970.577527458535	0
0	31492	15971.845735756869	1
0	31493	15972.707498740626	0
0	31502	15973.821085597803	1
0	31503	15974.872465789725	0
0	31575	16054.479493436583	1
0	31576	16054.741690047713	0
0	31650	16096.88159671897	1
0	31651	16097.485158751926	0
0	31690	16110.531928039235	1
0	31691	16111.461737655471	0
0	31737	16128.267248175446	1
0	31738	16128.647394251805	0
0	31745	16129.694290278769	1
0	31748	16130.414506472443	0
0	31755	16131.948581764825	1
0	31756	16132.411536887923	0
0	31805	16179.567962507654	1
0	31806	16179.975144152622	0
0	31860	16213.145743594054	1
0	31861	16213.805577551817	0
0	31925	16230.467564412528	1
0	31927	16230.711197032416	2
0	31928	16231.388306172242	1
0	31931	16232.38964584987	0
0	31935	16232.66776472608	1
0	31936	16233.275415189148	0
0	31940	16233.423771509945	1
0	31941	16234.224766643395	0
0	31945	16234.578211446567	1
0	31946	16235.081277364542	0
0	31955	16237.40121880457	1
0	31956	16238.256501129483	0
0	31960	16239.081681293431	1
0	31961	16239.176316617736	0
0	31965	16239.515679681035	1
0	31966	16240.357142959656	0
0	31970	16240.579071810301	1
0	31971	16241.362077002534	0
0	31980	16243.536532396879	1
0	31981	16244.206728618302	0
0	31985	16244.509808678895	1
0	31986	16245.314408619877	0
0	31995	16251.659551071906	1
0	31996	16251.799233601635	0
0	32000	16252.201984421	1
0	32001	16252.922925238052	0
0	32045	16273.599559072101	1
0	32046	16273.981530014918	0
0	32055	16275.412116763299	1
0	32056	16275.963359064915	0
0	32160	16364.756136159538	1
0	32163	16365.686115545175	0
0	32167	16366.3597043128	1
0	32168	16366.622198167025	0
0	32174	16367.086102274258	1
0	32175	16367.62190893083	0
0	32182	16368.685996811599	1
0	32183	16369.541420301005	0
0	32187	16370.153758222724	1
0	32189	16370.427744206768	2
0	32190	16370.432572329838	1
0	32194	16370.5462665037	2
0	32195	16371.308794470553	1
0	32199	16372.055561651753	2
0	32200	16372.298397247077	1
0	32203	16373.293140611568	0
0	32207	16373.305630539835	1
0	32208	16374.131089416103	0
0	32215	16375.491609078814	1
0	32216	16376.153717157854	0
0	32222	16376.877963136464	1
0	32223	16377.19277696866	0
0	32245	16383.525799500858	1
0	32246	16384.39121125764	0
0	32255	16386.487440621682	1
0	32256	16387.238243001838	0
0	32260	16387.548130846538	1
0	32261	16388.247740277135	0
0	32275	16397.843086119401	1
0	32276	16398.691217119466	0
0	32280	16399.078330637416	1
0	32283	16399.617786791302	0
0	32290	16400.945099380203	1
0	32291	16401.5843488742	0
0	32310	16407.578974292027	1
0	32314	16407.975236652558	2
0	32315	16408.463085358624	1
0	32320	16409.358176792075	0
0	32330	16411.679224433407	1
0	32331	16412.362860623502	0
0	32340	16414.149327246723	1
0	32341	16414.569463847798	0
0	32350	16417.069680154713	1
0	32351	16418.138259601056	0
0	32430	16452.149243436683	1
0	32431	16452.745922110889	0
0	32450	16455.818191566465	1
0	32451	16456.870518661273	0
0	32470	16470.374424361826	1
0	32471	16471.02965464476	0
0	32520	16500.362137654226	1
0	32522	16500.576160126473	2
0	32523	16500.706288437176	1
0	32526	16501.634337944447	0
0	32530	16501.649882628663	1
0	32531	16502.633533300742	0
0	32535	16502.64077409426	1
0	32537	16502.840620090387	2
0	32538	16503.512807085461	1
0	32542	16503.544585775456	2
0	32543	16504.694374802432	1
0	32546	16505.722831589918	0
0	32555	16509.503547224214	1
0	32556	16509.819317067805	0
0	32560	16510.188590585681	1
0	32561	16511.018824293203	0
0	32635	16540.151074200487	1
0	32636	16540.835021483376	0
0	32645	16543.037402706341	1
0	32646	16543.080491292285	0
0	32650	16543.397032343879	1
0	32651	16543.963557045901	0
0	32655	16544.102516433318	1
0	32656	16545.010741410957	0
0	32660	16545.337011603285	1
0	32661	16545.826707317488	0
0	32665	16545.978065047032	1
0	32666	16546.68767296662	0
0	32715	16600.425448572063	1
0	32717	16600.77911921218	2
0	32718	16601.575890973879	1
0	32722	16601.959874029893	2
0	32723	16602.540908926183	1
0	32727	16602.621090205683	2
0	32729	16603.328214506959	3
0	32730	16603.48191232031	2
0	32733	16604.346007091848	1
0	32737	16604.455839580956	2
0	32739	16604.470441053251	3
0	32740	16605.328422319161	2
0	32744	16605.775188007792	3
0	32747	16606.198038272949	2
0	32750	16607.097781601379	1
0	32753	16607.918611939641	0
0	32787	16625.730946919273	1
0	32788	16626.348395311648	0
0	32797	16627.926907266607	1
0	32798	16628.391394255033	0
0	32804	16629.341198366833	1
0	32805	16629.431357823501	0
0	32809	16630.533738686292	1
0	32810	16630.549359382971	0
0	32814	16631.041240714228	1
0	32815	16631.454135661202	0
0	32822	16632.909472445423	1
0	32823	16633.234271377421	0
0	32855	16650.875301577097	1
0	32856	16651.660648721277	0
0	32870	16656.591999355352	1
0	32872	16656.679491348555	2
0	32873	16657.226057218536	1
0	32876	16658.308454148806	0
0	32880	16658.510016838754	1
0	32881	16659.457699350323	0
0	32885	16659.731350479238	1
0	32886	16660.472565088942	0
0	32935	16677.403049768029	1
0	32936	16677.734618299808	0
0	32970	16694.971801184583	1
0	32972	16695.208249151136	2
0	32973	16695.620583541699	1
0	32976	16696.779591241952	0
0	32995	16701.827479557343	1
0	32996	16702.535360880819	0
0	33007	16703.832483223767	1
0	33008	16704.492537746363	0
0	33030	16709.811690254025	1
0	33031	16710.124680560964	0
0	33040	16712.528071746314	1
0	33041	16713.144766803837	0
0	33045	16713.358373237927	1
0	33046	16714.162398425961	0
0	33050	16715.00260959792	1
0	33051	16715.14740928291	0
0	33080	16725.338964499995	1
0	33081	16725.662379203267	0
0	33150	16760.071823786633	1
0	33151	16760.814087136799	0
0	33160	16764.104950413942	1
0	33161	16764.119434085896	0
0	33165	16764.963141601858	1
0	33168	16765.305773756502	0
0	33172	16765.83330601514	1
0	33173	16766.189673198422	0
0	33180	16767.875712764253	1
0	33181	16768.378410390334	0
0	33185	16768.421431643378	1
0	33191	16769.079352270009	2
0	33192	16769.202494991233	1
0	33196	16769.51132055985	2
0	33197	16770.227093082236	1
0	33201	16771.202479531769	2
0	33202	16771.358318727685	1
0	33205	16772.410020217707	0
0	33209	16772.647060520463	1
0	33210	16773.323618332611	0
0	33214	16774.127558518787	1
0	33215	16774.296155150922	0
0	33219	16774.466890568691	1
0	33220	16775.397836257832	0
0	33227	16776.731314568506	1
0	33228	16777.500538437849	0
0	33240	16780.225666004233	1
0	33242	16780.30906494549	2
0	33243	16781.206214117164	1
0	33248	16782.067080138808	0
0	33280	16790.893924594297	1
0	33281	16792.07831376759	0
0	33330	16824.662755569247	1
0	33331	16825.625273414667	0
0	33335	16825.787078545087	1
0	33338	16826.656831007882	0
0	33355	16832.594600570481	1
0	33357	16832.608617383817	2
0	33358	16833.761726951406	1
0	33361	16834.878096042846	0
0	33430	16868.333682331947	1
0	33431	16868.336111090146	0
0	33457	16873.079837598095	1
0	33458	16873.933794575283	0
0	33465	16875.143866190125	1
0	33466	16875.614979178092	0
0	33475	16876.972975937638	1
0	33477	16877.59204121819	2
0	33478	16877.651193219057	1
0	33481	16878.744760660833	0
0	33490	16881.001125096957	1
0	33491	16881.412268074568	0
0	33555	16923.426378785362	1
0	33559	16923.842483455051	2
0	33560	16924.233437315304	1
0	33563	16925.205954760522	0
0	33567	16925.413471559239	1
0	33569	16925.97951653098	2
0	33570	16926.185412448202	1
0	33574	16926.846332119897	2
0	33575	16927.069323700596	1
0	33579	16927.484984554465	2
0	33580	16928.132482627802	1
0	33584	16928.464658679665	2
0	33585	16929.32663184388	1
0	33588	16930.189040505536	0
0	33595	16931.51299454766	1
0	33596	16932.521612800774	0
0	33635	16945.507507230222	1
0	33636	16946.00587536221	0
0	33700	16988.277474186803	1
0	33701	16988.850284668664	0
0	33790	17077.745490429232	1
0	33791	17077.948456114228	0
0	33795	17078.46211885434	1
0	33796	17078.975353157218	0
0	33865	17130.78932477706	1
0	33866	17131.13316776637	0
0	33875	17135.087398861947	1
0	33876	17135.505852388586	0
0	33890	17140.968097235071	1
0	33891	17141.510610288252	0
0	33980	17222.024770133331	1
0	33981	17222.59460098283	0
0	33990	17226.069043978222	1
0	33991	17226.993774260038	0
0	34045	17264.835573437678	1
0	34046	17265.873439079579	0
0	34100	17293.469243296586	1
0	34102	17293.848156549374	2
0	34103	17294.563738231396	1
0	34106	17295.724466219766	0
0	34115	17316.584783716235	1
0	34116	17316.929514245632	0
0	34135	17320.817020231179	1
0	34136	17321.206953500387	0
0	34165	17330.572783901982	1
0	34168	17331.393822678342	0
0	34252	17370.979135748508	1
0	34253	17371.090890391891	0
0	34320	17430.622209624103	1
0	34322	17430.741455611481	2
0	34323	17430.808318486606	1
0	34327	17431.423729550351	2
0	34328	17431.788997768221	1
0	34332	17431.936108274271	2
0	34333	17432.686968894472	1
0	34336	17433.510368204565	0
0	34340	17434.178446457827	1
0	34341	17434.452106856351	0
0	34345	17435.016298106913	1
0	34346	17435.254945396428	0
0	34402	17461.71669429444	1
0	34403	17462.49904721049	0
0	34407	17463.484371304859	1
0	34408	17463.534348051672	0
0	34415	17464.622608924162	1
0	34416	17465.606394848743	0
0	34432	17467.829902914578	1
0	34433	17468.888795413871	0
0	34470	17478.712629928535	1
0	34471	17478.749285374009	0
0	34505	17504.662003693906	1
0	34508	17505.373738631076	0
0	34525	17509.850106909514	1
0	34526	17510.006081074262	0
0	34550	17533.654861566922	1
0	34551	17534.290821152457	0
0	34575	17553.528108173189	1
0	34576	17554.081894351014	0
0	34605	17560.918426675747	1
0	34606	17561.657169385066	0
0	34620	17565.673287753794	1
0	34621	17566.401173318884	0
0	34640	17569.895515660303	1
0	34641	17570.846085866956	0
0	34650	17572.441113727562	1
0	34651	17572.492437177101	0
0	34680	17587.18957406627	1
0	34681	17587.293199851081	0
0	34710	17609.758222078551	1
0	34712	17609.794426605823	2
0	34713	17610.326034914127	1
0	34717	17610.685743877823	2
0	34718	17611.362470972056	1
0	34723	17612.42358090345	0
0	34735	17623.958961425197	1
0	34736	17624.094834505556	0
0	34755	17633.656874533676	1
0	34757	17633.717938705439	2
0	34758	17634.591553693148	1
0	34761	17635.782058759476	0
0	34770	17639.080821361381	1
0	34771	17639.597501116381	0
0	34780	17645.701808623278	1
0	34781	17646.486908215162	0
0	34809	17657.178666359933	1
0	34810	17657.252990752222	0
0	34872	17693.527335951713	1
0	34873	17693.619834922599	0
0	34877	17693.703021414976	1
0	34880	17694.769217925025	0
0	34887	17695.729746086718	1
0	34888	17696.52669953701	0
0	34955	17754.00957901897	1
0	34956	17754.78977588235	0
0	34970	17764.502344778598	1
0	34971	17765.437737415006	0
0	34985	17768.921786542335	1
0	34986	17769.559384068299	0
0	35080	17826.633520333845	1
0	35081	17827.510154687887	0
0	35100	17838.891638027281	1
0	35101	17839.703656307663	0
0	35105	17840.546399680686	1
0	35106	17840.717014738321	0
0	35112	17841.406599952481	1
0	35113	17841.840053606461	0
0	35117	17842.053982913248	1
0	35119	17842.201942741114	2
0	35120	17842.698368427771	1
0	35124	17842.911125876786	2
0	35125	17843.7292261466	1
0	35128	17844.530080660022	0
0	35132	17845.111770453936	1
0	35133	17845.617356870937	0
0	35150	17848.69844518373	1
0	35151	17849.636116076227	0
0	35170	17853.230383363269	1
0	35172	17853.31156938805	2
0	35174	17853.553838438736	3
0	35175	17853.920586116663	2
0	35178	17855.085345688048	1
0	35182	17855.973673826601	2
0	35183	17856.021732514217	1
0	35186	17856.856909856252	0
0	35190	17857.130132241661	1
0	35191	17857.74805350402	0
0	35210	17864.275562935556	1
0	35212	17864.470981612558	2
0	35213	17864.600974824188	1
0	35216	17865.577114460619	0
0	35230	17874.23603324779	1
0	35231	17874.334379160144	0
0	35265	17893.560664666442	1
0	35267	17893.679846873564	2
0	35268	17894.283802511179	1
0	35273	17895.421167358392	0
0	35277	17895.731375910004	1
0	35279	17896.177115192893	2
0	35280	17896.51011501952	1
0	35284	17896.610063335687	2
0	35285	17897.425578822856	1
0	35288	17898.548336802432	0
0	35292	17898.890843350025	1
0	35293	17899.358350046454	0
0	35297	17899.648514212292	1
0	35298	17900.332008830747	0
0	35355	17924.483074716584	1
0	35356	17925.13223147153	0
0	35365	17926.596817910239	1
0	35366	17927.484003051865	0
0	35420	17953.27800712566	1
0	35421	17953.920954900735	0
0	35470	17989.757340746842	1
0	35471	17989.990634285339	0
0	35480	17991.69627823593	1
0	35481	17992.579172631657	0
0	35490	17994.338212396612	1
0	35491	17995.156969531679	0
0	35495	17995.666609042435	1
0	35496	17996.097456448672	0
0	35610	18053.665874564258	1
0	35613	18054.444959535105	0
0	35617	18054.983197746938	1
0	35618	18055.453382217912	0
0	35622	18055.872928927568	1
0	35623	18056.324937635129	0
0	35627	18057.002189097106	1
0	35629	18057.168638796588	2
0	35630	18057.406875497503	1
0	35633	18058.480570620792	0
0	35637	18059.064279273801	1
0	35640	18059.468363418179	0
0	35644	18059.846213612194	1
0	35645	18060.452087051822	0
0	35649	18060.605793053999	1
0	35650	18061.608145855861	0
0	35654	18062.392793918304	1
0	35655	18062.751530772848	0
0	35659	18063.351922954742	1
0	35660	18063.932446882622	0
0	35667	18065.089420009577	1
0	35670	18066.021029041083	0
0	35700	18080.327959724093	1
0	35701	18081.333669318333	0
0	35705	18081.359216283142	1
0	35706	18082.523292716015	0
0	35730	18103.970810628274	1
0	35731	18104.245282967299	0
0	35737	18104.663987419717	1
0	35738	18105.073252297755	0
0	35755	18108.545363155697	1
0	35758	18109.520093157449	0
0	35762	18109.913433776777	1
0	35763	18110.582842306541	0
0	35767	18111.045833759723	1
0	35768	18111.730129733802	0
0	35810	18139.170738270398	1
0	35811	18139.55488221529	0
0	35815	18139.667300741353	1
0	35816	18140.449206534448	0
0	35820	18140.758706616153	1
0	35821	18141.251429237845	0
0	35865	18155.491152576202	1
0	35866	18156.275178785123	0
0	35915	18191.653947484235	1
0	35916	18192.511305945398	0
0	36030	18233.004033352127	1
0	36031	18233.254820289609	0
0	36035	18233.685751253424	1
0	36036	18234.360262807139	0
0	36040	18234.602490700489	1
0	36042	18235.108364118267	2
0	36043	18235.345311468706	1
0	36048	18236.341612162307	0
0	36052	18236.486647269171	1
0	36053	18237.34053775245	0
0	36125	18293.558987119971	1
0	36126	18294.383265229792	0
0	36175	18343.244486079946	1
0	36176	18343.303599244	0
0	36187	18345.452203767885	1
0	36189	18345.511989995999	2
0	36190	18345.90680630481	1
0	36193	18346.833291799334	0
0	36200	18348.208784982575	1
0	36201	18349.082078841739	0
0	36210	18350.343779512761	1
0	36211	18350.938501914535	0
0	36260	18369.430771555491	1
0	36261	18369.937689268325	0
0	36265	18370.849885486845	1
0	36266	18370.990151676644	0
0	36300	18390.309274678584	1
0	36301	18390.478280466142	0
0	36305	18391.459161203991	1
0	36306	18391.629299861471	0
0	36315	18393.388903301959	1
0	36316	18393.950905750688	0
0	36320	18394.763025068102	1
0	36321	18395.086393801212	0
0	36330	18398.179797884082	1
0	36331	18398.803477940631	0
0	36380	18440.146708750892	1
0	36381	18440.812811361839	0
0	36385	18441.354560809852	1
0	36386	18441.774485634574	0
0	36415	18475.714771085345	1
0	36416	18476.090291624386	0
0	36430	18479.411940751599	1
0	36431	18480.216739757484	0
0	36435	18480.84537508598	1
0	36436	18481.393801092481	0
0	36440	18481.780536449902	1
0	36441	18482.248790903048	0
0	36460	18498.286172875137	1
0	36461	18498.670849879835	0
0	36485	18509.784295109067	1
0	36486	18510.29720293042	0
0	36510	18531.592848562366	1
0	36511	18532.270564799055	0
0	36525	18536.787221109672	1
0	36526	18537.083128478504	0
0	36665	18627.893783888251	1
0	36666	18628.753360857385	0
0	36675	18630.222383927809	1
0	36676	18630.860103199573	0
0	36740	18673.160784402445	1
0	36741	18673.790168493561	0
0	36845	18710.91637781145	1
0	36846	18711.832319707382	0
0	36855	18715.691698580517	1
0	36856	18716.354369126856	0
0	36865	18718.196590249349	1
0	36866	18718.57237832518	0
0	36870	18718.76353516393	1
0	36872	18719.207922496843	2
0	36873	18719.479231357758	1
0	36877	18719.634445609131	2
0	36878	18720.390422076264	1
0	36882	18721.306017105083	2
0	36883	18721.374026015119	1
0	36887	18721.49129364093	2
0	36889	18722.137566687381	3
0	36890	18722.258780191464	2
0	36894	18722.967436637933	3
0	36895	18723.144829715134	2
0	36899	18723.280777951159	3
0	36901	18723.871244666006	4
0	36902	18724.231332316806	3
0	36905	18725.144051552468	2
0	36908	18726.333250098486	1
0	36912	18726.338833145551	2
0	36913	18727.436019914687	1
0	36917	18727.448567048413	2
0	36918	18728.546892867234	1
0	36922	18728.569227719647	2
0	36923	18729.523410878234	1
0	36926	18730.411317445055	0
0	36930	18731.102234024669	1
0	36932	18731.183240897763	2
0	36933	18731.255069568843	1
0	36937	18731.863221794528	2
0	36939	18732.291788387265	3
0	36940	18732.404543120597	2
0	36944	18733.15040492887	3
0	36945	18733.373905561023	2
0	36949	18733.53117653677	3
0	36950	18734.440609999557	2
0	36954	18735.33122568536	3
0	36955	18735.34204580886	2
0	36958	18736.528705454708	1
0	36962	18736.896560587785	2
0	36964	18737.256818369528	3
0	36965	18737.68591697253	2
0	36968	18738.85048234537	1
0	36972	18739.058516120499	2
0	36974	18739.184244567306	3
0	36975	18739.724827436914	2
0	36978	18740.739199691356	1
0	36981	18741.90557891186	0
0	36985	18741.977604661937	1
0	36986	18742.864942949169	0
0	36990	18742.991676654556	1
0	36993	18743.93082263041	0
0	36997	18744.666058266285	1
0	36998	18744.744122212657	0
0	37005	18746.199980161122	1
0	37007	18746.672346930675	2
0	37009	18746.806003302698	3
0	37010	18747.120800778826	2
0	37014	18747.6217107932	3
0	37015	18748.03219396211	2
0	37018	18749.060898072736	1
0	37021	18750.205199501661	0
0	37025	18750.411226910287	1
0	37027	18750.572484208576	2
0	37028	18751.181691002191	1
0	37031	18752.080566131973	0
0	37145	18828.224685864806	1
0	37146	18829.061309447185	0
0	37237	18953.341674982498	1
0	37238	18953.497964750879	0
0	37242	18954.183076228024	1
0	37243	18954.359419993867	0
0	37252	18955.6766701812	1
0	37253	18956.426623853573	0
0	37257	18957.12698602226	1
0	37258	18957.31145231528	0
0	37267	18958.573189947706	1
0	37269	18959.120971604397	2
0	37270	18959.223285205753	1
0	37275	18960.05037609264	0
0	37282	18961.480397407487	1
0	37284	18961.720360014649	2
0	37287	18962.022925911283	1
0	37292	18962.96309637809	0
0	37299	18964.114820366177	1
0	37300	18964.792439105639	0
0	37312	18966.719361022066	1
0	37313	18967.551181206105	0
0	37330	18973.821007148528	1
0	37331	18974.081575780187	0
0	37340	18975.154608455306	1
0	37342	18975.382629551802	2
0	37343	18975.981382683769	1
0	37347	18976.543253714036	2
0	37348	18977.036225554451	1
0	37351	18977.898229453165	0
0	37355	18978.477403827769	1
0	37356	18978.769972844433	0
0	37360	18979.117349535372	1
0	37361	18979.747871731698	0
0	37370	18981.301444338843	1
0	37371	18981.671964928056	0
0	37390	19005.120961507421	1
0	37391	19006.021856390367	0
0	37400	19009.545047468566	1
0	37402	19009.571304629613	2
0	37403	19010.265654344987	1
0	37406	19011.089438852519	0
0	37410	19011.613254786098	1
0	37411	19012.087295139525	0
0	37415	19013.050495912625	1
0	37416	19013.186616633683	0
0	37420	19013.796626753796	1
0	37421	19014.326093888972	0
0	37450	19039.860054465987	1
0	37451	19040.986206692397	0
0	37545	19151.979405339781	1
0	37546	19152.83756463457	0
0	37565	19163.667670538374	1
0	37566	19163.886134981883	0
0	37595	19181.894853382925	1
0	37596	19182.073463259994	0
0	37600	19182.248435305576	1
0	37601	19183.261691976975	0
0	37630	19224.657540916853	1
0	37631	19225.475414186279	0
0	37655	19259.893738269319	1
0	37658	19260.79869472237	0
0	37670	19263.655665103565	1
0	37671	19263.971975531197	0
0	37810	19371.437202615314	1
0	37811	19371.507274884644	0
0	37815	19372.296809267024	1
0	37816	19372.514440905775	0
0	37845	19391.528177565549	1
0	37846	19391.679065413182	0
0	37850	19391.858726926697	1
0	37851	19392.854903560938	0
0	37900	19418.949460268443	1
0	37901	19419.647319327268	0
0	37905	19420.110474036909	1
0	37906	19420.693196996554	0
0	37910	19421.312406076327	1
0	37911	19421.711852399885	0
0	37920	19425.994622814423	1
0	37921	19426.055976416015	0
0	37925	19426.176576926607	1
0	37926	19427.095948517912	0
0	38030	19492.426501770281	1
0	38031	19492.957002152582	0
0	38035	19493.042594487352	1
0	38038	19494.001975723249	0
0	38124	19511.849793819721	1
0	38125	19512.078405657885	0
0	38129	19512.762837458667	1
0	38130	19513.072679473841	0
0	38137	19514.487891871453	1
0	38138	19515.046059787376	0
0	38142	19515.266935028487	1
0	38143	19515.920562177347	0
0	38157	19518.713120448027	1
0	38158	19519.511725175798	0
0	38165	19521.149921940874	1
0	38166	19521.440979880605	0
0	38260	19560.569686479573	1
0	38263	19561.390552587238	0
0	38352	19609.679388584176	1
0	38353	19609.921049747179	0
0	38370	19613.355863693256	1
0	38371	19614.235649436278	0
0	38375	19614.526815094122	1
0	38376	19615.046512534873	0
0	38400	19626.58808860259	1
0	38401	19627.460155772164	0
0	38412	19628.967871030823	1
0	38413	19629.801988138238	0
0	38420	19631.614290761382	1
0	38421	19631.879577797165	0
0	38425	19632.284470865511	1
0	38427	19632.793931963061	2
0	38428	19632.953380223157	1
0	38432	19632.961362737355	2
0	38433	19633.759191876723	1
0	38436	19634.685349125581	0
0	38440	19634.776283414155	1
0	38441	19635.841603071688	0
0	38455	19652.585694882815	1
0	38456	19653.683454391602	0
0	38475	19665.50653021278	1
0	38476	19666.123470100268	0
0	38500	19671.125775351003	1
0	38501	19671.994729064139	0
0	38505	19672.205120871866	1
0	38508	19673.009808698403	0
0	38560	19711.520397516289	1
0	38561	19711.852732711374	0
0	38570	19713.583122511463	1
0	38571	19714.060691324617	0
0	38615	19756.351785422155	1
0	38616	19756.903940769054	0
0	38630	19761.743515147784	1
0	38631	19761.872787885148	0
0	38635	19762.146650903243	1
0	38636	19763.046963313375	0
0	38660	19780.208366215793	1
0	38661	19780.991588253675	0
0	38722	19824.097816251585	1
0	38723	19825.267122408461	0
0	38730	19826.541447566337	1
0	38731	19827.399363286227	0
0	38745	19830.708212117237	1
0	38747	19831.262554274107	2
0	38748	19831.653065528222	1
0	38752	19831.879883917592	2
0	38753	19832.798234645617	1
0	38757	19832.880577996614	2
0	38758	19833.763636524104	1
0	38761	19834.565877660145	0
0	38770	19836.793145314048	1
0	38771	19837.222332930269	0
0	38790	19851.915057038487	1
0	38791	19852.327523185053	0
0	38795	19852.345153108152	1
0	38796	19853.230318548643	0
0	38830	19867.518176624123	1
0	38831	19867.676357053729	0
0	38905	19912.046074282152	1
0	38908	19912.177489374959	0
0	38950	19922.843326208061	1
0	38951	19923.850782522289	0
0	38960	19925.204649193254	1
0	38961	19925.815067412933	0
0	39065	19996.304587082928	1
0	39066	19996.571189904456	0
0	39080	20000.556554503911	1
0	39081	20000.888469961064	0
0	39090	20005.77264892678	1
0	39091	20005.98193378117	0
0	39095	20006.322023609153	1
0	39096	20006.844266486765	0
0	39115	20012.558216849124	1
0	39116	20013.466177341449	0
0	39125	20014.802772807821	1
0	39126	20015.66064524624	0
0	39135	20017.052707896926	1
0	39136	20017.433271723627	0
0	39165	20023.662493379334	1
0	39166	20024.555833674616	0
0	39180	20026.747578653739	1
0	39183	20027.339484952692	0
0	39194	20029.141706085934	1
0	39195	20029.382188724935	0
0	39255	20046.20724581071	1
0	39256	20046.433907366654	0
0	39270	20050.356702312082	1
0	39271	20050.772323773644	0
0	39275	20051.571921310052	1
0	39276	20051.683888623334	0
0	39280	20051.905119149624	1
0	39281	20052.636293952569	0
0	39377	20119.049235469095	1
0	39378	20119.273230889343	0
0	39432	20168.28958978831	1
0	39433	20168.528878003007	0
0	39440	20170.072082904156	1
0	39441	20170.503499793096	0
0	39445	20170.507937097127	1
0	39446	20171.554894255309	0
0	39455	20172.876049300411	1
0	39456	20173.552007295399	0
0	39537	20209.163841557483	1
0	39538	20209.539584562882	0
0	39555	20218.757620249335	1
0	39556	20219.019723856111	0
0	39560	20219.690730977654	1
0	39561	20220.063694140722	0
0	39565	20220.129077957826	1
0	39566	20220.941003713698	0
0	39570	20221.524095145066	1
0	39571	20221.834613704623	0
0	39640	20257.500843114342	1
0	39641	20257.776737692454	0
0	39655	20261.229975308381	1
0	39658	20262.309135222593	0
0	39670	20265.217276215147	1
0	39674	20265.386497037014	2
0	39675	20265.565560968565	1
0	39678	20266.491321825767	0
0	39687	20268.18918358011	1
0	39688	20268.341158007803	0
0	39750	20308.859218053447	1
0	39751	20309.584823063795	0
0	39755	20309.806873037523	1
0	39756	20310.552306447212	0
0	39760	20310.860771781793	1
0	39761	20311.692866401501	0
0	39795	20327.194645462732	1
0	39796	20328.085521506995	0
0	39800	20328.251727089607	1
0	39801	20329.092752880055	0
0	39805	20329.340648229434	1
0	39806	20330.191106871154	0
0	39825	20340.163996004781	1
0	39826	20340.302332719106	0
0	39865	20358.208417752325	1
0	39866	20359.002289323416	0
0	39962	20412.204164253428	1
0	39963	20412.34441952557	0
0	39972	20414.399959108722	1
0	39973	20414.585282822704	0
0	39995	20419.155743653246	1
0	39996	20419.627818302704	0
0	40005	20420.71515995951	1
0	40006	20421.730835324875	0
0	40015	20424.055616078669	1
0	40016	20424.303205465555	0
0	40120	20475.529540929552	1
0	40121	20475.954461425933	0
0	40200	20516.148024665898	1
0	40201	20516.215815517582	0
0	40225	20520.46916739264	1
0	40226	20521.153158409369	0
0	40235	20522.700316222849	1
0	40237	20522.701730933725	2
0	40238	20523.216735381295	1
0	40242	20524.26805033304	2
0	40243	20524.270582075452	1
0	40246	20525.08035575723	0
0	40257	20527.08958846036	1
0	40258	20527.102604446036	0
0	40262	20527.171241769995	1
0	40265	20528.195556256582	0
0	40272	20529.612944519202	1
0	40275	20530.096921408118	0
0	40282	20531.259238500561	1
0	40283	20531.89999937847	0
0	40290	20532.875823351004	1
0	40292	20532.967019483636	2
0	40293	20533.599424596817	1
0	40296	20534.454370618646	0
0	40300	20534.509227442472	1
0	40303	20535.568898747151	0
0	40307	20536.017852525447	1
0	40308	20536.512101214507	0
0	40340	20549.946487703557	1
0	40341	20550.02365944543	0
0	40365	20569.338804662931	1
0	40366	20570.080166951218	0
0	40370	20570.340204450189	1
0	40371	20571.140262113628	0
0	40375	20571.554875891308	1
0	40377	20572.270282788267	2
0	40379	20572.288942592625	3
0	40380	20572.324970862852	2
0	40384	20572.597972888658	3
0	40385	20573.441878237506	2
0	40388	20574.478058981733	1
0	40392	20575.381987927381	2
0	40393	20575.617111309362	1
0	40397	20575.628678953158	2
0	40398	20576.697661648901	1
0	40401	20577.82417306651	0
0	40405	20578.481425203969	1
0	40406	20578.712038275438	0
0	40410	20578.812556926979	1
0	40411	20579.646919308069	0
0	40450	20594.725510476569	1
0	40453	20595.829638788583	0
0	40457	20596.113991166374	1
0	40459	20596.692467153464	2
0	40460	20596.99083760885	1
0	40463	20597.921785624804	0
0	40467	20598.346355727175	1
0	40468	20598.77367096526	0
0	40495	20622.497717703474	1
0	40496	20623.106827330231	0
0	40545	20648.86210435838	1
0	40546	20649.592086217583	0
0	40555	20659.957132325659	1
0	40556	20661.110474510037	0
0	40565	20662.441217125389	1
0	40566	20663.180288849092	0
0	40575	20664.825951524161	1
0	40576	20665.482736252222	0
0	40585	20666.940704111219	1
0	40586	20667.52587133364	0
0	40670	20708.337871456955	1
0	40671	20708.660722214015	0
0	40675	20709.075238993157	1
0	40676	20709.516065533211	0
0	40697	20713.522977751662	1
0	40698	20713.563024785069	0
0	40705	20715.407275871088	1
0	40706	20715.500228709706	0
0	40715	20716.572724841282	1
0	40716	20717.434542637111	0
0	40720	20718.058639817376	1
0	40721	20718.421115586606	0
0	40725	20718.873811003976	1
0	40727	20718.994271711389	2
0	40728	20719.614895970726	1
0	40731	20720.538168183041	0
0	40740	20722.095191353508	1
0	40743	20723.153638503308	0
0	40747	20723.213187256341	1
0	40749	20723.892688395108	2
0	40750	20724.115207633729	1
0	40753	20725.115003667566	0
0	40760	20727.032220418021	1
0	40761	20727.289396463594	0
0	40780	20735.025519742775	1
0	40781	20735.553893182685	0
0	40790	20736.90193701315	1
0	40791	20737.967053349349	0
0	40795	20738.585319522547	1
0	40796	20739.001316506262	0
0	40800	20739.08072350596	1
0	40801	20740.043544094111	0
0	40810	20743.101859750651	1
0	40811	20743.511666605335	0
0	40815	20744.012043067528	1
0	40818	20744.647044742473	0
0	40822	20745.133721447794	1
0	40824	20745.304414845444	2
0	40825	20745.655381820437	1
0	40828	20746.76188660105	0
0	40905	20784.011194092634	1
0	40906	20784.070030357786	0
0	40915	20785.100250610611	1
0	40916	20786.049772237246	0
0	40950	20812.241990865194	1
0	40951	20812.419515345961	0
0	40955	20812.987721486371	1
0	40956	20813.459891017683	0
0	40960	20813.657649826851	1
0	40961	20814.505539683875	0
0	41005	20854.166458093322	1
0	41006	20854.801646081318	0
0	41015	20856.300552921179	1
0	41016	20856.738025714696	0
0	41030	20867.899021479196	1
0	41031	20868.048727581333	0
0	41065	20883.330905806975	1
0	41066	20884.241592649378	0
0	41100	20922.664240991648	1
0	41101	20923.237233823151	0
0	41135	20936.885679887289	1
0	41136	20937.270856449063	0
0	41170	20946.097514132919	1
0	41171	20946.975623972334	0
0	41185	20949.707672469616	1
0	41186	20950.484172571652	0
0	41200	20953.102293434494	1
0	41201	20953.489718987063	0
0	41235	20963.262978568285	1
0	41236	20963.36379915922	0
0	41250	20981.636584579272	1
0	41251	20981.860762168495	0
0	41260	20983.117234940414	1
0	41261	20983.97596247376	0
0	41270	20985.409591495991	1
0	41271	20986.391458202892	0
0	41315	21020.74828753065	1
0	41316	21021.663619205111	0
0	41320	21022.020737133801	1
0	41321	21022.616928754689	0
0	41325	21022.995507100613	1
0	41327	21023.35570194563	2
0	41330	21023.73136737434	1
0	41333	21024.837544969132	0
0	41340	21025.948220540333	1
0	41341	21026.943897734618	0
0	41345	21027.027179488544	1
0	41348	21028.021080288792	0
0	41355	21029.106388970268	1
0	41356	21029.796584333795	0
0	41395	21053.736078188371	1
0	41396	21054.238444063961	0
0	41412	21058.431813124213	1
0	41413	21058.759110281718	0
0	41417	21058.969618858601	1
0	41418	21059.798931490731	0
0	41422	21060.274557381587	1
0	41423	21060.80812948915	0
0	41430	21061.904042755493	1
0	41431	21062.817316425226	0
0	41440	21066.41623707039	1
0	41441	21066.566856174333	0
0	41455	21070.243163989127	1
0	41456	21070.430538240182	0
0	41460	21071.069310658081	1
0	41461	21071.492996403496	0
0	41465	21071.660685070525	1
0	41466	21072.500628851834	0
0	41520	21138.345178009929	1
0	41521	21139.249574545692	0
0	41570	21184.424981279928	1
0	41571	21184.704014546654	0
0	41575	21185.723344560184	1
0	41576	21185.809293425965	0
0	41615	21215.285288865778	1
0	41616	21215.828278411833	0
0	41625	21217.302165069146	1
0	41626	21217.950503484458	0
0	41635	21219.185339248763	1
0	41636	21220.102194900457	0
0	41665	21228.395258971786	1
0	41668	21229.137849737328	0
0	41674	21229.688864588756	1
0	41675	21229.943952783566	0
0	41682	21231.210610133292	1
0	41683	21231.647900163565	0
0	41730	21251.668688013443	1
0	41731	21251.78787030563	0
0	41740	21253.081173184999	1
0	41742	21253.625104631208	2
0	41744	21253.639319676614	3
0	41745	21253.782253721862	2
0	41748	21254.734731914702	1
0	41751	21255.740117040875	0
0	41765	21261.831948142753	1
0	41766	21262.518150051226	0
0	41770	21263.127376825788	1
0	41771	21263.405861124684	0
0	41775	21263.591136802572	1
0	41776	21264.381100358357	0
0	41810	21275.077437619364	1
0	41811	21275.983198774878	0
0	41815	21277.003163638073	1
0	41816	21277.013118208472	0
0	41820	21277.982226080328	1
0	41821	21278.171512136042	0
0	41825	21278.549489672413	1
0	41826	21279.168445404053	0
0	41830	21279.54831720831	1
0	41831	21280.173745179542	0
0	41845	21287.336833345089	1
0	41848	21288.052114734377	0
0	41852	21288.646118525644	1
0	41853	21289.012437331627	0
0	41860	21290.397085629068	1
0	41861	21291.05116169187	0
0	41905	21305.623701847725	1
0	41908	21305.669651283945	0
0	41930	21311.68126986897	1
0	41931	21312.215656905548	0
0	42000	21370.894326416622	1
0	42001	21370.932568470316	0
0	42005	21371.550245249719	1
0	42008	21372.121690867117	0
0	42015	21373.321170042701	1
0	42018	21374.13479305722	0
0	42030	21377.36978277573	1
0	42033	21377.919622696152	0
0	42085	21401.709054188161	1
0	42087	21402.064326197569	2
0	42088	21402.386245926805	1
0	42091	21403.342739141788	0
0	42095	21403.946299021659	1
0	42096	21404.280122781135	0
0	42102	21405.373643368178	1
0	42103	21405.436140060667	0
0	42107	21405.705684555507	1
0	42108	21406.293696806263	0
0	42115	21408.067458411245	1
0	42116	21408.294289204347	0
0	42175	21430.259622925535	1
0	42177	21430.660426895384	2
0	42178	21430.842654402797	1
0	42181	21431.814911130779	0
0	42185	21432.452677330929	1
0	42186	21432.789592049607	0
0	42190	21432.993065620144	1
0	42193	21433.942228741069	0
0	42200	21434.844934708679	1
0	42201	21435.64509172259	0
0	42255	21474.33068464987	1
0	42258	21474.974012904932	0
0	42265	21476.395089209483	1
0	42266	21476.946112742127	0
0	42325	21499.097452412738	1
0	42326	21499.098835119692	0
0	42335	21500.988162720633	1
0	42336	21501.263325676316	0
0	42345	21502.778312249575	1
0	42346	21503.218602078868	0
0	42355	21504.379143754713	1
0	42356	21505.012442593457	0
0	42375	21527.119017229822	1
0	42376	21527.457596032101	0
0	42380	21527.775410830791	1
0	42381	21528.445264627098	0
0	42385	21528.721841343817	1
0	42386	21529.54233616466	0
0	42395	21531.46243006818	1
0	42396	21532.382162118405	0
0	42405	21534.178488630713	1
0	42406	21534.548414972008	0
0	42410	21534.795436813228	1
0	42411	21535.446107336369	0
0	42420	21537.481980686036	1
0	42421	21537.875779827097	0
0	42495	21576.34319847732	1
0	42496	21577.237263481047	0
0	42500	21577.280394170412	1
0	42502	21578.058629844031	2
0	42503	21578.205794562779	1
0	42506	21579.096457783512	0
0	42535	21588.718468915774	1
0	42536	21589.328967580814	0
0	42560	21595.114902218339	1
0	42561	21595.648136957093	0
0	42625	21647.476497559359	1
0	42627	21647.587595946448	2
0	42628	21647.765774970411	1
0	42632	21648.441683839414	2
0	42633	21648.767890771853	1
0	42636	21649.742085048838	0
0	42640	21650.203179636666	1
0	42641	21650.920270282591	0
0	42680	21676.380445811833	1
0	42681	21677.460296563824	0
0	42690	21679.166953487518	1
0	42691	21679.235911576563	0
0	42695	21679.538954931408	1
0	42696	21680.284911617191	0
0	42705	21682.034578904113	1
0	42706	21682.787851579467	0
0	42715	21684.866129070612	1
0	42716	21685.318730240148	0
0	42720	21685.834003418598	1
0	42722	21686.073627795898	2
0	42723	21686.293601147198	1
0	42726	21687.200536983014	0
0	42925	21818.96500441735	1
0	42926	21819.168702178892	0
0	42975	21850.143291362548	1
0	42976	21851.304030441509	0
0	42995	21869.247869009823	1
0	42996	21869.690661299681	0
0	43030	21901.937264000462	1
0	43033	21902.61326015587	0
0	43084	21917.452407166043	1
0	43085	21917.685863716183	0
0	43092	21919.686189150639	1
0	43093	21919.894938450055	0
0	43105	21923.308557077682	1
0	43106	21924.411835621606	0
0	43110	21924.635895250746	1
0	43111	21925.273454126186	0
0	43115	21925.450804559125	1
0	43116	21926.321908943384	0
0	43155	21956.286040606088	1
0	43156	21956.493154543272	0
0	43240	21996.501468631144	1
0	43241	21996.569501762277	0
0	43245	21996.874991788807	1
0	43246	21997.606741872708	0
0	43280	22005.79250162549	1
0	43281	22006.301331410192	0
0	43305	22017.682458211732	1
0	43308	22018.290129252743	0
0	43312	22018.358655839804	1
0	43313	22019.267687439673	0
0	43335	22026.144537936505	1
0	43336	22026.455413449734	0
0	43362	22030.87383510974	1
0	43363	22031.266706253115	0
0	43367	22031.67897136344	1
0	43368	22032.250568823229	0
0	43375	22033.38328634458	1
0	43376	22034.215848888355	0
0	43385	22035.658816780868	1
0	43388	22036.368774916057	0
0	43395	22037.841443287778	1
0	43397	22037.905571188978	2
0	43398	22038.168312449392	1
0	43403	22039.247259497654	0
0	43407	22039.349302739662	1
0	43408	22040.287692972191	0
0	43415	22041.439524262807	1
0	43417	22041.722120391866	2
0	43418	22042.040718295623	1
0	43421	22042.867919157084	0
0	43430	22043.96485018135	1
0	43431	22044.880454810161	0
0	43440	22046.172763598092	1
0	43441	22046.944905501486	0
0	43465	22068.934714831124	1
0	43466	22069.1267545344	0
0	43470	22069.943370360624	1
0	43471	22069.966848252869	0
0	43500	22078.216096499721	1
0	43501	22078.870712997499	0
0	43505	22078.990957858614	1
0	43506	22079.678239588919	0
0	43510	22080.32492239908	1
0	43511	22080.560812214403	0
0	43540	22090.525714168722	1
0	43541	22090.804898168019	0
0	43600	22123.511135505296	1
0	43601	22124.299523859826	0
0	43620	22128.317400421995	1
0	43621	22128.471014502054	0
0	43632	22130.61703682007	1
0	43633	22130.813199160649	0
0	43640	22132.023164550808	1
0	43642	22132.278980668711	2
0	43643	22132.810154026775	1
0	43646	22133.877411454665	0
0	43650	22134.740405985091	1
0	43651	22134.8804899826	0
0	43655	22135.649064415722	1
0	43656	22135.979534207872	0
0	43660	22136.025991423182	1
0	43661	22136.992027249216	0
0	43695	22157.151549258351	1
0	43698	22157.736867819294	0
0	43702	22158.082442750333	1
0	43705	22158.761651480138	0
0	43709	22159.033407367331	1
0	43711	22159.21261130553	2
0	43712	22159.829917361248	1
0	43715	22160.904139485057	0
0	43722	22162.223311384571	1
0	43723	22162.978751729927	0
0	43730	22164.179970745488	1
0	43731	22164.844485495738	0
0	43750	22169.601810683939	1
0	43751	22170.726362828604	0
0	43790	22200.968622343979	1
0	43791	22201.833755656395	0
0	43855	22242.713700642079	1
0	43856	22242.857225724755	0
0	43890	22258.79595698495	1
0	43891	22258.912759762245	0
0	43900	22261.394312860688	1
0	43901	22261.645602332872	0
0	43930	22272.872317692561	1
0	43931	22273.764296895452	0
0	43960	22290.54887705126	1
0	43961	22291.238590217835	0
0	44015	22312.285500432902	1
0	44018	22312.326108806678	0
0	44027	22314.492081881753	1
0	44028	22314.622805790887	0
0	44042	22316.904043898881	1
0	44045	22317.678585414034	0
0	44052	22319.062665799636	1
0	44053	22319.618313589976	0
0	44165	22396.612536488845	1
0	44166	22396.736957149451	0
0	44170	22397.505972279381	1
0	44171	22397.801576761772	0
0	44195	22419.728339128177	1
0	44197	22420.308223916259	2
0	44198	22420.856789936753	1
0	44201	22421.804911769995	0
0	44205	22421.977533328175	1
0	44206	22422.685355038171	0
0	44212	22422.768070692938	1
0	44213	22423.517171341156	0
0	44240	22435.469106634517	1
0	44241	22436.343139703578	0
0	44275	22445.075060120708	1
0	44276	22445.078697267364	0
0	44325	22473.47012933456	1
0	44326	22473.536147788804	0
0	44335	22475.418460770942	1
0	44336	22475.669914796306	0
0	44347	22477.270139840893	1
0	44348	22477.516986024854	0
0	44360	22479.970461992516	1
0	44361	22480.976203727824	0
0	44410	22516.742105705866	1
0	44411	22516.935737494121	0
0	44530	22618.549593335386	1
0	44531	22618.717868682912	0
0	44585	22637.158872597239	1
0	44586	22637.176209281137	0
0	44615	22648.960480975102	1
0	44616	22648.96188474696	0
0	44625	22656.220620327087	1
0	44628	22656.993948737302	0
0	44700	22714.731843609488	1
0	44701	22715.406551438283	0
0	44705	22715.618075220946	1
0	44706	22716.453021600276	0
0	44710	22716.64518477441	1
0	44712	22716.88967464613	2
0	44713	22717.266004422392	1
0	44716	22718.44974985988	0
0	44720	22718.627546065408	1
0	44721	22719.498768415666	0
0	44725	22719.975011101078	1
0	44726	22720.431542892839	0
0	44745	22733.813042483002	1
0	44746	22734.525070585203	0
0	44767	22749.668302680669	1
0	44768	22750.337062556916	0
0	44782	22753.154380210588	1
0	44783	22753.985246842987	0
0	44790	22755.035403807794	1
0	44791	22755.991169390249	0
0	44795	22757.034635707397	1
0	44796	22757.089721184111	0
0	44805	22759.127314524353	1
0	44806	22759.821056111102	0
0	44810	22760.123696505814	1
0	44811	22760.656797319596	0
0	44825	22763.684585349	1
0	44826	22764.530817318564	0
0	44855	22781.791131681913	1
0	44856	22782.332096978159	0
0	44890	22807.53030566347	1
0	44891	22808.292667263069	0
0	44895	22808.454869364318	1
0	44896	22809.249560258698	0
0	44905	22812.132546804385	1
0	44907	22812.799541943312	2
0	44908	22813.09710208676	1
0	44911	22814.140089800909	0
0	44925	22817.591423306494	1
0	44927	22817.921505166451	2
0	44928	22818.479860550309	1
0	44931	22819.603769650175	0
0	44935	22820.166500032749	1
0	44937	22820.294559153618	2
0	44938	22820.429742042119	1
0	44941	22821.303230460784	0
0	44945	22821.773414842921	1
0	44946	22822.286453728336	0
0	44950	22822.517325432394	1
0	44953	22823.429174879151	0
0	44960	22824.648730361843	1
0	44961	22825.170165483518	0
0	44965	22825.284100463962	1
0	44968	22826.110568228601	0
0	45000	22842.435739738557	1
0	45001	22842.958087595432	0
0	45040	22860.000033160584	1
0	45041	22860.611266381888	0
0	45065	22869.222897169756	1
0	45066	22870.105898235017	0
0	45075	22871.827554175652	1
0	45076	22872.356166751986	0
0	45080	22873.245715472696	1
0	45081	22873.348463779525	0
0	45125	22899.005142472146	1
0	45126	22899.297729863577	0
0	45160	22929.519797202001	1
0	45163	22930.550009143459	0
0	45200	22941.4004841001	1
0	45201	22942.191828122256	0
0	45245	22956.966978775873	1
0	45246	22957.062115245412	0
0	45265	22960.492214709678	1
0	45266	22960.791298301588	0
0	45275	22963.069959283356	1
0	45276	22963.848597640267	0
0	45285	22965.244168276083	1
0	45286	22966.015295559822	0
0	45295	22967.76440337982	1
0	45296	22968.617888219298	0
0	45312	22972.339268817031	1
0	45313	22972.419452310013	0
0	45317	22972.629022721577	1
0	45318	22973.335915312669	0
0	45322	22974.218600320654	1
0	45323	22974.32062800595	0
0	45331	22974.736878610619	1
0	45332	22975.394070075857	0
0	45342	22977.965732300326	1
0	45343	22978.260303098647	0
0	45349	22978.485498509971	1
0	45350	22979.395087383533	0
0	45354	22980.22200197479	1
0	45355	22980.254112493279	0
0	45385	22995.520756948707	1
0	45386	22995.698163147275	0
0	45407	23004.123348066272	1
0	45410	23004.405864705317	0
0	45430	23007.809476658221	1
0	45432	23008.339736374969	2
0	45435	23008.855017873258	1
0	45438	23009.978347294763	0
0	45505	23047.178873596109	1
0	45506	23048.160877483916	0
0	45570	23087.048292630162	1
0	45571	23087.822030791486	0
0	45575	23088.045739226	1
0	45576	23088.771105281668	0
0	45590	23091.258096868897	1
0	45591	23092.074179815115	0
0	45595	23092.383894127888	1
0	45596	23092.896168908929	0
0	45610	23099.36638047392	1
0	45611	23099.931595923265	0
0	45620	23101.338299360819	1
0	45621	23101.927056059919	0
0	45640	23106.818512941259	1
0	45643	23107.466075003008	0
0	45647	23107.744914974079	1
[...]
7	56975	28864.885015740642	1
7	56976	28865.3010889503	0
7	56995	28869.324221932344	1
7	56996	28870.159381126635	0
7	57125	28945.881547706345	1
7	57126	28946.910030325888	0
7	57155	28997.812889553121	1
7	57156	28998.333239367536	0
7	57285	29129.398977015939	1
7	57286	29130.201158039632	0
7	57307	29143.688129257542	1
7	57311	29145.112841042442	0
7	57327	29148.154027115271	1
7	57331	29149.267499081135	0
7	57340	29151.175759373298	1
7	57341	29152.118286053805	0
7	57352	29155.599126808478	1
7	57361	29157.362691725217	0
7	57367	29157.723684771829	1
7	57371	29159.528123712338	0
7	57375	29160.332158498493	1
7	57376	29160.641760180223	0
7	57400	29166.970497752505	1
7	57401	29167.447785533135	0
7	57405	29167.690669708028	1
7	57406	29168.540829736189	0
7	57490	29213.161095254326	1
7	57506	29216.40897764278	0
7	57585	29257.120279526839	1
7	57587	29257.146394929818	2
7	57588	29257.340392308594	1
7	57596	29259.303752252837	0
7	57615	29266.814066751033	1
7	57616	29267.650344566058	0
7	57635	29294.966958322684	1
7	57636	29295.640532511418	0
7	57640	29296.472170357502	1
7	57641	29296.659451811799	0
7	57650	29298.18550538087	1
7	57651	29298.612488776067	0
7	57665	29301.697361564821	1
7	57666	29302.583620360803	0
7	57670	29303.097603878426	1
7	57671	29303.665155175638	0
7	57675	29304.386432893615	1
7	57676	29304.52446289019	0
7	57680	29304.815259997094	1
7	57681	29305.483813206882	0
7	57685	29305.896953981058	1
7	57686	29306.454335588434	0
7	57690	29306.90750887547	1
7	57692	29306.926501026947	2
7	57693	29307.505491522544	1
7	57696	29308.306589784783	0
7	57780	29338.993659361267	1
7	57781	29339.883822298535	0
7	57815	29355.421835762247	1
7	57816	29355.445674631415	0
7	57820	29355.88367016456	1
7	57821	29356.447835645402	0
7	57827	29356.689967796461	1
7	57831	29358.392254250726	0
7	57835	29358.734497085816	1
7	57836	29359.256683539177	0
7	57845	29360.919521374597	1
7	57846	29361.354600719784	0
7	57905	29403.592126288538	1
7	57906	29403.621327836409	0
7	58060	29493.023078458516	1
7	58061	29493.067502728131	0
7	58065	29493.265190759536	1
7	58066	29494.161822043293	0
7	58080	29499.382534518438	1
7	58081	29500.270931432546	0
7	58085	29500.399486391887	1
7	58086	29501.440391842426	0
7	58155	29533.851674554509	1
7	58156	29534.475702924316	0
7	58160	29535.107744192479	1
7	58161	29535.604081507993	0
7	58235	29570.036832033525	1
7	58251	29573.628468276712	0
7	58295	29586.410876333307	1
7	58296	29587.153757778683	0
7	58305	29589.622395334334	1
7	58314	29591.472721701699	2
7	58318	29592.467789267027	1
7	58321	29593.547323132795	0
7	58327	29593.842564985418	1
7	58337	29596.328642822292	2
7	58344	29596.735844799172	3
7	58345	29597.474291157559	2
7	58358	29600.665792006184	1
7	58367	29601.73487748569	2
7	58369	29601.827649570491	3
7	58370	29602.49858859342	2
7	58378	29604.534100894746	1
7	58381	29605.701914858841	0
7	58525	29683.449848519342	1
7	58526	29684.577721150296	0
7	58540	29689.080591991783	1
7	58541	29690.019660427811	0
7	58615	29756.827287867819	1
7	58616	29757.967005862931	0
7	58695	29796.479684221483	1
7	58696	29796.731779058875	0
7	58705	29798.397011137344	1
7	58706	29798.798742580731	0
7	58715	29800.164568505529	1
7	58716	29801.188555206396	0
7	58725	29802.592753648842	1
7	58726	29803.510469841716	0
7	58735	29804.926511092209	1
7	58736	29805.772961384376	0
7	58805	29861.978329721502	1
7	58806	29862.530864063102	0
7	58810	29862.709043496483	1
7	58811	29863.365845920435	0
7	58815	29863.830535569396	1
7	58816	29864.350508242576	0
7	58820	29864.553796324169	1
7	58821	29865.41689061421	0
7	58845	29870.57093580085	1
7	58846	29871.483341270798	0
7	58925	29930.01768052102	1
7	58926	29930.052137017546	0
7	58935	29931.881692051884	1
7	58936	29932.069736351834	0
7	58945	29933.878952250841	1
7	58946	29934.325345395997	0
7	58965	29937.827628414495	1
7	58981	29941.677683070434	0
7	59055	29978.886431750812	1
7	59056	29979.539883558142	0
7	59069	29981.074876033845	1
7	59081	29984.393057882754	0
7	59120	29999.639009338965	1
8	19755	10076.275280072378	1
8	19756	10076.385629040373	0
8	19890	10149.83064436916	1
8	19891	10150.540135932184	0
8	20035	10243.339688735575	1
8	20036	10246.007474337051	0
8	20042	10246.935576382092	1
8	20044	10247.012935153032	0
8	20586	10536.0743351513	1
8	20589	10536.896419741906	2
8	20594	10537.975989537447	3
8	20596	10538.145233137871	2
8	20605	10541.268048640381	3
8	20606	10542.572778002698	2
8	20611	10543.104666199125	1
8	20621	10544.789515708138	0
8	21854	11250.863466293856	1
8	21856	11251.04175131191	0
8	22572	11604.744385763378	1
8	22574	11605.000077544958	0
8	22805	11700.503327242426	1
8	22806	11700.524326221194	0
8	22832	11708.345356145166	1
8	22834	11708.988339020642	0
8	24080	12289.049773298126	1
8	24081	12289.348303378956	0
8	24547	12534.004201935646	1
8	24549	12534.488649355281	0
8	24552	12534.884159949277	1
8	24556	12535.94452966704	0
8	24575	12540.14634855763	1
8	24576	12540.399288509995	0
8	26392	13409.078643200909	1
8	26396	13409.831541509939	0
8	26399	13409.91431726328	1
8	26405	13411.826806756378	2
8	26406	13413.935748213313	1
8	26411	13415.082796295085	0
8	26432	13418.909216173929	1
8	26436	13420.31494622868	0
8	26625	13478.964348403053	1
8	26636	13481.635008073997	0
8	26915	13574.823601228215	1
8	26916	13575.741585992743	0
8	27615	13985.031481148026	1
8	27616	13985.643894529934	0
8	28190	14285.757522233394	1
8	28191	14287.524595766515	0
8	28580	14460.714935336693	1
8	28581	14460.742365994258	0
8	29590	15058.565752873859	1
8	29591	15058.913082480278	0
8	29595	15059.89311481401	1
8	29596	15062.943081004113	0
8	29600	15063.766978111059	1
8	29601	15065.31020848151	0
8	30935	15669.473789890031	1
8	30939	15670.875892379518	0
8	31570	16052.616923611969	1
8	31571	16053.920250367256	0
8	31577	16054.741690047713	1
8	31579	16055.156366386856	0
8	31732	16127.600712040793	1
8	31734	16127.693002514303	0
8	32490	16480.982866767102	1
8	32491	16481.564858268907	0
8	33262	16784.880118590312	1
8	33265	16786.008993826805	2
8	33266	16787.802830112754	1
8	33271	16789.657689012065	0
8	33445	16871.271751745561	1
8	33449	16872.168601497181	0
8	34445	17471.942596433454	1
8	34446	17472.72342381663	0
8	34855	17689.67294808854	1
8	34856	17690.47582435037	0
8	35677	18068.253991289651	1
8	35681	18069.422350442266	0
8	35685	18070.297612193735	1
8	35686	18071.273524272102	0
8	35935	18199.083879870908	1
8	35936	18200.706986928662	0
8	35947	18202.787823595596	1
8	35951	18204.793560430881	0
8	35955	18205.974355233189	1
8	35961	18210.36139807147	0
8	36690	18634.220583936914	1
8	36691	18636.431809433099	0
8	36695	18637.283224728812	1
8	36696	18639.119053330804	0
8	37749	19330.784209751941	1
8	37751	19330.815717964291	0
8	37754	19331.892578700602	1
8	37756	19332.030155468098	0
8	38067	19499.881175552667	1
8	38069	19500.011145181239	0
8	38077	19501.884928826415	1
8	38079	19501.897493099041	0
8	38100	19506.775126151261	1
8	38104	19507.968130831639	0
8	38110	19509.463987235521	1
8	38114	19510.229725040637	0
8	38240	19553.674414194972	1
8	38241	19557.236241410945	0
8	38264	19561.390552587238	1
8	38266	19561.610966780387	0
8	39152	20020.555472500171	1
8	39156	20022.778707792445	0
8	39167	20024.555833674616	1
8	39169	20024.90790835239	0
8	39175	20026.460888657833	1
8	39176	20026.529329546377	0
8	39950	20409.312969167389	1
8	39951	20409.985153246305	0
8	39980	20416.590506236167	1
8	39981	20416.630671638132	0
8	40060	20451.391777332997	1
8	40061	20451.849438421912	0
8	40130	20477.91639012857	1
8	40134	20478.09543319284	0
8	40195	20515.049028024483	1
8	40196	20515.392060631976	0
8	40202	20516.215815517582	1
8	40209	20517.353355011137	0
8	40875	20762.119032626431	1
8	40876	20763.46986150372	0
8	41122	20932.450690286593	1
8	41125	20933.591158193988	2
8	41126	20934.756428190281	1
8	41131	20936.249088406432	0
8	42025	21375.894578574245	1
8	42026	21376.809691061134	0
8	42290	21485.265110333091	1
8	42291	21488.83750890746	0
8	42310	21495.305698774463	1
8	42311	21495.921494510225	0
8	42315	21496.925111266798	1
8	42316	21496.961419660964	0
8	42327	21499.098835119692	1
8	42329	21499.166852768371	0
8	42337	21501.263325676316	1
8	42339	21501.676849837495	0
8	42760	21707.375378221486	1
8	42761	21707.482878133649	0
8	42765	21708.457856629876	1
8	42766	21709.372881761348	0
8	43182	21962.294694720505	1
8	43184	21962.908167470178	0
8	44540	22621.748555505576	1
8	44541	22622.738711831259	0
8	46087	23251.313915555182	1
8	46089	23251.925808845922	0
8	46455	23421.839253876795	1
8	46469	23425.065476366376	0
8	46485	23429.307420010694	1
8	46486	23430.071643436566	0
8	47595	24056.442400243261	1
8	47599	24057.691763939475	0
8	47622	24061.895015713709	1
8	47626	24063.243859590121	0
8	47632	24064.435420570054	1
8	47635	24065.44041393399	2
8	47636	24066.625878792048	1
8	47639	24066.879356565972	0
8	47810	24156.86546378694	1
8	47811	24157.001026884905	0
8	48970	24788.144857753422	1
8	48974	24789.029565880047	0
8	50180	25464.560928713012	1
8	50185	25467.471722791343	2
8	50186	25468.393691277376	1
8	50189	25468.50129769773	0
8	50250	25487.1897079966	1
8	50251	25487.258389363846	0
8	50625	25682.387588877093	1
8	50629	25682.553576956982	0
8	50637	25684.37016899244	1
8	50644	25685.875292015149	0
8	51107	25853.537113047838	1
8	51109	25854.394882116675	0
8	51660	26110.858216132326	1
8	51661	26112.135830035801	0
8	51665	26113.221478347848	1
8	51666	26114.460490720901	0
8	51670	26115.361647257391	1
8	51674	26116.822271829032	0
8	51810	26190.380299953383	1
8	51811	26195.151753801023	0
8	51870	26224.585907039294	1
8	51871	26224.891228070558	0
8	52195	26347.569148139718	1
8	52196	26348.053778294076	0
8	53807	27147.41216720371	1
8	53809	27147.511163478304	0
8	54320	27465.202855580655	1
8	54326	27466.883253899632	0
8	54330	27467.819204646112	1
8	54331	27467.924443160789	0
8	54745	27655.428481073929	1
8	54746	27656.119343531629	0
8	55000	27808.399716402836	1
8	55001	27808.620923457806	0
8	55562	28148.990520442756	1
8	55564	28149.313917883054	0
8	55590	28155.336238762562	1
8	55591	28156.657184767253	0
8	55787	28285.907279653412	1
8	55794	28286.972142020643	2
8	55796	28287.202315199777	1
8	55806	28288.989093322738	0
8	55824	28292.515138546222	1
8	55826	28292.582789175248	0
8	56635	28702.489421833618	1
8	56636	28705.639314221548	0
8	57382	29161.678549386732	1
8	57386	29162.808062149533	0
8	57677	29304.52446289019	1
8	57679	29304.815259997094	0
8	57687	29306.454335588434	1
8	57689	29306.90750887547	0
8	57810	29354.521563488629	1
8	57811	29354.576683943575	0
8	57840	29360.302041448044	1
8	57841	29360.457041846358	0
8	58070	29495.347568171964	1
8	58071	29496.835438834863	0
8	58075	29497.964617421279	1
8	58076	29499.265533924253	0
9	21320	10933.286497342479	1
9	21324	10933.374981409834	0
9	21767	11225.761973423692	1
9	21769	11226.224764852979	0
9	21772	11226.907558347652	1
9	21774	11227.377737369265	0
9	22979	11763.272916197411	1
9	22981	11763.870213724107	0
9	23035	11779.534877309917	1
9	23036	11779.731391454871	0
9	23230	11908.412755879825	1
9	23231	11908.656656506219	0
9	23247	11911.67988972769	1
9	23249	11911.951834841099	0
9	23262	11914.761550036193	1
9	23264	11915.082575962842	0
9	23804	12188.854017660958	1
9	23813	12190.280117670138	0
9	23834	12194.540933699259	1
9	23841	12195.973168302034	0
9	24130	12300.877018472878	1
9	24134	12302.286550365899	0
9	24215	12354.536777875752	1
9	24216	12356.375634055232	0
9	24305	12399.861745625032	1
9	24306	12400.48241973952	0
9	24310	12401.67047833013	1
9	24311	12401.760537057371	0
9	25162	12833.184158743272	1
9	25166	12834.20589469715	0
9	25172	12835.396281291423	1
9	25174	12836.207208729241	0
9	25300	12887.292216519488	1
9	25301	12887.328436612503	0
9	25715	13123.170033269794	1
9	25716	13123.432862583336	0
9	25752	13130.766726865594	1
9	25754	13130.815651896757	0
9	26247	13363.897929134821	1
9	26249	13363.942919160667	0
9	26457	13424.005420209975	1
9	26459	13424.26674458724	0
9	26502	13435.012352450202	1
9	26506	13435.749234819175	0
9	26622	13478.087127466375	1
9	26626	13479.649352925744	0
9	26813	13553.023913922842	1
9	26815	13553.102882689479	0
9	26831	13556.801447218034	1
9	26833	13557.550805102271	0
9	26836	13557.915308706864	1
9	26841	13559.061157458078	0
9	26856	13562.086719912506	1
9	26861	13563.404792677484	0
9	27102	13636.324537814296	1
9	27104	13636.405457923912	0
9	27110	13638.444959638901	1
9	27114	13641.605757788831	0
9	27590	13977.585860278526	1
9	27591	13978.364108203067	0
9	27737	14032.505057125125	1
9	27751	14035.550930675788	0
9	27825	14057.322545041984	1
9	27826	14058.754477617745	0
9	28360	14353.673654037188	1
9	28361	14356.474427129927	0
9	28372	14358.422735632437	1
9	28374	14358.549774060782	0
9	28377	14359.545869668147	1
9	28379	14360.131369023942	0
9	28382	14360.377752676925	1
9	28384	14360.94310662477	0
9	28755	14584.983981833608	1
9	28759	14585.755369064645	0
9	28765	14586.804518733741	1
9	28766	14587.97309961207	0
9	29682	15105.764167336585	1
9	29686	15107.812219358348	0
9	29827	15189.255517019127	1
9	29829	15189.409450244526	0
9	29832	15190.133166933507	1
9	29834	15190.235846037914	0
9	30010	15259.082085381906	1
9	30014	15259.537500837634	0
9	30235	15386.753394868953	1
9	30236	15387.672992045124	0
9	30282	15412.872103243936	1
9	30289	15414.153427867197	0
9	30567	15520.506969223452	1
9	30569	15520.561583386522	0
9	30597	15526.472326579969	1
9	30599	15526.600519154561	0
9	31937	16233.275415189148	1
9	31939	16233.423771509945	0
9	31942	16234.224766643395	1
9	31944	16234.578211446567	0
9	31947	16235.081277364542	1
9	31951	16237.303968784147	0
9	32439	16453.676809117392	1
9	32446	16455.682713700441	0
9	33035	16711.229822184189	1
9	33036	16712.240446890338	0
9	33042	16713.144766803837	1
9	33044	16713.358373237927	0
9	33169	16765.305773756502	1
9	33171	16765.83330601514	0
9	33177	16767.278245571663	1
9	33179	16767.875712764253	0
9	35187	17856.856909856252	1
9	35189	17857.130132241661	0
9	35197	17858.897700301982	1
9	35201	17861.327156757497	0
9	35205	17862.416998934773	1
9	35206	17863.721421112029	0
9	35624	18056.324937635129	1
9	35626	18057.002189097106	0
9	36747	18674.755546362552	1
9	36751	18677.006381860983	0
9	36927	18730.411317445055	1
9	36931	18731.183240897763	0
9	36934	18731.255069568843	1
9	36936	18731.863221794528	0
9	36941	18732.404543120597	1
9	36943	18733.15040492887	0
9	36959	18736.528705454708	1
9	36961	18736.896560587785	0
9	37279	18960.910329481119	1
9	37281	18961.480397407487	0
9	37375	18982.643180334768	1
9	37376	18983.684082630916	0
9	38134	19514.093950590221	1
9	38136	19514.487891871453	0
9	38147	19516.844016881483	1
9	38151	19518.380219254874	0
9	38625	19760.750420381883	1
9	38629	19761.743515147784	0
9	38762	19834.565877660145	1
9	38766	19836.171524194891	0
9	39075	19998.700625632242	1
9	39076	19999.699189460615	0
9	39437	20169.529039621281	1
9	39439	20170.072082904156	0
9	40252	20525.905726978124	1
9	40256	20527.08958846036	0
9	40372	20571.140262113628	1
9	40376	20572.270282788267	0
9	40735	20721.705393717696	1
9	40736	20721.967486703003	0
9	40785	20736.680355344785	1
9	40786	20736.833421952403	0
9	41337	21025.861172298005	1
9	41339	21025.948220540333	0
9	41780	21265.54047159125	1
9	41781	21265.858431380951	0
9	41827	21279.168445404053	1
9	41829	21279.54831720831	0
9	41832	21280.173745179542	1
9	41836	21285.07743285432	0
9	41840	21285.889333419814	1
9	41851	21288.646118525644	0
9	41857	21290.126637626297	1
9	41859	21290.397085629068	0
9	42390	21530.636117067992	1
9	42391	21531.378153092116	0
9	42397	21532.382162118405	1
9	42400	21533.580909710731	2
9	42401	21533.701917435557	1
9	42404	21534.178488630713	0
9	42687	21678.430878918172	1
9	42689	21679.166953487518	0
9	42700	21681.252140678951	1
9	42701	21681.777784998881	0
9	44590	22638.047895745033	1
9	44591	22638.139062850511	0
9	44595	22639.316160740385	1
9	44596	22641.232128266045	0
9	44707	22716.453021600276	1
9	44709	22716.64518477441	0
9	44915	22815.131403842058	1
9	44916	22815.905576992709	0
9	44920	22816.837073653772	1
9	44921	22817.388493091012	0
9	44932	22819.603769650175	1
9	44934	22820.166500032749	0
9	45664	23111.610085489741	1
9	45666	23111.806414780237	0
9	45705	23127.417154121338	1
9	45709	23127.868769385157	0
9	45932	23204.302392669481	1
9	45934	23204.331925580198	0
9	45947	23207.508540161319	1
9	45949	23207.645291110236	0
9	45964	23210.467584393166	1
9	45966	23210.881329090267	0
9	46390	23388.831751704546	1
9	46391	23388.913033737788	0
9	46420	23413.799496796298	1
9	46421	23414.704334610951	0
9	46515	23437.113512995659	1
9	46516	23438.281143718261	0
9	46611	23469.411527624425	1
9	46613	23470.373895133083	0
9	46845	23621.414853344907	1
9	46846	23621.440793776777	0
9	48470	24540.281772028941	1
9	48471	24541.443967364689	0
9	48825	24712.339005663213	1
9	48826	24712.359586459914	0
9	49235	24919.677207710025	1
9	49236	24920.050936191479	0
9	49350	25004.031966026952	1
9	49356	25008.247696481439	0
9	49389	25014.113359913583	1
9	49391	25014.115029282649	0
9	49480	25082.019936211871	1
9	49489	25083.836428472652	0
9	50317	25504.300809011404	1
9	50319	25504.580448957932	0
9	50947	25803.271168568059	1
9	50949	25803.51519343393	0
9	50987	25813.327950149531	1
9	50992	25814.48157623153	2
9	50994	25814.930490378709	1
9	50996	25815.14058141695	0
9	51001	25815.387194721809	1
9	51003	25815.560183463861	0
9	51042	25824.326776286063	1
9	51044	25825.266714549974	0
9	51216	25883.598438673045	1
9	51218	25884.090478785251	0
9	51244	25890.335012549486	1
9	51248	25891.12889112082	0
9	51430	25999.195950996664	1
9	51431	25999.857921812646	0
9	51490	26022.454738237704	1
9	51491	26022.700899909492	0
9	51925	26240.173235776967	1
9	51926	26240.6980429215	0
9	51930	26241.796033343265	1
9	51931	26243.033335775799	0
9	52250	26384.639801729847	1
9	52251	26385.010996568873	0
9	52270	26388.704114859663	1
9	52271	26389.735032691824	0
9	52277	26390.892434767837	1
9	52279	26390.892657252867	0
9	52957	26698.780635844864	1
9	52960	26699.666665112082	2
9	52961	26699.812690951162	1
9	52964	26699.973443565995	0
9	52982	26703.937563044344	1
9	52984	26704.230099031571	0
9	52992	26706.107165486877	1
9	52994	26706.139389363481	0
9	53235	26834.349249993235	1
9	53236	26834.38635739348	0
9	53897	27176.337853634323	1
9	53904	27177.552353100516	0
9	53910	27179.236703463304	1
9	53911	27179.896097471997	0
9	54829	27674.036582819715	1
9	54834	27674.974873184476	2
9	54836	27675.097563118665	1
9	54838	27675.132663102999	0
9	55335	28030.345656151591	1
9	55339	28031.248068029595	0
9	55342	28031.917915419619	1
9	55347	28032.739953546263	2
9	55349	28032.866975772202	1
9	55351	28033.501278266439	0
9	55354	28033.756409598551	1
9	55356	28033.908031893997	0
9	55617	28161.508314512572	1
9	55621	28162.572753948832	0
9	55674	28199.952288276355	1
9	55676	28200.369639039009	0
9	55836	28294.424046895777	1
9	55838	28294.639075279679	0
9	56300	28516.3501872745	1
9	56309	28519.226687783722	0
9	56420	28585.576091329703	1
9	56421	28585.986232486683	0
9	56812	28806.682405607998	1
9	56814	28807.187338708802	0
9	56870	28826.835969698119	1
9	56871	28827.06478425641	0
9	56880	28829.163262455207	1
9	56881	28829.590117211072	0
9	56892	28831.57303173597	1
9	56894	28831.881331493001	0
9	56897	28832.520669799941	1
9	56899	28832.600548502416	0
9	57035	28884.129695573853	1
9	57036	28885.353974185193	0
9	57235	29099.680222603821	1
9	57236	29100.037033981029	0
9	57240	29100.868553242311	1
9	57241	29101.032665571111	0
9	57245	29101.934665516584	1
9	57246	29102.129698544181	0
9	57499	29214.448502510724	1
9	57501	29215.018233536959	0
9	57504	29215.377172447586	1
9	57509	29216.94447668878	0
9	57520	29219.248472516178	1
9	57521	29220.763337957756	0
9	57525	29221.800965769672	1
9	57526	29222.139545437093	0
9	58252	29573.628468276712	1
9	58254	29573.751565245214	0
9	58346	29597.474291157559	1
9	58348	29598.488464952631	0
9	58650	29778.566001550447	1
9	58651	29779.060209122589	0
9	58847	29871.483341270798	1
9	58849	29872.389470642903	0
9	58860	29874.547457892933	1
9	58861	29874.790188186643	0
9	58937	29932.069736351834	1
9	58941	29933.471518600385	0
9	58947	29934.325345395997	1
9	58956	29936.526611601184	0
9	58960	29937.581570436056	1
9	58961	29937.782232917419	0
9	59057	29979.539883558142	1
9	59059	29980.309480602084	0

