version 2
run Second_exit_2-4-20191023-00:19:49-5158
attr configname Second_exit_2
attr datetime 20191023-00:19:49
attr experiment Second_exit_2
attr inifile omnetpp.ini
attr iterationvars ""
attr iterationvarsf ""
attr measurement ""
attr network ResponseTimeNetwork
attr processid 5158
attr repetition 4
attr replication #4
attr resultdir results
attr runnumber 4
attr seedset 4
param **.Source.interArrivalTime exponential(5s)
param **.jobPriority bernoulli(0.6)
param **.PS.serviceTimeU1 "uniform(0.8s, 1.2s)"
param **.PS.serviceTimeU2 "uniform(1.8s, 2.2s)"
param **.SS1.serviceTime exponential(1s)
param **.SS2.serviceTime exponential(1.2s)
param **.PS.exitProbability bernoulli(0.2)

vector 0 ResponseTimeNetwork.SS1 queueLength:vector ETV
attr interpolationmode sample-hold
attr title "queue length, vector"
vector 1 ResponseTimeNetwork.SS2 queueLength:vector ETV
attr interpolationmode sample-hold
attr title "queue length, vector"
vector 2 ResponseTimeNetwork.QueueU1 queueLength:vector ETV
attr interpolationmode sample-hold
attr title "queue length, vector"
vector 3 ResponseTimeNetwork.QueueU2 queueLength:vector ETV
attr interpolationmode sample-hold
attr title "queue length, vector"
vector 4 ResponseTimeNetwork.sink lifeTimeU1:vector ETV
attr interpolationmode none
attr title "lifetime of arrived jobs U1, vector"
attr unit s
vector 5 ResponseTimeNetwork.sink lifeTime:vector ETV
attr interpolationmode none
attr title "lifetime of arrived jobs, vector"
attr unit s
vector 6 ResponseTimeNetwork.sink lifeTimeU2:vector ETV
attr interpolationmode none
attr title "lifetime of arrived jobs U2, vector"
attr unit s
0	0	0	0
0	925	756.166542837265	1
0	926	757.494262525554	0
0	1055	859.770976272877	1
0	1056	859.775933814876	0
0	1065	861.426533631431	1
0	1066	863.037576047457	0
0	3767	3171.11439960094	1
0	3771	3171.836363153973	0
0	7240	5853.496176401814	1
0	7246	5855.444174631614	0
0	10985	8637.124590755964	1
0	10989	8638.504877406419	0
0	11370	8907.984542006616	1
0	11371	8910.664743541812	0
0	12572	9933.80234481958	1
0	12576	9935.221268712832	0
0	19352	15482.463858824326	1
0	19354	15482.468232203199	0
0	19657	15740.50818549822	1
0	19659	15740.523728873455	0
0	20110	16060.794236290249	1
0	20111	16062.327401653307	0
0	20407	16290.002852423782	1
0	20409	16290.083166881055	0
0	33115	26461.017202826547	1
0	33116	26461.421461155489	0
0	34280	27348.480736112481	1
0	34286	27354.185770633066	0
0	35607	28494.110302636027	1
0	35611	28495.113066593823	0
1	0	0	0
1	13700	10831.672017806097	1
1	13701	10831.95207195265	0
1	15500	12324.722435740171	1
1	15509	12329.130389337726	0
1	18860	15120.296054534959	1
1	18869	15122.298804972576	0
1	18872	15122.696177148687	1
1	18874	15123.184776544329	0
1	29510	23617.045363994845	1
1	29511	23617.084214170589	0
1	31870	25396.846780400656	1
1	31871	25399.553250825636	0
2	0	0	0
2	30	55.803991053426	1
2	31	56.807071128938	0
2	45	65.787749500854	1
2	46	66.697244448849	0
2	50	67.337209200615	1
2	51	67.879905635473	0
2	95	96.959660184078	1
2	96	97.539705770627	0
2	100	98.14574931124	1
2	101	98.466152258195	0
2	105	98.554740756071	1
2	106	99.416299631704	0
2	150	114.149325706546	1
2	151	115.190141657088	0
2	185	147.184558807559	1
2	186	147.794261836259	0
2	200	154.644807323096	1
2	203	155.470333683719	0
2	270	191.238360134526	1
2	271	191.470481419367	0
2	325	239.838119235578	1
2	326	240.677670943016	0
2	365	283.10572073985	1
2	366	283.63532832721	0
2	475	432.49539885245	1
2	477	433.125741226681	2
2	478	433.235797486229	1
2	482	433.452645505651	2
2	483	434.250910154039	1
2	486	435.42924147235	0
2	545	482.120332481954	1
2	546	482.445567305877	0
2	570	497.15768021285	1
2	573	498.046828039768	0
2	630	555.505472607617	1
2	631	556.146027462165	0
2	660	587.688727440586	1
2	662	587.777173457381	2
2	663	588.022817139169	1
2	666	589.052130580814	0
2	670	589.565792035941	1
2	671	589.987002513399	0
2	682	599.665913005367	1
2	683	599.812243001751	0
2	695	610.765314106249	1
2	696	611.69107900902	0
2	712	619.918034123903	1
2	713	620.366500164469	0
2	720	622.113169156483	1
2	721	622.427083670435	0
2	775	671.342108249643	1
2	776	671.56027440407	0
2	790	675.880512222106	1
2	791	676.672714117319	0
2	857	716.42758300754	1
2	858	716.668018647197	0
2	905	751.329593245392	1
2	906	751.812470569423	0
2	910	752.638430755666	1
2	911	752.930835691708	0
2	920	754.900224765691	1
2	921	755.186219743601	0
2	930	757.571124611243	1
2	932	758.574882094324	2
2	933	758.661535846091	1
2	936	759.507269263382	0
2	945	761.965621022614	1
2	946	762.836220464119	0
2	950	763.817426296289	1
2	951	763.973263863483	0
2	1030	827.488338737175	1
2	1031	828.277855224315	0
2	1050	858.626389054082	1
2	1051	858.943853006698	0
2	1095	878.0722850324	1
2	1096	878.500099722254	0
2	1355	1150.197513620278	1
2	1356	1150.687108765289	0
2	1502	1267.799093209258	1
2	1503	1267.982585444072	0
2	1530	1287.975895109068	1
2	1531	1288.457949852762	0
2	1535	1288.480774409568	1
2	1536	1289.649148323578	0
2	1560	1297.650076993565	1
2	1561	1297.987887914627	0
2	1620	1342.090728673957	1
2	1622	1342.55325364243	2
2	1623	1342.62122874066	1
2	1627	1342.956219975797	2
2	1629	1343.25068690595	3
2	1632	1343.449066867416	2
2	1637	1344.261823423875	1
2	1640	1345.117078935092	0
2	1644	1345.441836547597	1
2	1647	1346.238865734094	0
2	1657	1348.294622849535	1
2	1658	1349.17147602189	0
2	1675	1360.281827283842	1
2	1676	1361.058519466376	0
2	1680	1361.081837647003	1
2	1681	1361.949264378535	0
2	1695	1365.637709253531	1
2	1696	1366.361330068473	0
2	1710	1370.982217705461	1
2	1711	1371.731330131525	0
2	1745	1399.939251954187	1
2	1746	1400.635134295965	0
2	1755	1401.761395282862	1
2	1756	1402.903557206815	0
2	1760	1403.138192565757	1
2	1761	1404.016239349296	0
2	1825	1444.597392312266	1
2	1826	1444.66550933911	0
2	1840	1449.190046586219	1
2	1841	1449.710135028061	0
2	1900	1497.872236710064	1
2	1901	1498.515383297306	0
2	1930	1522.993775169633	1
2	1932	1523.381582008392	2
2	1933	1523.721696248007	1
2	1937	1523.764978075315	2
2	1938	1524.634822262739	1
2	1941	1525.482510519316	0
2	1970	1575.744649503768	1
2	1971	1576.71520829836	0
2	2085	1705.074279489136	1
2	2086	1705.59637061287	0
2	2120	1748.979003184112	1
2	2121	1749.564592178189	0
2	2195	1824.459531255159	1
2	2196	1825.309490196192	0
2	2215	1860.520197809383	1
2	2216	1860.806260186962	0
2	2285	1943.350543304022	1
2	2286	1944.203659850343	0
2	2430	2045.042582045377	1
2	2431	2045.485006659449	0
2	2450	2056.608222273974	1
2	2451	2056.674533801134	0
2	2465	2066.54224791349	1
2	2466	2066.774811742452	0
2	2475	2068.479012067532	1
2	2476	2069.021109606402	0
2	2524	2090.130477175231	1
2	2525	2090.259959212415	0
2	2547	2094.848690039913	1
2	2548	2095.160132542629	0
2	2570	2100.00279493399	1
2	2571	2100.98577754056	0
2	2580	2102.513477321651	1
2	2582	2102.912828134399	2
2	2583	2103.014801729785	1
2	2587	2103.100107366986	2
2	2588	2103.956683892978	1
2	2594	2104.769218187336	2
2	2595	2105.126174634544	1
2	2598	2106.314632452687	0
2	2602	2106.401409574389	1
2	2605	2107.140740157885	0
2	2615	2109.17311113581	1
2	2616	2109.92148743415	0
2	2625	2114.288065287997	1
2	2626	2115.273678341487	0
2	2657	2142.433685280097	1
2	2658	2143.302326292336	0
2	2685	2179.561793328409	1
2	2686	2179.827858065916	0
2	2705	2201.791923403764	1
2	2706	2202.91341061322	0
2	2780	2280.970302540006	1
2	2781	2281.045919685343	0
2	2790	2283.802992528024	1
2	2791	2284.013980260125	0
2	2855	2347.764333074917	1
2	2856	2348.318021640428	0
2	2872	2350.43346459219	1
2	2873	2351.202658480652	0
2	2890	2366.949043352349	1
2	2891	2367.78634293955	0
2	3000	2497.238953577604	1
2	3001	2497.96207406787	0
2	3045	2542.517571195258	1
2	3046	2542.8176090081	0
2	3130	2633.477738786669	1
2	3131	2633.558397721352	0
2	3195	2693.602124011622	1
2	3196	2694.153732527119	0
2	3210	2701.070194914174	1
2	3213	2701.872630714705	0
2	3240	2715.353119404202	1
2	3241	2716.02858777572	0
2	3245	2716.435457354079	1
2	3246	2717.172188138818	0
2	3250	2717.833579216978	1
2	3251	2718.156249480085	0
2	3260	2723.600041267791	1
2	3261	2723.757494169042	0
2	3277	2726.037124512153	1
2	3279	2726.217370813249	2
2	3281	2726.310587347099	3
2	3282	2726.907606463354	2
2	3287	2727.918755219724	1
2	3290	2728.920981649157	0
2	3310	2754.22206730002	1
2	3311	2754.771562286758	0
2	3325	2791.426955447289	1
2	3326	2791.766370578019	0
2	3385	2833.65099870055	1
2	3387	2834.239793747375	2
2	3388	2834.338793102236	1
2	3391	2835.240943017093	0
2	3430	2881.24142744649	1
2	3431	2881.358492715881	0
2	3520	2966.801262719006	1
2	3521	2967.312592181921	0
2	3525	2967.80429644694	1
2	3526	2968.320231156409	0
2	3540	2980.010874998126	1
2	3542	2980.305764951092	2
2	3543	2980.748441494682	1
2	3546	2981.913890726452	0
2	3585	3009.062770889438	1
2	3586	3009.223663806803	0
2	3605	3029.333028573401	1
2	3606	3029.658072285619	0
2	3610	3030.049052302846	1
2	3611	3030.471352342967	0
2	3650	3092.698895749282	1
2	3651	3093.083357770782	0
2	3655	3093.905753767366	1
2	3656	3094.092112966295	0
2	3685	3117.115002370731	1
2	3686	3117.616058330421	0
2	3690	3118.278559596375	1
2	3691	3118.42533502625	0
2	3695	3119.106247197749	1
2	3696	3119.280018472389	0
2	3700	3119.649950749954	1
2	3701	3120.316462964282	0
2	3720	3146.255984585158	1
2	3721	3147.112157144538	0
2	3760	3169.932783367486	1
2	3761	3170.001412413435	0
2	3772	3171.836363153973	1
2	3774	3171.945687494737	2
2	3775	3172.24457011612	1
2	3778	3173.122021749409	0
2	3815	3204.898973629717	1
2	3816	3205.787863138701	0
2	3820	3205.897122542396	1
2	3821	3206.821516155741	0
2	3830	3210.964394576347	1
2	3832	3211.653691787575	2
2	3833	3211.662616941353	1
2	3836	3212.671422104371	0
2	3840	3212.839257360616	1
2	3843	3213.523528364786	0
2	3850	3214.502114772629	1
2	3851	3215.532818983794	0
2	3875	3243.958692168392	1
2	3876	3244.64763825523	0
2	3950	3305.358700345611	1
2	3951	3305.634591037953	0
2	3965	3308.64331237288	1
2	3966	3309.517664034086	0
2	3980	3312.825927485648	1
2	3981	3313.42802076222	0
2	4000	3323.157983915789	1
2	4001	3324.178440013816	0
2	4030	3339.693317800243	1
2	4031	3339.785976315796	0
2	4035	3339.860916255265	1
2	4038	3340.790299165848	0
2	4047	3341.987922130365	1
2	4048	3342.739649429771	0
2	4065	3353.05292323895	1
2	4066	3353.06951131525	0
2	4150	3405.966610773715	1
2	4151	3406.702156951015	0
2	4542	3710.630493794094	1
2	4543	3710.974989608738	0
2	4600	3739.089342356034	1
2	4601	3739.729339691704	0
2	4675	3786.939325608112	1
2	4676	3787.192891111113	0
2	4700	3802.40515363028	1
2	4701	3802.601979813935	0
2	4725	3822.573753791164	1
2	4726	3822.928912139765	0
2	4735	3825.16936837944	1
2	4736	3825.521133451787	0
2	4740	3826.250220990165	1
2	4741	3826.61555961796	0
2	4750	3829.213995412144	1
2	4751	3829.63375354959	0
2	4755	3829.762378516807	1
2	4756	3830.800006853513	0
2	4802	3850.942462420709	1
2	4803	3851.03090665558	0
2	4810	3852.841466055785	1
2	4811	3852.890454097871	0
2	4820	3855.634974883804	1
2	4821	3855.714177857627	0
2	4905	3998.602322300141	1
2	4906	3998.908918105276	0
2	4940	4021.74910243922	1
2	4941	4022.659228533649	0
2	4975	4064.893127185698	1
2	4976	4066.012732214421	0
2	4980	4066.601846041657	1
2	4981	4067.151304871529	0
2	5035	4112.984220140259	1
2	5038	4113.554009438445	0
2	5065	4122.323816270055	1
2	5066	4122.83723705041	0
2	5095	4147.377017402557	1
2	5096	4147.826463896514	0
2	5100	4148.863999509528	1
2	5101	4149.004293855012	0
2	5125	4161.956823651146	1
2	5126	4162.485973569409	0
2	5140	4165.157363252415	1
2	5141	4166.09188784738	0
2	5150	4172.417071713053	1
2	5151	4173.318364679699	0
2	5160	4175.08838961042	1
2	5161	4175.537461903671	0
2	5180	4183.338673462246	1
2	5181	4183.988597882902	0
2	5190	4185.293340543271	1
2	5192	4185.747301592563	2
2	5193	4185.761247549837	1
2	5196	4186.946303082702	0
2	5240	4239.340975027696	1
2	5241	4239.613230566219	0
2	5290	4285.648178122729	1
2	5291	4285.953875282743	0
2	5365	4344.137764939686	1
2	5366	4344.827385341755	0
2	5380	4350.7612548418	1
2	5381	4351.227754650895	0
2	5430	4383.740387104349	1
2	5431	4383.849658087171	0
2	5445	4388.824302043912	1
2	5446	4389.179745199339	0
2	5470	4415.34972431047	1
2	5471	4415.536799381743	0
2	5490	4426.923460961774	1
2	5491	4427.335032692	0
2	5495	4428.263989189782	1
2	5496	4428.266159259442	0
2	5507	4429.905597976606	1
2	5508	4429.986594604801	0
2	5545	4446.14390114841	1
2	5548	4446.796062049322	0
2	5555	4447.880664594737	1
2	5557	4448.681324397589	2
2	5558	4448.96818403402	1
2	5561	4449.927162689861	0
2	5565	4450.154860055262	1
2	5566	4450.920082680095	0
2	5595	4489.353244197019	1
2	5596	4489.986179761101	0
2	5655	4516.423590988296	1
2	5656	4517.097415862295	0
2	5680	4524.185089980037	1
2	5681	4524.965041043303	0
2	5715	4549.168092246639	1
2	5716	4549.905387988457	0
2	5722	4550.960639359432	1
2	5723	4551.002950114527	0
2	5780	4603.934785918858	1
2	5781	4604.927126941208	0
2	5805	4642.629397037095	1
2	5806	4643.279206772258	0
2	5845	4714.296319957151	1
2	5846	4714.870771601735	0
2	5870	4720.457330144252	1
2	5871	4721.1741865789	0
2	5885	4735.2178791049	1
2	5887	4735.505349787461	2
2	5888	4735.625392748031	1
2	5891	4736.70448904623	0
2	5945	4787.864053596011	1
2	5946	4788.736074989069	0
2	6000	4806.267937526891	1
2	6001	4806.424196019009	0
2	6035	4856.480814808725	1
2	6036	4857.452076608099	0
2	6075	4873.875000777141	1
2	6076	4874.746392656532	0
2	6130	4926.375124314513	1
2	6133	4927.506970064909	0
2	6195	4960.114149428874	1
2	6196	4960.523275165935	0
2	6200	4960.827246817417	1
2	6201	4961.327577080973	0
2	6245	4998.605169560568	1
2	6246	4999.150201246282	0
2	6260	5007.40336912779	1
2	6261	5007.40958199715	0
2	6325	5059.591443867732	1
2	6326	5059.66321932232	0
2	6417	5120.748578838846	1
2	6418	5121.090820221055	0
2	6470	5191.191176268416	1
2	6471	5191.205615350265	0
2	6505	5231.501535181041	1
2	6507	5231.93097898669	2
2	6508	5231.938649386629	1
2	6512	5231.986982701178	2
2	6513	5233.083831264447	1
2	6516	5234.215602885369	0
2	6525	5235.6630746284	1
2	6526	5236.696247157871	0
2	6530	5236.936298577417	1
2	6531	5237.741218781701	0
2	6540	5242.17996348301	1
2	6541	5242.59662320603	0
2	6560	5264.234878532868	1
2	6561	5265.030750566358	0
2	6570	5281.49286120575	1
2	6571	5281.607547639668	0
2	6585	5292.61589035602	1
2	6586	5293.407333927665	0
2	6595	5294.482275647593	1
2	6596	5295.181570354726	0
2	6700	5374.55411329787	1
2	6701	5374.924967291701	0
2	6760	5417.883677066688	1
2	6761	5418.296296847997	0
2	6765	5418.78798096916	1
2	6766	5419.425073626557	0
2	6770	5419.715085135713	1
2	6771	5420.49401168899	0
2	6830	5462.909443773759	1
2	6832	5463.376008839955	2
2	6833	5463.470949580579	1
2	6836	5464.372412853747	0
2	6855	5477.821581912676	1
2	6856	5478.264463522743	0
2	6875	5491.612504525034	1
2	6877	5491.803091526387	2
2	6878	5492.10020223725	1
2	6883	5493.070697647607	0
2	7025	5624.281616435239	1
2	7026	5624.860453846639	0
2	7165	5787.504706799306	1
2	7166	5787.850093228212	0
2	7235	5851.762327004474	1
2	7236	5852.480602746931	0
2	7250	5855.77742491062	1
2	7251	5856.339603398669	0
2	7330	5919.071953936847	1
2	7331	5919.601836112132	0
2	7335	5920.43149314456	1
2	7338	5920.634975471431	0
2	7355	5926.215460485731	1
2	7358	5926.751949697071	0
2	7420	5975.248234930234	1
2	7421	5975.735008399743	0
2	7435	5982.291009210287	1
2	7436	5983.131627084911	0
2	7455	5993.548415932202	1
2	7457	5994.022488241456	2
2	7458	5994.037351967876	1
2	7463	5994.961501154413	0
2	7480	6009.78114369647	1
2	7481	6009.929664013975	0
2	7487	6010.500680706886	1
2	7488	6010.907531520699	0
2	7495	6012.400325836613	1
2	7496	6013.020410515529	0
2	7515	6027.470920603449	1
2	7516	6027.751890408407	0
2	7520	6028.338976556272	1
2	7521	6028.852094032868	0
2	7580	6094.065216406455	1
2	7581	6094.607383052462	0
2	7600	6102.119858054543	1
2	7602	6102.45382502988	2
2	7603	6102.831373161379	1
2	7606	6103.916797705948	0
2	7652	6129.848440501484	1
2	7653	6130.177388533455	0
2	7700	6163.820210960672	1
2	7703	6164.403962239895	0
2	7780	6238.50612393087	1
2	7781	6239.259931478281	0
2	7850	6303.115202864835	1
2	7851	6303.342788442056	0
2	7855	6303.521544757875	1
2	7856	6304.200509285572	0
2	7870	6308.481431543983	1
2	7871	6309.253298500755	0
2	7885	6339.827601847891	1
2	7886	6339.953712771121	0
2	7910	6355.754586523847	1
2	7911	6356.742241646401	0
2	7935	6390.971863553911	1
2	7936	6391.421871471977	0
2	7965	6401.934404864607	1
2	7966	6402.001406202975	0
2	7970	6402.380004234672	1
2	7971	6403.020283400963	0
2	7975	6403.245720956275	1
2	7976	6403.960580752927	0
2	7985	6405.547687406878	1
2	7986	6405.623988286823	0
2	8180	6613.414617736623	1
2	8183	6613.79378934175	0
2	8187	6614.040019187874	1
2	8189	6614.662806550484	2
2	8190	6614.927247535793	1
2	8193	6615.996326713154	0
2	8215	6624.350819657692	1
2	8216	6624.735289973945	0
2	8235	6628.107086417507	1
2	8236	6629.130422712395	0
2	8265	6648.449823281632	1
2	8266	6648.978861576451	0
2	8350	6700.935565514371	1
2	8351	6701.174803687461	0
2	8400	6742.829971046683	1
2	8401	6743.119311962588	0
2	8440	6795.320812918469	1
2	8441	6795.886122595148	0
2	8480	6825.220920156438	1
2	8481	6825.771940100995	0
2	8485	6826.016715401651	1
2	8486	6826.660205677209	0
2	8495	6828.239489567614	1
2	8496	6828.556735696607	0
2	8500	6829.541704762989	1
2	8501	6829.545304053799	0
2	8665	6987.221061496157	1
2	8666	6987.222711536529	0
2	8670	6988.019713396203	1
2	8671	6988.386673504821	0
2	8685	6999.229606383054	1
2	8686	6999.669117724391	0
2	8705	7007.953366769423	1
2	8706	7008.56965404741	0
2	8720	7021.468971670201	1
2	8721	7022.344950772974	0
2	8740	7041.748586416462	1
2	8741	7042.705631708655	0
2	8750	7044.208379343174	1
2	8751	7044.73176556269	0
2	8770	7050.940489068855	1
2	8771	7051.103173164983	0
2	8775	7051.892510898513	1
2	8778	7052.218056250137	0
2	8790	7054.424524390174	1
2	8791	7055.226599117353	0
2	8800	7058.087860478732	1
2	8801	7058.874092563848	0
2	8825	7080.189373207501	1
2	8827	7080.349901250094	2
2	8828	7080.959451924354	1
2	8832	7081.289256506866	2
2	8833	7081.786723144442	1
2	8836	7082.622747021817	0
2	8845	7083.781327779506	1
2	8846	7084.512249269915	0
2	8860	7086.779774138369	1
2	8861	7087.348655169383	0
2	8870	7088.764215823441	1
2	8871	7089.475370882936	0
2	8880	7095.78136359558	1
2	8881	7095.856611706046	0
2	8895	7099.419433162221	1
2	8896	7100.418731685635	0
2	8920	7113.811757957665	1
2	8921	7114.6000567867	0
2	8937	7122.902060225332	1
2	8938	7123.224222792173	0
2	8955	7128.769074937852	1
2	8956	7129.042777133048	0
2	8970	7139.332293692935	1
2	8971	7139.664789711431	0
2	8980	7142.330681656106	1
2	8981	7142.885788519531	0
2	9005	7158.05338315446	1
2	9006	7158.317714192873	0
2	9015	7160.52161201081	1
2	9016	7160.774602477847	0
2	9045	7174.84737757238	1
2	9047	7174.877415731523	2
2	9048	7175.052822472676	1
2	9051	7175.862137897834	0
2	9090	7188.092725053774	1
2	9091	7188.804865819248	0
2	9310	7391.171562966146	1
2	9311	7391.366590404511	0
2	9345	7412.016179430533	1
2	9346	7412.641083289487	0
2	9380	7466.699867104093	1
2	9381	7467.413706374045	0
2	9395	7480.102826275644	1
2	9396	7480.711959149063	0
2	9425	7510.735872098552	1
2	9426	7511.569024157551	0
2	9440	7534.939685631548	1
2	9441	7535.149571962693	0
2	9450	7537.725251035145	1
2	9451	7538.456603183388	0
2	9485	7564.467983218961	1
2	9486	7564.772530868189	0
2	9495	7566.907469084602	1
2	9496	7567.091275334077	0
2	9505	7568.655815834053	1
2	9506	7569.169820394738	0
2	9625	7683.598647830155	1
2	9626	7683.719179960133	0
2	9630	7684.249843294453	1
2	9631	7684.590138713343	0
2	9640	7689.732950282116	1
2	9641	7689.825228950608	0
2	9655	7692.812063143736	1
2	9656	7693.181183085532	0
2	9675	7716.28453517657	1
2	9676	7716.352938624938	0
2	9695	7730.798647678985	1
2	9696	7730.987159536707	0
2	9705	7733.648573311445	1
2	9706	7734.066690042394	0
2	9805	7830.528298412434	1
2	9806	7830.570898625401	0
2	9815	7832.630497980573	1
2	9816	7833.432352917484	0
2	9825	7835.367531371804	1
2	9826	7836.123507394545	0
2	9835	7849.042817498451	1
2	9836	7849.675720292598	0
2	9845	7850.939083576104	1
2	9846	7852.004488777038	0
2	9850	7852.735339286575	1
2	9851	7853.202039009188	0
2	9905	7877.69590000855	1
2	9906	7877.8716865968	0
2	9920	7887.901645019504	1
2	9921	7889.059006502764	0
2	10027	7967.693312214242	1
2	10030	7968.494446307702	0
2	10040	7970.70462341464	1
2	10041	7971.341869054084	0
2	10050	7972.598921093706	1
2	10051	7973.49832653748	0
2	10090	8000.031634845714	1
2	10091	8000.976119033538	0
2	10115	8010.822473000458	1
2	10117	8011.073064121325	2
2	10118	8011.209552042727	1
2	10122	8011.364439594736	2
2	10123	8012.218742644303	1
2	10126	8013.326296888646	0
2	10150	8042.728834358995	1
2	10152	8042.855847537647	2
2	10153	8043.729999372126	1
2	10156	8044.663615651937	0
2	10185	8062.044722725876	1
2	10186	8062.773322505541	0
2	10210	8104.084238722063	1
2	10211	8104.666886973662	0
2	10215	8105.154506193216	1
2	10217	8105.184681585861	2
2	10218	8105.609447535501	1
2	10221	8106.536486478244	0
2	10265	8138.657021005985	1
2	10266	8139.010127679566	0
2	10280	8143.461154947323	1
2	10281	8144.211954044128	0
2	10365	8217.869078295323	1
2	10366	8218.106575227153	0
2	10390	8232.119028509423	1
2	10391	8232.301753376506	0
2	10395	8232.859918682622	1
2	10396	8233.151518417418	0
2	10405	8236.807801497707	1
2	10406	8236.908975804786	0
2	10505	8347.036875423732	1
2	10506	8347.919973189835	0
2	10510	8347.961927145037	1
2	10511	8349.006643857979	0
2	10610	8437.794960644008	1
2	10613	8438.356048194749	0
2	10620	8440.211179096796	1
2	10621	8440.523028395662	0
2	10625	8440.726882857827	1
2	10628	8441.523817047814	0
2	10632	8442.052455980471	1
2	10633	8442.432046011707	0
2	10637	8443.071662897538	1
2	10638	8443.423614022007	0
2	10675	8462.402902648826	1
2	10676	8462.472766071364	0
2	10725	8493.43759511927	1
2	10726	8494.076865996657	0
2	10732	8494.674888855952	1
2	10733	8495.227339692371	0
2	10745	8497.956304503347	1
2	10746	8497.98017265468	0
2	10775	8524.307077748455	1
2	10779	8524.615189294715	2
2	10780	8524.895102492436	1
2	10784	8525.895764468045	2
2	10785	8525.931452439721	1
2	10788	8526.967532487023	0
2	10797	8528.880684943393	1
2	10798	8529.012591176755	0
2	10845	8559.109611534243	1
2	10846	8559.440654776617	0
2	10850	8559.791813787817	1
2	10851	8560.284550326596	0
2	10855	8560.68362216319	1
2	10856	8561.39795412002	0
2	10870	8570.293789167315	1
2	10871	8570.766802413622	0
2	10910	8600.189852776744	1
2	10912	8600.220135570774	2
2	10913	8600.919430882884	1
2	10916	8601.733118985621	0
2	10935	8607.936965657627	1
2	10936	8608.943147340944	0
2	10990	8638.504877406419	1
2	10994	8638.794905951373	2
2	10995	8638.99138005805	1
2	10998	8640.07001223332	0
2	11025	8653.798683579775	1
2	11026	8654.707189773116	0
2	11030	8654.920865653613	1
2	11031	8655.779350091051	0
2	11095	8714.215733832967	1
2	11096	8715.018552932672	0
2	11102	8716.011076814831	1
2	11103	8716.038118011474	0
2	11107	8716.447988144321	1
2	11108	8716.853326733473	0
2	11170	8798.938546211399	1
2	11171	8799.304494666768	0
2	11180	8804.084942232444	1
2	11181	8804.408552483693	0
2	11195	8831.700078719325	1
2	11196	8832.194859224057	0
2	11215	8835.778583295632	1
2	11216	8836.038339381164	0
2	11220	8836.289921239806	1
2	11222	8836.330838373493	2
2	11223	8836.878195114678	1
2	11226	8837.88734823676	0
2	11235	8839.803415171306	1
2	11238	8840.366514445695	0
2	11275	8871.858365939185	1
2	11276	8872.130572051478	0
2	11297	8875.856281655871	1
2	11298	8876.687588579586	0
2	11330	8892.073466698241	1
2	11332	8892.173474033817	2
2	11333	8892.498483250466	1
2	11336	8893.462474174601	0
2	11345	8896.233404916701	1
2	11346	8896.33025908002	0
2	11365	8906.648769594033	1
2	11366	8907.003337285843	0
2	11375	8911.0114309255	1
2	11376	8911.684219103565	0
2	11395	8922.085440807701	1
2	11396	8922.219571555588	0
2	11405	8930.264727412216	1
2	11406	8930.560411555254	0
2	11440	8947.035590174924	1
2	11441	8947.697212931757	0
2	11450	8949.342502633069	1
2	11451	8949.588576406151	0
2	11485	8979.955148845928	1
2	11486	8981.02475775994	0
2	11610	9085.071441897159	1
2	11611	9085.449885215236	0
2	11655	9137.575037570904	1
2	11656	9138.088211134593	0
2	11675	9146.921460826716	1
2	11677	9146.995711771535	2
2	11678	9147.534077262388	1
2	11682	9148.001271747261	2
2	11683	9148.352587552437	1
2	11686	9149.157371659459	0
2	11690	9149.741735097969	1
2	11691	9150.15504798896	0
2	11725	9177.26551756362	1
2	11726	9177.662746502407	0
2	11730	9177.808730023018	1
2	11731	9178.610174326081	0
2	11790	9227.844467136635	1
2	11791	9228.852099390554	0
2	11825	9255.003516681784	1
2	11826	9255.161352003763	0
2	11880	9281.159175208123	1
2	11881	9281.607670887327	0
2	11920	9321.310303544624	1
2	11921	9321.405689830297	0
2	11960	9373.767863686852	1
2	11961	9374.036626885944	0
2	11975	9400.569984101521	1
2	11976	9400.669324594978	0
2	12035	9466.319381203848	1
2	12036	9466.717768791604	0
2	12040	9466.912213258903	1
2	12041	9467.532600738394	0
2	12050	9470.506063546816	1
2	12051	9471.170196106077	0
2	12070	9502.917724048512	1
2	12071	9503.315665588951	0
2	12090	9508.472261158887	1
2	12091	9508.498098762374	0
2	12110	9526.619214980595	1
2	12111	9527.441730723088	0
2	12160	9564.490131311167	1
2	12161	9564.765910385235	0
2	12215	9633.936169098754	1
2	12218	9634.684137667942	0
2	12240	9666.389684391829	1
2	12241	9666.504918384116	0
2	12250	9668.879507617874	1
2	12251	9669.418244971784	0
2	12310	9744.160881353683	1
2	12313	9745.091024208952	0
2	12317	9745.840690004279	1
2	12318	9746.259595375181	0
2	12322	9746.388706665547	1
2	12325	9747.296559460693	0
2	12329	9747.666831736401	1
2	12330	9748.217164087155	0
2	12337	9749.492405971224	1
2	12340	9749.979271602769	0
2	12347	9750.902630768128	1
2	12348	9751.669683385406	0
2	12395	9813.042104684831	1
2	12398	9813.516706575646	0
2	12440	9840.397591475644	1
2	12443	9841.167560353005	0
2	12455	9846.387015089374	1
2	12456	9847.477438749952	0
2	12460	9848.012503391923	1
2	12461	9848.571607541406	0
2	12540	9922.848173200676	1
2	12541	9923.1502680806	0
2	12560	9931.376541301295	1
2	12561	9932.004418323329	0
2	12570	9933.466217619973	1
2	12571	9933.80234481958	0
2	12610	9952.32452405565	1
2	12611	9952.596750793976	0
2	12615	9952.601721524992	1
2	12618	9953.398487486129	0
2	12630	9958.134393096128	1
2	12631	9958.993092265309	0
2	12660	9969.482328925179	1
2	12661	9969.520588619614	0
2	12735	10021.678727636455	1
2	12736	10022.66732798509	0
2	12760	10059.245917824812	1
2	12761	10060.218530600605	0
2	12790	10095.819203931528	1
2	12791	10096.62661928215	0
2	12800	10110.974089979906	1
2	12803	10111.848673675969	0
2	12885	10178.217883346456	1
2	12886	10179.073811959678	0
2	12895	10202.288528502028	1
2	12896	10203.068703393122	0
2	12987	10323.711838159096	1
2	12988	10324.309144480666	0
2	12994	10325.378506805427	1
2	12995	10325.475658018282	0
2	13055	10377.224484644347	1
2	13056	10377.938556425636	0
2	13085	10387.799458860978	1
2	13086	10388.791992068955	0
2	13110	10409.924022575459	1
2	13111	10410.888481998402	0
2	13160	10451.199360365345	1
2	13161	10452.16662660671	0
2	13175	10464.220744310971	1
2	13176	10465.322856395493	0
2	13195	10475.748838200579	1
2	13196	10476.239506343144	0
2	13200	10476.774206515541	1
2	13203	10477.304009994256	0
2	13232	10486.291298323311	1
2	13233	10486.800820972639	0
2	13300	10544.348925197338	1
2	13301	10544.992312759703	0
2	13330	10556.697136846853	1
2	13331	10556.836963249499	0
2	13375	10594.106977488368	1
2	13377	10594.750914136584	2
2	13378	10594.82646489193	1
2	13382	10594.936791988133	2
2	13383	10595.702101584089	1
2	13386	10596.604027295609	0
2	13392	10597.48659672554	1
2	13393	10597.797109516461	0
2	13420	10616.001662812381	1
2	13421	10617.137487561219	0
2	13490	10677.072803074198	1
2	13491	10677.466897555079	0
2	13565	10729.757017328329	1
2	13568	10730.748950243742	0
2	13640	10783.481835612694	1
2	13641	10784.488005850905	0
2	13680	10827.481777476921	1
2	13683	10827.70751658555	0
2	13690	10828.980338401522	1
2	13693	10829.755470107197	0
2	13740	10865.041515649386	1
2	13741	10865.905652939202	0
2	13745	10866.634232078874	1
2	13747	10866.657748653123	2
2	13748	10867.090537407575	1
2	13751	10868.08940222715	0
2	13780	10879.671936084941	1
2	13782	10880.229554557896	2
2	13783	10880.270378080363	1
2	13786	10881.090838072522	0
2	13800	10884.097017076004	1
2	13801	10884.664343338622	0
2	13875	10939.768807211378	1
2	13876	10940.84700825022	0
2	13880	10941.962145154547	1
2	13881	10941.992577052241	0
2	13890	10949.991731229069	1
2	13892	10950.639319697577	2
2	13893	10950.679811042606	1
2	13896	10951.85593091246	0
2	13915	10967.864270569785	1
2	13916	10968.180681712986	0
2	13960	11027.853671526847	1
2	13961	11028.345271459019	0
2	13970	11037.667186929824	1
2	13971	11038.740349385939	0
2	14020	11084.16624000019	1
2	14021	11085.307909994247	0
2	14120	11157.379634279238	1
2	14121	11157.548873444663	0
2	14125	11158.069851229657	1
2	14126	11158.60641439894	0
2	14145	11172.488918190322	1
2	14146	11172.727547649496	0
2	14205	11207.234355961052	1
2	14208	11208.089546424058	0
2	14220	11215.718874411672	1
2	14221	11216.144788782181	0
2	14225	11217.15685486256	1
2	14226	11217.285303479222	0
2	14295	11271.165176878774	1
2	14296	11271.771039851999	0
2	14315	11280.227142221039	1
2	14316	11280.504913492008	0
2	14340	11292.223508576885	1
2	14341	11292.845794572859	0
2	14355	11303.435690146982	1
2	14356	11303.897205211597	0
2	14380	11339.109385660164	1
2	14381	11339.458805228196	0
2	14535	11505.31801377287	1
2	14536	11505.804782421373	0
2	14540	11506.131413269452	1
2	14541	11506.769323411443	0
2	14552	11508.949138622306	1
2	14553	11509.101667399191	0
2	14625	11595.679644043665	1
2	14626	11595.996541325641	0
2	14630	11596.934014159361	1
2	14631	11597.023610116528	0
2	14665	11630.833652076389	1
2	14666	11631.47956626566	0
2	14675	11633.089321036069	1
2	14676	11634.056582907424	0
2	14765	11711.604819428354	1
2	14766	11711.792230777383	0
2	14780	11720.461834582288	1
2	14781	11720.847803035096	0
2	14820	11793.320975649657	1
2	14821	11793.340974327124	0
2	14875	11814.669517551635	1
2	14876	11815.258467958551	0
2	14980	11898.497749124933	1
2	14981	11899.130933739519	0
2	14990	11909.867702637531	1
2	14991	11910.152714144162	0
2	15045	11980.473234451744	1
2	15046	11981.369286865518	0
2	15055	11982.558702669764	1
2	15056	11983.369503123323	0
2	15115	12029.976307329015	1
2	15116	12030.294804722567	0
2	15135	12057.276021908347	1
2	15136	12057.868216879808	0
2	15190	12118.613812783993	1
2	15191	12118.993629789163	0
2	15260	12183.821678434431	1
2	15261	12184.169159538896	0
2	15265	12184.930803899034	1
2	15266	12185.208600446248	0
2	15277	12187.196346755501	1
2	15278	12187.431450828762	0
2	15305	12199.870296132327	1
2	15306	12200.657318423201	0
2	15345	12216.435629779242	1
2	15346	12216.477735455969	0
2	15350	12217.401710545725	1
2	15351	12217.453653324006	0
2	15435	12293.603400845837	1
2	15436	12294.085127583623	0
2	15455	12305.114485780021	1
2	15456	12305.228126410111	0
2	15490	12321.70676339915	1
2	15491	12322.670269166654	0
2	15535	12336.391534077326	1
2	15536	12336.482156167695	0
2	15560	12373.175582402375	1
2	15561	12373.532193891435	0
2	15595	12394.724858792688	1
2	15596	12394.99803737642	0
2	15650	12428.503935173875	1
2	15651	12429.45011089069	0
2	15660	12434.578534494145	1
2	15661	12434.590607665972	0
2	15665	12434.700842744239	1
2	15666	12435.582304290709	0
2	15695	12464.546697524547	1
2	15696	12465.414395336351	0
2	15705	12468.092435197276	1
2	15706	12468.151639600624	0
2	15740	12486.808365398305	1
2	15741	12487.839316734507	0
2	15770	12512.066179799857	1
2	15771	12512.91192006081	0
2	15790	12535.589800836882	1
2	15791	12536.084220425473	0
2	15825	12572.272317425845	1
2	15826	12572.723009751108	0
2	15845	12580.425465152553	1
2	15846	12580.867588323184	0
2	15905	12646.897281275907	1
2	15906	12646.976175532908	0
2	15930	12657.998906714719	1
2	15931	12659.122501899613	0
2	16000	12699.103300320185	1
2	16001	12699.261958620143	0
2	16055	12776.026932789155	1
2	16056	12776.263123757515	0
2	16085	12803.127809939471	1
2	16086	12803.560249976757	0
2	16165	12881.373640493395	1
2	16166	12882.157575354691	0
2	16170	12883.072814844404	1
2	16171	12883.1530411719	0
2	16187	12907.931268287684	1
2	16188	12908.222151635967	0
2	16235	12958.551375374888	1
2	16236	12959.045272481846	0
2	16245	12962.742291153692	1
2	16246	12963.494162702353	0
2	16325	13029.661644282531	1
2	16326	13030.653637085435	0
2	16335	13031.89826904744	1
2	16336	13032.423220216715	0
2	16340	13032.564282757047	1
2	16342	13032.776399243846	2
2	16344	13032.83793466218	3
2	16345	13033.335225053457	2
2	16348	13034.487820090772	1
2	16352	13034.5156606735	2
2	16353	13035.556523965904	1
2	16356	13036.666211035242	0
2	16405	13082.048836134418	1
2	16407	13082.740728644673	2
2	16408	13083.000289049646	1
2	16411	13083.858483479353	0
2	16485	13156.405661446542	1
2	16486	13156.98082594414	0
2	16490	13157.191157212659	1
2	16493	13157.982176295749	0
2	16497	13158.453817960587	1
2	16498	13159.099769150826	0
2	16615	13252.548894695927	1
2	16616	13252.752170137503	0
2	16620	13252.948439040475	1
2	16622	13253.116326510117	2
2	16623	13253.939529470914	1
2	16628	13254.812358866633	0
2	16635	13256.117353805902	1
2	16636	13256.899326436316	0
2	16645	13258.31024469697	1
2	16647	13258.695685236011	2
2	16648	13259.022316184082	1
2	16653	13259.847717706674	0
2	16680	13270.778528927823	1
2	16681	13270.847770733768	0
2	16685	13271.050451494005	1
2	16686	13271.894827981489	0
2	16720	13317.742510148068	1
2	16721	13317.762332865263	0
2	16785	13390.564864335498	1
2	16786	13390.762345710561	0
2	16790	13391.717675912473	1
2	16791	13391.934650946107	0
2	16862	13440.012694498969	1
2	16863	13440.106531482556	0
2	17000	13612.299132193031	1
2	17001	13613.290639817255	0
2	17010	13617.860151547898	1
2	17011	13618.087826523604	0
2	17095	13716.29624207267	1
2	17096	13716.738629439723	0
2	17100	13717.472392773267	1
2	17103	13717.859181240823	0
2	17170	13776.804332407218	1
2	17171	13777.145361518322	0
2	17290	13905.71480755878	1
2	17291	13906.303178495716	0
2	17295	13906.71742829194	1
2	17296	13907.471160992317	0
2	17305	13909.059423022611	1
2	17306	13910.000411224219	0
2	17310	13910.317240158992	1
2	17311	13910.906079647171	0
2	17320	13915.337207801719	1
2	17321	13916.416828515143	0
2	17335	13924.778825074505	1
2	17336	13924.81515358193	0
2	17390	13960.119353498248	1
2	17391	13960.79531625043	0
2	17405	13965.554519019403	1
2	17406	13966.156876259592	0
2	17410	13967.149813025827	1
2	17411	13967.30704733824	0
2	17455	13985.698550924588	1
2	17456	13986.295983989448	0
2	17595	14107.513919938219	1
2	17596	14107.825045937157	0
2	17630	14139.799317214351	1
2	17631	14140.457635241971	0
2	17665	14159.764829293581	1
2	17666	14159.93639546639	0
2	17700	14200.037928864237	1
2	17701	14200.740310911847	0
2	17725	14212.782288060367	1
2	17727	14212.854788622883	2
2	17728	14213.198567457064	1
2	17731	14214.291669396716	0
2	17750	14238.528124427863	1
2	17753	14239.262264307732	0
2	17785	14269.651024044556	1
2	17786	14270.246743838798	0
2	17820	14317.710243055184	1
2	17821	14317.716308103511	0
2	17825	14318.073642208127	1
2	17828	14318.849565979941	0
2	17837	14320.49898179311	1
2	17839	14320.552208616001	2
2	17840	14320.785546792308	1
2	17844	14321.632590311871	2
2	17845	14321.939137028912	1
2	17848	14323.097306823833	0
2	17875	14330.200550944098	1
2	17876	14330.264967396085	0
2	17920	14359.229159655184	1
2	17921	14359.464553677028	0
2	17964	14394.274271775183	1
2	17965	14394.788931108025	0
2	17969	14395.609349322901	1
2	17970	14395.645780921673	0
2	17974	14396.22531471787	1
2	17975	14396.569724923597	0
2	17985	14399.019647669975	1
2	17987	14399.1487997152	2
2	17988	14399.43728829356	1
2	17991	14400.345978302267	0
2	17995	14400.943126574561	1
2	17996	14401.351284831893	0
2	18035	14444.180150797125	1
2	18036	14444.447844222805	0
2	18060	14467.722408346324	1
2	18061	14468.39933332718	0
2	18125	14527.6419996675	1
2	18126	14528.467504687483	0
2	18190	14629.274606341857	1
2	18191	14630.27246532365	0
2	18275	14702.618417363927	1
2	18280	14703.503730466552	0
2	18320	14739.14933242181	1
2	18323	14739.655672290603	0
2	18365	14750.815274154726	1
2	18366	14751.296920777906	0
2	18405	14778.032408186877	1
2	18406	14778.626444193652	0
2	18415	14779.859285454565	1
2	18416	14780.655625329563	0
2	18485	14829.07594778119	1
2	18486	14829.253606527155	0
2	18515	14863.260281306354	1
2	18516	14863.848013529651	0
2	18525	14868.893838056537	1
2	18526	14869.203861730369	0
2	18635	14954.137732991504	1
2	18636	14954.800519349142	0
2	18655	14962.212973474079	1
2	18656	14962.658719763223	0
2	18815	15102.728312367273	1
2	18816	15102.976335724344	0
2	18820	15103.057552074302	1
2	18821	15103.980155282182	0
2	18841	15114.571399739708	1
2	18842	15115.148849935336	0
2	18895	15130.997198205962	1
2	18896	15131.572923394575	0
2	18905	15133.485244857859	1
2	18906	15133.664150110108	0
2	19000	15232.150953717634	1
2	19001	15233.055014949146	0
2	19005	15233.143715445064	1
2	19006	15233.965092534612	0
2	19035	15268.119191036587	1
2	19036	15269.119225496632	0
2	19045	15272.156618214952	1
2	19046	15272.836160986778	0
2	19090	15306.462523162416	1
2	19091	15306.827105745426	0
2	19100	15315.388449241481	1
2	19101	15316.12363223255	0
2	19125	15334.700919420651	1
2	19127	15334.743697421358	2
2	19128	15335.850975180673	1
2	19136	15336.309076903875	2
2	19137	15336.768606713204	1
2	19140	15337.666546291834	0
2	19165	15345.883217081626	1
2	19166	15346.030196543623	0
2	19170	15346.875802217384	1
2	19171	15346.91146517203	0
2	19175	15347.430391045227	1
2	19176	15347.946857714958	0
2	19200	15365.878047507123	1
2	19201	15366.663852290223	0
2	19230	15403.008190297897	1
2	19231	15403.748092588695	0
2	19245	15410.119398945154	1
2	19247	15410.547232874461	2
2	19248	15410.641665902433	1
2	19252	15410.777643025719	2
2	19253	15411.673922823721	1
2	19256	15412.686636156102	0
2	19260	15413.436641970506	1
2	19261	15413.83776070669	0
2	19295	15447.344170972556	1
2	19296	15447.377146203474	0
2	19345	15480.508012798587	1
2	19347	15480.72620206467	2
2	19348	15481.541630156348	1
2	19351	15482.463858824326	0
2	19355	15482.468232203199	1
2	19357	15482.573363183087	2
2	19358	15483.317495606197	1
2	19361	15484.280072246129	0
2	19365	15484.742521606625	1
2	19366	15485.096759012258	0
2	19385	15503.682287727562	1
2	19386	15504.404303520943	0
2	19390	15504.523790194316	1
2	19391	15505.553928826961	0
2	19400	15508.490622819156	1
2	19401	15508.521834402581	0
2	19420	15534.894042215285	1
2	19421	15535.618723819186	0
2	19450	15546.729942800649	1
2	19451	15546.825997110419	0
2	19480	15582.602348774221	1
2	19481	15583.410035906977	0
2	19485	15583.696430733578	1
2	19486	15584.485137803166	0
2	19505	15613.732478370751	1
2	19506	15613.961958386868	0
2	19560	15679.879361404604	1
2	19561	15680.743308042783	0
2	19565	15681.622795392209	1
2	19566	15681.661394269626	0
2	19575	15687.871091112734	1
2	19576	15688.068244961449	0
2	19580	15688.754230727969	1
2	19581	15688.917102531702	0
2	19630	15715.493240700822	1
2	19631	15715.770523882409	0
2	19655	15740.490478585911	1
2	19656	15740.50818549822	0
2	19660	15740.523728873455	1
2	19662	15740.573391950163	2
2	19663	15741.426665482567	1
2	19666	15742.626558218048	0
2	19670	15743.233933117191	1
2	19671	15743.470807788418	0
2	19725	15777.236198263706	1
2	19726	15777.362686049308	0
2	19747	15785.764398638226	1
2	19748	15785.938521879869	0
2	19755	15787.253684210214	1
2	19758	15787.724888399573	0
2	19785	15796.780624057664	1
2	19786	15796.991594807643	0
2	19805	15820.392119032737	1
2	19806	15820.785151666102	0
2	19810	15821.076460848195	1
2	19811	15821.630776001398	0
2	19825	15837.16630623165	1
2	19826	15838.026702432174	0
2	19860	15853.864606379905	1
2	19861	15854.890130573938	0
2	19885	15868.914920984951	1
2	19886	15869.387259742703	0
2	19945	15912.656540482878	1
2	19946	15913.121119493859	0
2	19955	15925.326138348981	1
2	19956	15925.630195724084	0
2	20130	16068.281157680185	1
2	20131	16069.135862146876	0
2	20160	16080.147549373736	1
2	20161	16080.743605808448	0
2	20195	16108.259306445872	1
2	20196	16108.321406104384	0
2	20225	16116.941094752665	1
2	20226	16117.314053014671	0
2	20255	16146.526507078057	1
2	20256	16147.480826336853	0
2	20270	16151.175930782357	1
2	20271	16151.913890003068	0
2	20305	16180.8038386255	1
2	20306	16181.859177935892	0
2	20385	16284.996140807502	1
2	20386	16285.439665503277	0
2	20390	16285.489912411878	1
2	20391	16286.306827600336	0
2	20410	16290.083166881055	1
2	20412	16290.374614779051	2
2	20413	16290.933820187407	1
2	20416	16292.014504620633	0
2	20495	16411.206266995585	1
2	20496	16411.628877526358	0
2	20535	16455.140173894597	1
2	20536	16456.015102938234	0
2	20555	16474.895674461592	1
2	20556	16475.061694682832	0
2	20610	16525.535352969554	1
2	20611	16525.764422092884	0
2	20630	16557.464061925245	1
2	20631	16557.490013947265	0
2	20735	16660.006556535171	1
2	20736	16660.219856508209	0
2	20855	16789.516687562782	1
2	20856	16790.210739840182	0
2	20870	16796.689049177728	1
2	20873	16797.132851926111	0
2	20895	16804.151529439337	1
2	20896	16804.645409379376	0
2	20930	16829.279207990213	1
2	20931	16829.8523054409	0
2	20960	16847.503138710404	1
2	20961	16848.261246363168	0
2	20965	16848.54600591089	1
2	20966	16849.063354077936	0
2	20975	16851.090908682933	1
2	20977	16851.283509937296	2
2	20978	16851.737329065495	1
2	20981	16852.763387618002	0
2	20985	16852.84209174195	1
2	20988	16853.864479579006	0
2	21000	16862.099428135052	1
2	21001	16862.8951746224	0
2	21005	16863.841035469938	1
2	21006	16863.927145307096	0
2	21015	16868.354376362124	1
2	21016	16868.497899770409	0
2	21055	16908.716447767668	1
2	21056	16909.503861200061	0
2	21120	16976.254199760918	1
2	21121	16976.310903707511	0
2	21130	16978.14652624291	1
2	21131	16978.819764436544	0
2	21135	16979.185864462678	1
2	21139	16979.533625953607	2
2	21140	16979.896565456544	1
2	21144	16980.254153417818	2
2	21145	16980.793188779936	1
2	21148	16981.743154682447	0
2	21152	16981.922445468786	1
2	21154	16981.942732418368	2
2	21155	16982.755366966822	1
2	21159	16983.317264660775	2
2	21160	16983.556973858685	1
2	21163	16984.475633124769	0
2	21170	16986.249019008572	1
2	21171	16986.803136532516	0
2	21190	17004.904224652599	1
2	21191	17005.718185821649	0
2	21230	17060.139346484173	1
2	21231	17061.093755094702	0
2	21250	17075.607491392616	1
2	21251	17075.794073847318	0
2	21310	17142.802395746804	1
2	21311	17142.986781772564	0
2	21315	17143.71734237001	1
2	21316	17143.95437906083	0
2	21320	17143.960863720111	1
2	21321	17144.927271264012	0
2	21375	17206.065770237569	1
2	21376	17206.560621085185	0
2	21395	17233.587066217138	1
2	21396	17233.700841125389	0
2	21410	17237.846998964694	1
2	21411	17238.821403595338	0
2	21415	17239.333785928627	1
2	21416	17239.871685830875	0
2	21445	17249.923635351749	1
2	21447	17250.206990882416	2
2	21448	17250.526857699254	1
2	21451	17251.576054228456	0
2	21455	17252.415707735275	1
2	21456	17252.567798485779	0
2	21505	17276.8242005378	1
2	21506	17277.229064778994	0
2	21520	17283.0670024416	1
2	21521	17283.179711438166	0
2	21540	17292.133117823758	1
2	21541	17292.520661951265	0
2	21550	17299.243146652211	1
2	21551	17300.008467932397	0
2	21560	17301.998723259333	1
2	21561	17302.002381731735	0
2	21565	17302.226572213587	1
2	21566	17302.864135141184	0
2	21605	17320.685229667312	1
2	21606	17321.131171286394	0
2	21620	17348.858734829998	1
2	21621	17349.187344022422	0
2	21625	17350.265271319722	1
2	21626	17350.285117035593	0
2	21630	17351.023519270384	1
2	21631	17351.101464363701	0
2	21690	17392.51053594253	1
2	21691	17392.625049452356	0
2	21695	17393.460823686787	1
2	21696	17393.644857016451	0
2	21750	17427.779442480049	1
2	21751	17428.393174338327	0
2	21795	17468.590453195893	1
2	21796	17469.500113014769	0
2	21865	17510.624572754705	1
2	21866	17510.901847104647	0
2	21890	17534.23052466598	1
2	21891	17534.887577983643	0
2	21950	17568.357077110855	1
2	21951	17569.19639010342	0
2	21980	17589.783287904134	1
2	21981	17589.877558144748	0
2	22100	17697.959634700481	1
2	22101	17698.203671114686	0
2	22110	17711.670485484367	1
2	22111	17712.007503940026	0
2	22117	17712.987762438623	1
2	22118	17713.178153974331	0
2	22160	17738.634403968965	1
2	22161	17738.965776327518	0
2	22190	17764.880994169335	1
2	22191	17765.315897358591	0
2	22200	17767.884515760386	1
2	22201	17768.561873483288	0
2	22235	17790.965268417764	1
2	22237	17791.573575012484	2
2	22238	17792.025013002084	1
2	22241	17793.013683221099	0
2	22270	17814.379632635577	1
2	22271	17814.903995889892	0
2	22315	17860.306474852921	1
2	22316	17861.332174285716	0
2	22345	17913.407608311136	1
2	22346	17914.442978065183	0
2	22370	17935.967746808257	1
2	22372	17936.480616819425	2
2	22373	17936.936725557729	1
2	22376	17938.007087711658	0
2	22400	17952.726074688412	1
2	22401	17953.557164520963	0
2	22410	17954.951919518481	1
2	22411	17955.754286486848	0
2	22480	18003.31938329025	1
2	22481	18004.041533963571	0
2	22535	18024.11437685383	1
2	22538	18024.592274594139	0
2	22542	18025.076460211794	1
2	22543	18025.550453498233	0
2	22555	18028.032244838457	1
2	22557	18028.041772108744	2
2	22558	18028.838445310419	1
2	22561	18029.698082101376	0
2	22665	18148.565309335919	1
2	22667	18148.749235537398	2
2	22669	18149.148608628848	3
2	22670	18149.543119100326	2
2	22673	18150.699048542635	1
2	22676	18151.687333717973	0
2	22745	18184.732487820627	1
2	22746	18185.558803141135	0
2	22780	18213.527980844831	1
2	22781	18214.07763024271	0
2	22805	18234.764293151156	1
2	22806	18235.564495743654	0
2	22830	18266.470875995334	1
2	22831	18266.480562505866	0
2	22840	18273.052364626821	1
2	22841	18273.617092916647	0
2	22915	18321.762676228755	1
2	22916	18321.863810459113	0
2	22960	18373.33150158816	1
2	22961	18373.384523909769	0
2	22985	18386.898120288929	1
2	22986	18387.455292262331	0
2	22990	18388.0652298731	1
2	22991	18388.406038647525	0
2	22995	18388.906687020674	1
2	22996	18389.369328908909	0
2	23025	18415.607215278227	1
2	23026	18416.672529091929	0
2	23040	18435.146229626727	1
2	23041	18435.651724503631	0
2	23085	18494.97520399384	1
2	23086	18495.755279946646	0
2	23115	18504.325042424176	1
2	23116	18504.896239319455	0
2	23120	18504.987311072508	1
2	23121	18505.98943708447	0
2	23145	18527.179063028793	1
2	23146	18527.332641687025	0
2	23195	18564.538081375525	1
2	23196	18565.646360015181	0
2	23230	18597.74592447337	1
2	23231	18598.177833342753	0
2	23290	18650.88310050589	1
2	23291	18651.435196190988	0
2	23315	18671.273211343438	1
2	23316	18671.981598070784	0
2	23330	18678.103639546343	1
2	23331	18678.522698396566	0
2	23347	18682.504554503505	1
2	23348	18683.25110303277	0
2	23395	18707.530008966821	1
2	23396	18708.211534963562	0
2	23425	18729.109077345887	1
2	23428	18729.732463845501	0
2	23450	18744.118230889677	1
2	23453	18744.504461355353	0
2	23535	18835.889176555426	1
2	23536	18835.890877223063	0
2	23630	18902.080398689357	1
2	23631	18902.836760739034	0
2	23635	18903.071837441639	1
2	23638	18904.012995306944	0
2	23685	18964.84549915943	1
2	23686	18965.786376102876	0
2	23700	18973.635682315564	1
2	23701	18974.568990634116	0
2	23735	19007.251315082109	1
2	23736	19008.094504218534	0
2	23760	19037.762642617253	1
2	23761	19038.255116589773	0
2	23770	19039.70596241725	1
2	23772	19040.100723206224	2
2	23773	19040.603101388041	1
2	23776	19041.434562584993	0
2	23785	19049.565863187857	1
2	23786	19049.803478429484	0
2	23800	19054.809503841817	1
2	23801	19055.098031273476	0
2	23805	19055.60319687142	1
2	23807	19055.920246168344	2
2	23808	19055.925647535074	1
2	23812	19055.97602108476	2
2	23814	19056.228416967231	3
2	23817	19056.823423024725	2
2	23820	19057.887020090401	1
2	23823	19058.885395622898	0
2	23835	19060.891760528507	1
2	23836	19061.964537699925	0
2	23840	19062.65189074063	1
2	23843	19063.032745745251	0
2	23880	19099.986591171652	1
2	23881	19100.817957203651	0
2	23935	19173.947466119153	1
2	23936	19175.064611904442	0
2	23960	19193.266353797921	1
2	23961	19193.658292281024	0
2	24042	19285.728811926922	1
2	24043	19285.864586423676	0
2	24065	19298.414130864799	1
2	24066	19299.020974007139	0
2	24075	19300.319238717678	1
2	24078	19301.283310347624	0
2	24090	19303.647700409935	1
2	24094	19303.768483654619	2
2	24095	19304.667383164999	1
2	24098	19305.760848985792	0
2	24105	19306.622939527495	1
2	24106	19307.410863574401	0
2	24110	19307.458097216971	1
2	24112	19308.193974380636	2
2	24113	19308.462845570866	1
2	24116	19309.440339242473	0
2	24135	19313.366837141238	1
2	24136	19314.226614781076	0
2	24180	19356.208392807899	1
2	24181	19356.822108524167	0
2	24190	19358.492925082879	1
2	24191	19358.749982020133	0
2	24205	19368.959842363528	1
2	24206	19369.60630014104	0
2	24210	19370.464679202059	1
2	24211	19370.547012433812	0
2	24280	19443.04374342011	1
2	24281	19443.110652893316	0
2	24375	19498.159346425055	1
2	24378	19498.954958684414	0
2	24400	19526.618563776758	1
2	24402	19526.811940097432	2
2	24403	19527.045497397214	1
2	24406	19527.874808177139	0
2	24420	19547.573566553684	1
2	24421	19548.352709657021	0
2	24485	19574.22564805952	1
2	24486	19575.156798995091	0
2	24570	19645.068037353939	1
2	24571	19645.901069453891	0
2	24575	19646.122750386909	1
2	24576	19646.75761855866	0
2	24615	19680.183480781778	1
2	24617	19680.61943259456	2
2	24618	19680.92420743094	1
2	24621	19681.995997233178	0
2	24665	19722.364396662906	1
2	24666	19722.708071173434	0
2	24710	19764.106334786758	1
2	24711	19764.481033007149	0
2	24715	19765.265135245916	1
2	24716	19765.64455618877	0
2	24760	19807.511192662481	1
2	24762	19808.080823641985	2
2	24763	19808.298506800247	1
2	24766	19809.187137313349	0
2	24775	19811.473474876285	1
2	24776	19812.256565001764	0
2	24800	19835.216822633906	1
2	24801	19836.274156052737	0
2	24825	19851.605109211882	1
2	24826	19852.606134502352	0
2	24850	19877.338152779036	1
2	24851	19877.570624631427	0
2	24890	19918.260571936094	1
2	24891	19918.786368625567	0
2	24930	19938.190231067744	1
2	24931	19938.206032520115	0
2	24985	19992.127657750928	1
2	24986	19992.845316551399	0
2	25005	20011.920010438086	1
2	25008	20012.382311255427	0
2	25012	20012.704327371878	1
2	25013	20013.331334940007	0
2	25030	20033.23233520711	1
2	25031	20033.711937201303	0
2	25035	20034.39214827054	1
2	25036	20034.730193755124	0
2	25065	20056.089783380913	1
2	25066	20056.234481642921	0
2	25080	20063.978952178399	1
2	25081	20064.747599462526	0
2	25095	20078.182839254472	1
2	25096	20078.682772297978	0
2	25110	20094.279440829965	1
2	25111	20094.47181251439	0
2	25175	20178.690337864363	1
2	25176	20179.470453687785	0
2	25245	20237.916599311421	1
2	25246	20238.799103547457	0
2	25270	20254.436861513512	1
2	25271	20254.92213983892	0
2	25310	20289.278993803846	1
2	25311	20289.392060104281	0
2	25320	20290.811508678766	1
2	25321	20291.640765380109	0
2	25345	20312.483242792565	1
2	25346	20312.99944830707	0
2	25390	20356.651785812733	1
2	25391	20356.733802980291	0
2	25415	20386.260649758036	1
2	25416	20387.16776134286	0
2	25510	20493.161690149381	1
2	25511	20493.642936257457	0
2	25550	20531.511642553313	1
2	25551	20531.862160827706	0
2	25595	20558.569401812385	1
2	25596	20558.738926602173	0
2	25620	20566.79534984636	1
2	25621	20567.526557480705	0
2	25625	20568.174624460915	1
2	25626	20568.587302205966	0
2	25632	20568.760824932	1
2	25633	20569.711768178431	0
2	25637	20569.744130319268	1
2	25638	20570.639465595571	0
2	25645	20572.105171185371	1
2	25646	20572.807106688874	0
2	25720	20632.074692187306	1
2	25721	20632.151179214798	0
2	25760	20685.450370261269	1
2	25761	20686.126721134242	0
2	25860	20778.613456634035	1
2	25862	20778.990229117498	2
2	25863	20779.000055507003	1
2	25866	20780.17512934207	0
2	25885	20799.748659677777	1
2	25887	20800.003458923585	2
2	25888	20800.858015767611	1
2	25892	20800.90494457051	2
2	25895	20801.970541641149	1
2	25898	20802.952025046232	0
2	25980	20873.465708246507	1
2	25982	20873.735297575494	2
2	25983	20874.235213657707	1
2	25987	20874.823617048756	2
2	25988	20875.376833931968	1
2	25992	20876.127214601587	2
2	25993	20876.43061510041	1
2	25996	20877.496919350192	0
2	26010	20901.689356772327	1
2	26011	20902.297066326549	0
2	26050	20929.435266071613	1
2	26051	20930.203650510983	0
2	26115	20963.319946604006	1
2	26116	20963.856603326288	0
2	26125	20965.36704367223	1
2	26126	20966.110298515961	0
2	26200	21025.040524848775	1
2	26201	21025.875366783101	0
2	26325	21132.386264890581	1
2	26326	21132.884296662548	0
2	26365	21162.088084924909	1
2	26366	21163.133844194704	0
2	26377	21164.7450063317	1
2	26378	21165.180329394855	0
2	26410	21197.232231102549	1
2	26411	21197.354487667032	0
2	26450	21217.631462815597	1
2	26451	21217.788031833539	0
2	26485	21236.956799585456	1
2	26486	21238.010730843935	0
2	26495	21243.966154219026	1
2	26497	21244.017787898028	2
2	26498	21244.347716693818	1
2	26503	21245.174259856861	0
2	26535	21257.3981684916	1
2	26536	21257.96600213254	0
2	26540	21258.002406748072	1
2	26541	21259.119095851743	0
2	26590	21283.826748527076	1
2	26593	21284.127592133893	0
2	26625	21308.768460420919	1
2	26626	21308.917183297695	0
2	26685	21384.726880319924	1
2	26686	21385.309192295088	0
2	26735	21450.690894707022	1
2	26736	21450.863823499898	0
2	26740	21450.910415813636	1
2	26741	21451.683558356757	0
2	26775	21476.697034010799	1
2	26776	21476.826626479694	0
2	26805	21489.077857196396	1
2	26806	21489.690030703612	0
2	26830	21499.913193378795	1
2	26831	21500.137236087531	0
2	26835	21500.234034353799	1
2	26836	21501.150542717748	0
2	26890	21559.690675040802	1
2	26891	21560.028696547463	0
2	26940	21606.377245188721	1
2	26941	21606.46243069821	0
2	26960	21610.896454780898	1
2	26961	21611.351270779634	0
2	26980	21615.507841557018	1
2	26981	21616.340540714185	0
2	26985	21616.418708603103	1
2	26986	21617.422876533582	0
2	26990	21617.69102440867	1
2	26991	21618.257913618623	0
2	27035	21646.795146627886	1
2	27036	21647.163709963263	0
2	27085	21682.788732744895	1
2	27086	21683.094499689481	0
2	27160	21745.857881041139	1
2	27161	21746.4945148678	0
2	27165	21747.428848383068	1
2	27166	21747.619800851538	0
2	27175	21749.970801650654	1
2	27176	21750.211611503334	0
2	27180	21750.463407636927	1
2	27181	21751.080190912885	0
2	27185	21751.812637776822	1
2	27186	21752.038165655797	0
2	27190	21752.145786925961	1
2	27191	21752.993713136455	0
2	27305	21894.458029723026	1
2	27307	21895.08859934722	2
2	27308	21895.2556888713	1
2	27311	21896.270107654805	0
2	27345	21945.313874975059	1
2	27346	21946.064862981257	0
2	27365	21954.623336331016	1
2	27366	21955.333976402845	0
2	27370	21956.326777860581	1
2	27371	21956.3965705766	0
2	27675	22237.67450691217	1
2	27676	22238.821534340645	0
2	27680	22239.546883174626	1
2	27681	22239.855975647553	0
2	27757	22309.21571536315	1
2	27758	22309.840388735231	0
2	27880	22401.30681046569	1
2	27882	22401.331468727506	2
2	27883	22401.722522329018	1
2	27886	22402.811392150298	0
2	27950	22440.86885830697	1
2	27951	22441.638395061615	0
2	27965	22443.943467649105	1
2	27966	22444.578019723013	0
2	27970	22445.17403115441	1
2	27971	22445.610236311514	0
2	27990	22455.590923216034	1
2	27991	22455.974006504506	0
2	28055	22506.15872007333	1
2	28056	22506.640668792976	0
2	28060	22507.303273528496	1
2	28061	22507.7624946889	0
2	28120	22571.706453500503	1
2	28121	22572.094438348258	0
2	28130	22575.21385609879	1
2	28131	22575.715759476091	0
2	28195	22626.990308455792	1
2	28196	22627.993043481614	0
2	28210	22635.118193191867	1
2	28211	22635.21731176333	0
2	28230	22646.767647283084	1
2	28231	22647.361774722194	0
2	28245	22655.297784641752	1
2	28246	22655.983344303972	0
2	28254	22656.52607010214	1
2	28256	22657.005723404679	2
2	28257	22657.125909470457	1
2	28260	22658.084806087303	0
2	28275	22661.989823385948	1
2	28276	22662.067650109033	0
2	28280	22662.566906085947	1
2	28281	22663.048950864064	0
2	28310	22698.77554524224	1
2	28311	22699.06843236142	0
2	28325	22704.317306268575	1
2	28326	22705.118196571108	0
2	28385	22758.826717885402	1
2	28386	22758.945270850199	0
2	28455	22801.486220155062	1
2	28456	22802.344561781578	0
2	28460	22802.938062866176	1
2	28461	22803.409906375904	0
2	28615	22917.998528117058	1
2	28616	22919.064888138639	0
2	28740	23042.819003131627	1
2	28741	23043.45692090958	0
2	28747	23043.924104307781	1
2	28748	23044.543681541436	0
2	28805	23110.819971280072	1
2	28806	23111.262658544991	0
2	28840	23145.18223660596	1
2	28842	23145.406844419441	2
2	28843	23145.828126424641	1
2	28846	23146.69245163798	0
2	28910	23198.364083329477	1
2	28911	23199.040261755719	0
2	28915	23199.249298596373	1
2	28916	23199.948968857362	0
2	28920	23199.991781503946	1
2	28921	23201.078287593111	0
2	28955	23225.904388957933	1
2	28956	23226.2967480176	0
2	28985	23244.675783217795	1
2	28988	23245.649352704757	0
2	29015	23257.267735817278	1
2	29016	23257.271531851733	0
2	29035	23271.118647031708	1
2	29036	23271.561523030381	0
2	29040	23271.612830428283	1
2	29043	23272.626659869551	0
2	29110	23350.649779992113	1
2	29111	23351.125034866384	0
2	29150	23397.254299255303	1
2	29151	23397.985568123852	0
2	29175	23413.966529034527	1
2	29176	23414.614829587157	0
2	29180	23414.883956311915	1
2	29181	23415.567241485848	0
2	29220	23441.39407874633	1
2	29221	23441.985779167271	0
2	29230	23443.65080867871	1
2	29232	23443.819880197357	2
2	29233	23443.948364471483	1
2	29236	23444.931161981567	0
2	29275	23462.888317313266	1
2	29276	23463.062229715226	0
2	29305	23481.687741642618	1
2	29306	23482.096421258778	0
2	29335	23508.56106186416	1
2	29336	23508.711923528382	0
2	29342	23509.684782545397	1
2	29343	23509.771148894553	0
2	29350	23511.073081598247	1
2	29351	23511.66145667081	0
2	29402	23552.31773066017	1
2	29403	23552.730900330586	0
2	29435	23588.388692062404	1
2	29436	23589.023629236642	0
2	29445	23593.446022279077	1
2	29446	23594.4691731595	0
2	29480	23609.22187192439	1
2	29481	23609.382728984454	0
2	29492	23612.64255915061	1
2	29493	23613.292378742311	0
2	29535	23624.049216360295	1
2	29538	23624.843901408747	0
2	29545	23626.163267994193	1
2	29546	23626.839743759208	0
2	29605	23656.236150966245	1
2	29606	23656.526557042709	0
2	29640	23696.229887917789	1
2	29642	23696.770970889297	2
2	29643	23697.032739008132	1
2	29646	23697.83958883873	0
2	29670	23712.355002703872	1
2	29671	23713.079338646644	0
2	29685	23717.716962624661	1
2	29686	23718.015664994175	0
2	29690	23718.141281052337	1
2	29691	23719.04218528021	0
2	29697	23719.441174546168	1
2	29698	23720.045561579912	0
2	29722	23728.761559607554	1
2	29723	23728.766672839107	0
2	29755	23747.97580633689	1
2	29756	23748.688106520719	0
2	29830	23829.308200253988	1
2	29831	23829.828956137453	0
2	29840	23832.456294387397	1
2	29841	23833.273818540524	0
2	29850	23834.711220116272	1
2	29851	23835.428160260502	0
2	29920	23895.275900817014	1
2	29921	23895.32974518959	0
2	29940	23907.239049914506	1
2	29941	23908.308780778195	0
2	29975	23926.527983448345	1
2	29976	23926.665682082335	0
2	30030	23991.982822865019	1
2	30031	23992.808783631928	0
2	30055	24033.97460960727	1
2	30056	24034.594665641844	0
2	30070	24037.537728910301	1
2	30071	24038.17334139383	0
2	30080	24045.082518807865	1
2	30081	24045.563330909337	0
2	30125	24092.701553819751	1
2	30126	24093.633962903753	0
2	30130	24093.967448772375	1
2	30131	24094.829391244821	0
2	30160	24132.163494095895	1
2	30161	24132.335767260912	0
2	30165	24132.601814410168	1
2	30166	24133.210885774783	0
2	30170	24133.463429642678	1
2	30171	24134.395013966105	0
2	30175	24134.451014180763	1
2	30178	24135.380650954015	0
2	30187	24137.33183262694	1
2	30188	24137.701148707673	0
2	30192	24138.033178781397	1
2	30194	24138.489524084051	2
2	30195	24138.630495823614	1
2	30198	24139.580863504458	0
2	30235	24193.103630485715	1
2	30237	24193.266304869355	2
2	30238	24193.947544971925	1
2	30241	24194.938881093149	0
2	30245	24195.568945234544	1
2	30246	24195.999344037452	0
2	30275	24211.340453909285	1
2	30276	24211.908900821642	0
2	30280	24212.337271853545	1
2	30282	24212.519137552764	2
2	30283	24212.833158317083	1
2	30287	24212.895587582638	2
2	30288	24213.696258493294	1
2	30292	24213.987120307833	2
2	30293	24214.701675492399	1
2	30296	24215.566396630336	0
2	30335	24236.780811808661	1
2	30336	24237.510591512505	0
2	30345	24246.052482614086	1
2	30346	24246.16899374856	0
2	30350	24247.14853887903	1
2	30351	24247.200415777157	0
2	30422	24307.478608478441	1
2	30423	24307.579596591823	0
2	30490	24373.758628580416	1
2	30491	24374.319099195011	0
2	30570	24423.375068060557	1
2	30571	24423.473233337212	0
2	30690	24507.283179868506	1
2	30691	24507.784059433763	0
2	30715	24525.946318465672	1
2	30716	24526.340985764872	0
2	30720	24527.227468194987	1
2	30721	24527.446172874078	0
2	30795	24567.771792132918	1
2	30798	24568.547897638886	0
2	30802	24568.620676940013	1
2	30803	24569.632057927402	0
2	30820	24575.053417876158	1
2	30823	24575.685309887469	0
2	30827	24576.5943593289	1
2	30828	24576.868969535526	0
2	30832	24576.910204871702	1
2	30833	24577.718197610486	0
2	30837	24577.897273550795	1
2	30838	24578.599584898516	0
2	30842	24578.66617964265	1
2	30843	24579.651340641617	0
2	30847	24580.632494545915	1
2	30848	24580.712143495656	0
2	30855	24582.113463283752	1
2	30856	24582.872339229169	0
2	31025	24761.330246138458	1
2	31027	24762.075090848309	2
2	31028	24762.210732521136	1
2	31031	24763.179238968641	0
2	31065	24787.305623030378	1
2	31066	24787.934201660075	0
2	31110	24819.384607806567	1
2	31111	24820.178120139179	0
2	31170	24862.335121114482	1
2	31171	24862.533375353553	0
2	31205	24879.918414507443	1
2	31206	24880.903579432851	0
2	31235	24922.97147169868	1
2	31236	24923.619608542805	0
2	31250	24927.119257148898	1
2	31251	24928.182632976782	0
2	31255	24928.70594475368	1
2	31256	24929.080912488152	0
2	31265	24930.451912606031	1
2	31266	24931.03493535528	0
2	31272	24931.747716530288	1
2	31273	24931.999359768816	0
2	31277	24932.885037525419	1
2	31278	24933.193416670152	0
2	31315	24967.053551426368	1
2	31316	24967.906606556794	0
2	31330	24972.814774234668	1
2	31331	24972.877649617795	0
2	31380	25010.855030606329	1
2	31381	25011.681976725361	0
2	31390	25013.1767229208	1
2	31391	25013.73656367009	0
2	31420	25050.658545395812	1
2	31421	25051.339530317013	0
2	31425	25051.742929484132	1
2	31426	25052.174320845392	0
2	31450	25067.374399264873	1
2	31453	25067.869232582601	0
2	31460	25069.153008041853	1
2	31461	25069.739566796201	0
2	31465	25070.10335487815	1
2	31466	25070.919089986778	0
2	31505	25087.192349381316	1
2	31506	25087.254290044221	0
2	31560	25121.889320726694	1
2	31561	25122.100006776211	0
2	31580	25151.812447577092	1
2	31581	25152.861361173497	0
2	31585	25153.863221123289	1
2	31586	25153.909507929583	0
2	31645	25191.83617331423	1
2	31646	25192.003069755673	0
2	31800	25362.070601332426	1
2	31801	25362.851809127878	0
2	31900	25412.671946000695	1
2	31903	25413.546519314093	0
2	31970	25443.72494611675	1
2	31971	25444.507031618085	0
2	32000	25462.213311458008	1
2	32001	25462.649635723645	0
2	32035	25503.9557031679	1
2	32037	25504.819603973544	2
2	32038	25504.94886002919	1
2	32041	25505.894612710982	0
2	32090	25588.012370668236	1
2	32091	25588.10073121973	0
2	32160	25663.493644185703	1
2	32161	25663.976853286153	0
2	32290	25797.241906797442	1
2	32291	25797.759230814058	0
2	32310	25806.219631370346	1
2	32312	25806.798513643037	2
2	32313	25806.809800258155	1
2	32316	25807.727026347226	0
2	32320	25808.415326128746	1
2	32321	25808.768139883752	0
2	32355	25829.267328974828	1
2	32356	25830.191080487065	0
2	32385	25846.133881787494	1
2	32386	25846.600989073262	0
2	32520	25949.614312976892	1
2	32522	25949.631441687631	2
2	32523	25949.887940260256	1
2	32526	25950.718970083585	0
2	32565	25995.232699221805	1
2	32566	25995.744537704884	0
2	32595	26018.430559265572	1
2	32596	26018.64841172583	0
2	32665	26088.998520091372	1
2	32666	26089.131649114805	0
2	32670	26089.243276209507	1
2	32671	26089.995762541852	0
2	32680	26091.847587537164	1
2	32681	26092.065433890713	0
2	32685	26092.360283636448	1
2	32686	26092.919714415414	0
2	32730	26125.993054164135	1
2	32731	26126.06196459202	0
2	32745	26131.797841583852	1
2	32747	26131.827816249692	2
2	32748	26131.951762943788	1
2	32751	26133.010451003889	0
2	32760	26135.972522735104	1
2	32762	26136.547491629216	2
2	32763	26136.990416231269	1
2	32766	26137.873669879867	0
2	32770	26138.170607325221	1
2	32771	26139.040959237593	0
2	32775	26139.68751862028	1
2	32776	26140.195845124948	0
2	32805	26155.408025725135	1
2	32806	26155.79621340896	0
2	32830	26200.506490767192	1
2	32831	26200.904873029086	0
2	32890	26245.107916136463	1
2	32891	26245.851329657976	0
2	32915	26275.44195322385	1
2	32916	26276.312848590713	0
2	32970	26342.092401101864	1
2	32971	26342.315241989808	0
2	32975	26342.879222778462	1
2	32976	26343.255386401096	0
2	33000	26365.169508321473	1
2	33001	26365.713594643672	0
2	33025	26375.582724697021	1
2	33026	26376.386882336271	0
2	33050	26385.055975857218	1
2	33051	26385.097157854433	0
2	33090	26443.148250927007	1
2	33091	26443.871969322195	0
2	33120	26461.853032278311	1
2	33121	26462.335980756339	0
2	33130	26467.43761161626	1
2	33131	26468.168319977375	0
2	33205	26560.629937104188	1
2	33206	26561.521176752041	0
2	33210	26562.105956479901	1
2	33211	26562.347211341525	0
2	33250	26603.356928554491	1
2	33251	26603.570953071257	0
2	33305	26641.547968655015	1
2	33306	26641.636740639784	0
2	33410	26714.141045571141	1
2	33413	26715.190015618968	0
2	33500	26772.556902825012	1
2	33503	26772.992938492315	0
2	33507	26773.932370737893	1
2	33508	26773.943579593914	0
2	33512	26774.163882576184	1
2	33513	26775.010001631229	0
2	33517	26775.420046221113	1
2	33518	26775.960526922959	0
2	33560	26833.935533298779	1
2	33561	26834.099931857391	0
2	33600	26865.460185368089	1
2	33601	26865.803471153506	0
2	33650	26909.319514420034	1
2	33651	26910.050393442888	0
2	33675	26925.335325466208	1
2	33678	26926.187909814183	0
2	33695	26929.807831721789	1
2	33696	26930.470157753606	0
2	33700	26930.604996984851	1
2	33701	26931.311897734203	0
2	33710	26933.025299395442	1
2	33711	26933.652744144969	0
2	33735	26954.391867695466	1
2	33736	26954.519786848593	0
2	33745	26958.959885663364	1
2	33746	26959.520292876473	0
2	33755	26961.777784925036	1
2	33756	26961.839310708883	0
2	33760	26962.287526969408	1
2	33761	26963.023999019674	0
2	33770	26964.416722020312	1
2	33771	26965.010204024016	0
2	33825	27038.772909718438	1
2	33826	27038.795885799654	0
2	33885	27073.848672829694	1
2	33887	27074.142294854905	2
2	33889	27074.226864804477	3
2	33892	27074.976664491444	2
2	33895	27076.019935214221	1
2	33901	27076.669575139265	2
2	33902	27077.05764288444	1
2	33905	27078.217363955806	0
2	33909	27078.290907026748	1
2	33910	27079.174654321725	0
2	33914	27079.370259789461	1
2	33917	27080.022396256196	0
2	33930	27083.560761153967	1
2	33931	27083.764570390785	0
2	33937	27084.430303521191	1
2	33938	27084.626940717714	0
2	33950	27086.920746639428	1
2	33951	27087.443786093386	0
2	34030	27153.434248295382	1
2	34031	27153.637058831882	0
2	34165	27253.737280471777	1
2	34166	27253.806419759549	0
2	34195	27264.227645783304	1
2	34196	27264.391420201348	0
2	34225	27289.70804620836	1
2	34226	27289.839610611485	0
2	34270	27346.194354115169	1
2	34271	27346.271425351852	0
2	34275	27347.321872358226	1
2	34276	27347.413946397861	0
2	34295	27355.861879183305	1
2	34296	27356.279428962275	0
2	34310	27363.466827168171	1
2	34311	27364.218084198599	0
2	34317	27364.912883240988	1
2	34318	27365.098518440676	0
2	34335	27368.678725915968	1
2	34336	27369.181991567646	0
2	34365	27402.663213947846	1
2	34366	27403.539058742063	0
2	34415	27465.782131008682	1
2	34416	27466.580754910656	0
2	34430	27486.894140883581	1
2	34431	27487.898575452172	0
2	34445	27499.500448587349	1
2	34446	27500.027086206433	0
2	34475	27534.753084768962	1
2	34476	27534.830430594463	0
2	34555	27605.705305529349	1
2	34557	27606.260937757632	2
2	34558	27606.617486770717	1
2	34562	27606.823848649938	2
2	34563	27607.52716864225	1
2	34566	27608.68706372323	0
2	34575	27616.225807346403	1
2	34576	27616.868325556586	0
2	34625	27693.787795886217	1
2	34626	27693.917956630578	0
2	34695	27748.117894621295	1
2	34696	27748.609862988033	0
2	34710	27756.470432508905	1
2	34711	27757.636866089126	0
2	34725	27766.778298563436	1
2	34726	27766.79852887644	0
2	34825	27903.074382202959	1
2	34826	27903.182077307561	0
2	34840	27906.666238427993	1
2	34842	27907.035296050167	2
2	34843	27907.800248975998	1
2	34846	27908.901838729849	0
2	34850	27909.175409381484	1
2	34851	27909.890110707322	0
2	34960	27985.90539728781	1
2	34961	27986.889781361234	0
2	34965	27987.917339958161	1
2	34966	27988.023025960636	0
2	35000	28016.55420308243	1
2	35001	28017.47765396171	0
2	35060	28057.852221939992	1
2	35061	28058.273339048254	0
2	35120	28110.951405638492	1
2	35121	28111.195745522652	0
2	35175	28138.036018204688	1
2	35176	28139.041639834978	0
2	35300	28247.156644289474	1
2	35301	28247.747314506191	0
2	35400	28358.126691634592	1
2	35401	28358.264222113974	0
2	35405	28359.307203454926	1
2	35406	28359.426980240829	0
2	35460	28387.361294990871	1
2	35462	28387.825915645179	2
2	35463	28388.034679374471	1
2	35467	28388.670705011532	2
2	35468	28389.095979722403	1
2	35471	28389.997984467167	0
2	35477	28390.952794478874	1
2	35478	28391.042071774415	0
2	35482	28391.7107786446	1
2	35483	28391.947856586891	0
2	35540	28450.159188550941	1
2	35541	28450.247967743812	0
2	35545	28451.172362642086	1
2	35546	28451.357815479984	0
2	35575	28475.883810786374	1
2	35576	28476.65140291166	0
2	35605	28493.353503631503	1
2	35606	28494.110302636027	0
2	35615	28495.830676521946	1
2	35616	28495.984838826288	0
2	35645	28532.373141258355	1
2	35646	28532.542480014562	0
2	35735	28607.986587248316	1
2	35736	28608.731071809648	0
2	35745	28610.84394553678	1
2	35747	28611.160534109663	2
2	35748	28611.619238876406	1
2	35751	28612.71404354269	0
2	35755	28613.062913130292	1
2	35756	28613.74171862746	0
2	35760	28614.368751394256	1
2	35761	28614.890767618123	0
2	35775	28630.525934605959	1
2	35776	28631.000134772861	0
2	35850	28674.134845215973	1
2	35851	28674.841751418045	0
2	35880	28704.156071794193	1
2	35881	28705.062140547718	0
2	35950	28753.254881595338	1
2	35951	28753.486733757663	0
2	35970	28758.074459863465	1
2	35971	28758.538114738173	0
2	36045	28801.326187096566	1
2	36048	28802.46919467821	0
2	36055	28803.770002970462	1
2	36056	28804.451582074344	0
2	36130	28855.637552096538	1
2	36131	28855.667700565309	0
2	36150	28862.676883304693	1
2	36151	28863.441773698216	0
2	36180	28876.107204219149	1
2	36181	28876.334310468315	0
2	36185	28876.965994571141	1
2	36186	28877.444474574114	0
2	36230	28918.786495007438	1
2	36231	28919.386832290359	0
2	36235	28920.021258943855	1
2	36236	28920.245246813011	0
2	36280	28972.115316025622	1
2	36281	28972.421666805221	0
2	36345	29017.861031747359	1
2	36346	29018.066827557874	0
2	36415	29123.565248414863	1
2	36416	29124.289997868869	0
2	36425	29125.311628345458	1
2	36426	29126.321176585905	0
2	36435	29128.657886767617	1
2	36436	29129.622634524642	0
2	36440	29130.149507260805	1
2	36441	29130.523771916399	0
2	36485	29180.714216075396	1
2	36486	29181.574267834396	0
2	36510	29197.045332720594	1
2	36511	29197.058787017744	0
2	36550	29230.427620841594	1
2	36551	29230.770719547199	0
2	36555	29230.819656189524	1
2	36556	29231.913879618796	0
2	36595	29280.125574361108	1
2	36596	29280.389675034964	0
2	36620	29299.540764379734	1
2	36621	29299.851915717819	0
2	36650	29330.40339982455	1
2	36651	29331.540723488861	0
2	36665	29347.006214956558	1
2	36666	29347.563744012815	0
2	36690	29353.456577044447	1
2	36691	29354.462257566438	0
2	36697	29355.062315491439	1
2	36698	29355.401955766645	0
2	36820	29463.374367293362	1
2	36821	29463.600229639999	0
2	37000	29667.740055195822	1
2	37001	29668.60252810702	0
2	37015	29671.535060239186	1
2	37017	29671.737084271161	2
2	37018	29672.3921327557	1
2	37022	29672.6552291475	2
2	37023	29673.465460648253	1
2	37027	29673.496092159948	2
2	37031	29673.982131855882	3
2	37032	29674.437067028187	2
2	37035	29675.484294703189	1
2	37039	29676.184283551083	2
2	37040	29676.666815298196	1
2	37044	29676.962516003906	2
2	37045	29677.579119026993	1
2	37048	29678.747041553312	0
2	37125	29731.816903504151	1
2	37127	29731.9510580868	2
2	37128	29732.482266186949	1
2	37131	29733.626640137404	0
2	37135	29734.024826754507	1
2	37136	29734.664858036142	0
2	37160	29774.893451781932	1
2	37161	29775.733822519269	0
2	37175	29782.813384267384	1
2	37176	29783.504625137927	0
2	37180	29784.222205664761	1
2	37181	29784.511084508276	0
2	37195	29790.682271748487	1
2	37196	29791.233318590345	0
2	37210	29796.802831132541	1
2	37211	29797.311505556297	0
2	37280	29848.144257075976	1
2	37281	29849.044151483092	0
2	37295	29852.910077011424	1
2	37296	29853.189758228906	0
2	37335	29884.737827070353	1
2	37336	29885.507745702177	0
2	37375	29914.207337988283	1
2	37376	29914.697471688573	0
2	37420	29949.390404302262	1
2	37423	29949.473646070605	0
2	37427	29949.815306047651	1
2	37428	29950.637686442474	0
2	37432	29950.903219796238	1
2	37433	29951.734322367685	0
3	0	0	0
3	75	78.624999351793	1
3	76	79.083940682036	0
3	120	102.600306609516	1
3	121	102.975152149213	0
3	195	154.30840095233	1
3	196	154.605184994959	0
3	202	155.336446177703	1
3	206	156.417041551271	0
3	250	184.780678742647	1
3	251	185.038531877718	0
3	255	185.828273648023	1
3	256	185.966778136476	0
3	300	220.184421624506	1
3	301	220.358327145837	0
3	490	435.4784812743	1
3	492	435.939663927042	2
3	493	436.407291552199	1
3	496	437.580643219648	0
3	500	438.312494161961	1
3	501	438.674450841786	0
3	572	497.632489401067	1
3	576	499.21690209148	0
3	645	569.793774806355	1
3	646	570.224742670887	0
3	680	598.947299487348	1
3	686	600.782650103356	0
3	710	619.564126269775	1
3	716	621.539917216071	0
3	760	659.798444069023	1
3	761	659.910680733251	0
3	765	660.372461769943	1
3	766	661.095322007036	0
3	795	677.470837305885	1
3	796	677.663455264234	0
3	805	679.193395927027	1
3	806	679.869528339842	0
3	815	681.600466602064	1
3	816	681.970292388255	0
3	830	695.272185981667	1
3	831	696.159927473786	0
3	855	716.099354676483	1
3	861	717.627157783888	0
3	915	754.100982811447	1
3	916	754.126616649571	0
3	1115	887.233912922742	1
3	1116	887.452480153893	0
3	1155	918.39763139154	1
3	1156	918.730442334167	0
3	1170	930.907020301042	1
3	1171	931.227963191206	0
3	1270	1056.435290129704	1
3	1271	1056.494958279101	0
3	1395	1183.69590164028	1
3	1396	1184.471780076993	0
3	1420	1204.375615743858	1
3	1421	1205.561719115077	0
3	1430	1207.627394801582	1
3	1431	1207.681105366309	0
3	1465	1226.298236955188	1
3	1466	1226.837990746325	0
3	1500	1267.204731741948	1
3	1507	1268.008266430694	2
3	1508	1268.841110086491	1
3	1511	1269.986098535129	0
3	1605	1338.252936038013	1
3	1606	1338.801938864053	0
3	1631	1343.32355139368	1
3	1636	1344.150017622342	2
3	1646	1345.621708766146	3
3	1650	1347.208387352542	2
3	1653	1348.066832036261	1
3	1661	1350.120535170116	0
3	1700	1366.644548166009	1
3	1701	1367.376938500431	0
3	1750	1400.941369371031	1
3	1751	1401.714735921318	0
3	1790	1423.208973027525	1
3	1791	1423.32035804096	0
3	1845	1449.820553259129	1
3	1846	1450.682785615247	0
3	1880	1478.234774253089	1
3	1881	1479.0348296675	0
3	2090	1706.463917717364	1
3	2091	1706.493737459502	0
3	2235	1893.739932337909	1
3	2236	1893.960913490106	0
3	2305	1951.922066776901	1
3	2306	1952.812674772823	0
3	2395	2017.74543493882	1
3	2396	2018.274672547545	0
3	2445	2054.899799016939	1
3	2446	2055.635483828633	0
3	2485	2070.649790770394	1
3	2486	2071.102106617703	0
3	2505	2084.434450987628	1
3	2506	2084.809148138018	0
3	2520	2089.772101972159	1
3	2522	2089.957234525724	2
3	2529	2090.982610949919	3
3	2530	2091.277960137747	2
3	2534	2091.920884366508	3
3	2535	2092.247036081463	2
3	2538	2093.059926027622	1
3	2541	2094.104057010919	0
3	2545	2094.612714190511	1
3	2551	2096.105547982551	0
3	2565	2099.743599979469	1
3	2566	2099.808436992354	0
3	2592	2104.253728666562	1
3	2604	2107.02518621442	2
3	2608	2107.963236859941	1
3	2611	2108.877199728915	0
3	2655	2142.402818819856	1
3	2661	2144.296678083181	0
3	2735	2230.609344338892	1
3	2736	2230.959670493933	0
3	2825	2313.554240950525	1
3	2826	2314.487034994359	0
3	2830	2315.257291152995	1
3	2831	2315.544846574864	0
3	2860	2349.129143676717	1
3	2861	2349.34002848078	0
3	2865	2349.49091646695	1
3	2867	2349.782147897255	2
3	2868	2350.366314098206	1
3	2876	2352.19245004008	0
3	2920	2390.932076683495	1
3	2921	2391.465844722127	0
3	2935	2421.895132169682	1
3	2936	2422.758184557299	0
3	2945	2424.472994601724	1
3	2947	2424.573212378278	2
3	2948	2425.212032694432	1
3	2952	2425.597787574761	2
3	2953	2426.018151301953	1
3	2957	2426.632582082695	2
3	2958	2426.914208568602	1
3	2961	2427.954525667026	0
3	3200	2695.200830948632	1
3	3201	2695.338419031889	0
3	3212	2701.744356623786	1
3	3216	2703.051180850142	0
3	3265	2724.576562009482	1
3	3266	2724.591581386175	0
3	3270	2725.130321197302	1
3	3272	2725.625449076946	2
3	3273	2725.752711257186	1
3	3286	2727.228115628238	2
3	3293	2729.950574153696	1
3	3296	2730.905675774195	0
3	3345	2818.504886454724	1
3	3346	2818.534883696214	0
3	3415	2873.300686316894	1
3	3416	2874.001370670021	0
3	3590	3009.22661102017	1
3	3591	3010.123341372683	0
3	3640	3089.984989754691	1
3	3641	3090.243052699364	0
3	3675	3113.499287544135	1
3	3676	3113.70876876872	0
3	3725	3147.429660690286	1
3	3726	3148.114899277828	0
3	3745	3155.585974391207	1
3	3746	3156.464934748778	0
3	3765	3170.036532832925	1
3	3766	3171.11439960094	0
3	3770	3171.15644794705	1
3	3781	3174.122622452097	0
3	3810	3204.25988728326	1
3	3811	3204.621366801496	0
3	3842	3213.379446103533	1
3	3846	3214.479013556168	0
3	3885	3253.881868285773	1
3	3886	3254.106624046846	0
3	3920	3286.276356660617	1
3	3921	3287.24086958342	0
3	3945	3303.575458113774	1
3	3946	3304.581595580267	0
3	3960	3308.137191872219	1
3	3961	3308.500655697639	0
3	3975	3311.335057842629	1
3	3976	3312.263153660051	0
3	4037	3340.440031916938	1
3	4042	3341.187983996846	2
3	4043	3341.713025118637	1
3	4051	3343.870530232734	0
3	4105	3376.275005898431	1
3	4106	3376.976639184405	0
3	4155	3407.188146560026	1
3	4156	3407.712398129997	0
3	4160	3408.575707738338	1
3	4161	3408.87765694495	0
3	4170	3410.452466541674	1
3	4171	3410.916168575905	0
3	4275	3536.400465008642	1
3	4276	3537.322885091462	0
3	4305	3562.360950369903	1
3	4306	3563.382587752896	0
3	4390	3619.534939710063	1
3	4391	3619.974434147857	0
3	4415	3636.958294324094	1
3	4416	3638.045268016714	0
3	4445	3654.015965420041	1
3	4446	3655.113470203124	0
3	4470	3678.867835093834	1
3	4471	3679.449685180625	0
3	4485	3683.662392323876	1
3	4486	3684.22328854308	0
3	4525	3707.226895521213	1
3	4526	3708.011076128266	0
3	4530	3708.210213562091	1
3	4531	3709.159570937387	0
3	4535	3709.514532095614	1
3	4537	3709.918606463828	2
3	4538	3710.041177908766	1
3	4546	3711.884873198781	0
3	4550	3712.410636522497	1
3	4551	3713.041955700394	0
3	4555	3713.044571435951	1
3	4556	3713.959412638068	0
3	4565	3716.607222526957	1
3	4566	3717.651460708817	0
3	4570	3717.844080241955	1
3	4571	3718.669303505634	0
3	4575	3718.89642810915	1
3	4576	3719.86596721555	0
3	4620	3753.640796753566	1
3	4621	3754.618606474958	0
3	4625	3754.845698067743	1
3	4626	3755.590401785504	0
3	4630	3755.963356094938	1
3	4631	3756.648439402934	0
3	4670	3785.391892343983	1
3	4671	3786.167898014635	0
3	4800	3850.561144792184	1
3	4806	3851.853984544087	0
3	4995	4088.955613973974	1
3	4996	4089.272129229752	0
3	5000	4089.333966767027	1
3	5001	4090.248613157233	0
3	5005	4090.328884822601	1
3	5006	4091.08074473405	0
3	5010	4091.298383065132	1
3	5011	4091.93213263314	0
3	5037	4113.523566581204	1
3	5041	4114.464370434125	0
3	5060	4121.188756293865	1
3	5061	4121.842966200065	0
3	5120	4161.048520171158	1
3	5121	4161.333683296976	0
3	5135	4164.920334315082	1
3	5136	4165.066812846204	0
3	5155	4173.827429176384	1
3	5156	4174.393933952579	0
3	5165	4176.259507391975	1
3	5166	4176.654958598668	0
3	5210	4207.705103533569	1
3	5211	4208.553411846212	0
3	5310	4292.792404608802	1
3	5311	4293.245887312648	0
3	5340	4317.836195268827	1
3	5341	4318.406639260482	0
3	5385	4352.121853505272	1
3	5386	4352.15033362785	0
3	5440	4387.211188218813	1
3	5441	4387.992174151161	0
3	5450	4389.812726963207	1
3	5451	4390.050638371048	0
3	5500	4428.531551401367	1
3	5501	4429.1506994946	0
3	5505	4429.365972543889	1
3	5511	4431.025075296878	0
3	5530	4441.490569296194	1
3	5531	4442.000583992914	0
3	5535	4442.28395047197	1
3	5536	4442.929613136795	0
3	5547	4446.346197191461	1
3	5551	4447.828724527598	0
3	5610	4495.736411641339	1
3	5611	4496.038162780583	0
3	5620	4497.71115711208	1
3	5621	4498.476359923607	0
3	5635	4501.598508868371	1
3	5636	4502.12525992004	0
3	5660	4517.131880162524	1
3	5661	4518.205592771496	0
3	5675	4523.170332556037	1
3	5676	4523.802969873576	0
3	5700	4540.954652556466	1
3	5701	4541.174105288183	0
3	5720	4550.238017837479	1
3	5726	4551.89049158241	0
3	5775	4603.443957039119	1
[...]
6	30320	24228.932620733419	0.864755731821
6	30337	24237.510591512505	1.152395402174
6	30347	24246.16899374856	1.06377821248
6	30365	24256.675478793374	0.805226146616
6	30390	24266.938994232019	0.903778405208
6	30395	24280.464137736496	0.832381889317
6	30410	24292.052508079342	8.209905800242
6	30415	24303.226482310732	0.920930974465
6	30437	24310.925158405666	2.69012479018
6	30440	24312.023171829329	4.884073143825
6	30475	24348.929234427459	3.028596139915
6	30510	24387.790748602581	1.118910786044
6	30525	24397.577322694072	2.647939975105
6	30530	24400.526055742015	1.184689935856
6	30550	24408.997704213961	2.713588812293
6	30572	24423.473233337212	1.05660640148
6	30589	24427.757617239344	6.130873290069
6	30597	24429.475903479352	1.965444987457
6	30600	24430.378672515384	3.568497715515
6	30605	24435.050782143631	0.991438770667
6	30625	24459.014910966984	1.01893700026
6	30642	24468.509512193809	6.162016680888
6	30650	24470.634754267711	2.395427514682
6	30660	24483.520752098608	0.869841597509
6	30700	24511.084671240351	1.000226298347
6	30735	24538.013517196988	1.097917423397
6	30757	24549.577550169373	3.41003590617
6	30765	24553.342006197552	4.641242892102
6	30770	24555.503338843977	1.082163215149
6	30782	24559.945022447675	3.13025656521
6	30785	24561.045874726295	1.310872666526
6	30810	24571.695165114144	3.217283715595
6	30857	24582.872339229169	7.333778696003
6	30885	24592.657012884261	1.47431657322
6	30890	24597.88194952412	1.004706500191
6	30905	24610.74694185689	1.135546280164
6	30920	24626.067427196331	2.678154472873
6	30935	24636.235101956997	2.32130149028
6	30940	24649.498150008531	0.964127857983
6	30950	24661.076938861304	6.178859557477
6	30960	24665.536106029717	2.349250259196
6	30967	24673.614249759368	0.994007935375
6	30970	24674.737213334455	1.904993256933
6	30975	24681.834279681274	1.00795537727
6	30985	24692.492101301183	0.887620347086
6	30995	24710.552323478228	0.913373691309
6	31015	24737.42668669743	0.966910241172
6	31020	24755.804653560928	1.145001721755
6	31085	24792.944944223121	5.90558820147
6	31090	24795.704675891214	1.133361968864
6	31095	24805.88135443422	0.977813528851
6	31120	24822.050951668465	2.761354869325
6	31145	24839.691983416599	0.907074390817
6	31155	24853.321477157501	1.132775717322
6	31160	24858.162677095418	1.183981359191
6	31200	24876.087239680207	1.190155337844
6	31207	24880.903579432851	1.000073896348
6	31220	24898.317505771667	0.835390477441
6	31225	24903.449500673446	0.988418669347
6	31230	24915.032777877076	0.957793969661
6	31237	24923.619608542805	0.987572674453
6	31285	24935.349743516092	3.719489828786
6	31290	24940.957670336341	0.95036150096
6	31310	24953.359206483277	1.027989217266
6	31340	24974.959423382892	2.955735092601
6	31360	24995.296604283383	1.109425869863
6	31367	24996.861907393975	4.914068963966
6	31370	24997.830472097663	1.218544847651
6	31392	25013.73656367009	1.834777545131
6	31400	25017.084230797587	0.843148713
6	31410	25035.967830492151	0.847215178329
6	31415	25039.088871865477	1.149769760109
6	31447	25066.957091870366	1.446873803582
6	31454	25067.869232582601	0.989946143549
6	31462	25069.739566796201	2.118050984646
6	31475	25075.864438021215	0.867481476255
6	31495	25084.734341391532	1.106635146495
6	31502	25086.355602569046	1.122118848283
6	31507	25087.254290044221	1.020394277271
6	31525	25099.262279354681	1.900937221162
6	31535	25110.20015601148	1.701497121998
6	31545	25115.718803403115	1.1986630545
6	31550	25118.562805464898	1.00303271981
6	31570	25143.211602723279	0.995411957055
6	31582	25152.861361173497	1.084930126462
6	31595	25158.498850820303	1.178901780862
6	31600	25159.50694898215	0.91448909482
6	31605	25165.743987454264	0.859898981173
6	31610	25167.638979232817	1.145313601941
6	31620	25172.281392881773	1.719767535842
6	31625	25177.506227279448	1.140021743532
6	31655	25195.080637776278	1.036099252198
6	31672	25207.700324037601	1.976760821922
6	31687	25212.233773125691	1.540738892594
6	31690	25213.347220974678	6.027843886363
6	31695	25219.538427114676	0.823671259079
6	31705	25235.60952897549	1.048593394458
6	31730	25255.770685531312	1.14503520811
6	31735	25262.720093225549	1.130296748038
6	31745	25286.090029613251	1.195568007324
6	31750	25303.905490182504	1.123794062622
6	31765	25327.869930446577	0.907535799313
6	31770	25340.791497193783	1.073667433392
6	31827	25369.289730212728	3.884520965303
6	31830	25370.382444244234	8.44375728277
6	31842	25376.190706407915	0.80384167945
6	31850	25380.811788041241	4.78856917425
6	31855	25384.141782333644	1.101618513558
6	31877	25400.658822910905	7.073232619227
6	31880	25401.618294490639	5.768527088461
6	31885	25402.962352625833	0.960233240388
6	31910	25415.644208297567	2.353378872129
6	31925	25420.252374629826	3.60546339213
6	31940	25426.956103021909	0.811506890599
6	31950	25430.423104755656	6.283825103422
6	31980	25446.525251154814	1.851130642498
6	32002	25462.649635723645	1.114383377131
6	32039	25504.94886002919	1.522470908994
6	32055	25513.910916049763	1.455284940842
6	32060	25515.324425740616	1.190440073609
6	32085	25584.757921199795	0.950280497596
6	32092	25588.10073121973	1.048074468318
6	32100	25589.808674600354	1.428492439026
6	32115	25608.370488413818	0.895380428433
6	32125	25613.956147616037	0.957327752002
6	32130	25629.524932311729	0.848144107871
6	32145	25653.375086770144	0.865104865562
6	32150	25661.751167369432	1.042365906015
6	32180	25685.517374792295	0.940188431926
6	32207	25721.114661404001	0.865227249265
6	32212	25722.15023989852	1.83523067829
6	32215	25723.108145293383	1.735703041372
6	32245	25748.238918676298	0.847974573541
6	32250	25763.672228616586	0.892722525913
6	32255	25768.155542290716	1.022172323894
6	32260	25776.380202672511	0.900170289725
6	32277	25788.449762103128	2.635158217062
6	32280	25789.317122787962	1.724439514623
6	32285	25792.732974264991	0.835927985515
6	32340	25817.912524156623	1.197599759977
6	32357	25830.191080487065	3.541649077456
6	32400	25850.422054757998	0.873960902654
6	32415	25865.931144762447	1.154632195272
6	32420	25867.835023049679	0.815244778153
6	32440	25879.140107815587	0.956824138109
6	32445	25885.002899672747	0.901741631143
6	32467	25895.103786192145	1.14251115229
6	32470	25896.292834297251	2.035771487475
6	32485	25903.280992376829	1.015673032217
6	32510	25942.614993599616	3.582214457615
6	32535	25969.764437273244	1.129211462662
6	32540	25975.717834474641	0.881063923333
6	32550	25983.575027826143	0.899971186742
6	32580	25999.455098150458	0.939200438466
6	32605	26022.413394248517	0.853942050878
6	32615	26040.80071196187	1.101921923831
6	32625	26046.616230591004	1.920904628372
6	32650	26071.279467189669	0.875675042346
6	32657	26072.725992223362	0.970541607309
6	32660	26073.548965327742	1.428545599577
6	32667	26089.131649114805	1.144891664758
6	32720	26108.17382413791	1.731612716043
6	32725	26109.549931104937	0.872657974251
6	32740	26129.562029859169	0.829436956439
6	32749	26131.951762943788	0.968416879792
6	32795	26146.369571132905	3.229622121252
6	32815	26164.301242165059	1.122261229157
6	32825	26187.640209491978	0.936520948727
6	32832	26200.904873029086	1.111935701221
6	32845	26205.746212569481	1.29639214059
6	32860	26214.237421775903	2.649276498185
6	32865	26219.374324786448	0.84937137235
6	32870	26227.469244624861	0.895942848921
6	32892	26245.851329657976	2.559186647685
6	32900	26254.244873146888	0.920591710042
6	32917	26276.312848590713	1.133002138231
6	32935	26300.558508929031	1.190766353253
6	32960	26324.540373548808	2.606366505503
6	32965	26335.598117592795	1.185323878098
6	32995	26349.755520838042	0.907512706704
6	33002	26365.713594643672	1.185237158742
6	33010	26368.19620602929	1.111429572385
6	33045	26384.237668767171	0.868215417676
6	33067	26406.713246726914	0.935508317128
6	33070	26407.786137616	3.251552755395
6	33075	26430.493220414291	0.811872466747
6	33092	26443.871969322195	2.018710314047
6	33100	26445.999325604215	0.981732731313
6	33105	26456.072324418623	0.993223911338
6	33140	26472.24420567684	1.130630485807
6	33145	26489.204600626477	1.088873713743
6	33150	26490.6629921793	0.920371532626
6	33155	26519.024390173461	1.070767978579
6	33160	26531.755028310491	0.95751009807
6	33165	26536.803058451257	0.833198383357
6	33172	26540.996711453783	1.026222547144
6	33175	26541.929096446733	1.799684093332
6	33220	26564.523897528521	4.218018064602
6	33225	26585.624201958753	0.979693493713
6	33245	26600.71467377771	0.971180744842
6	33260	26606.341606555932	1.024670075811
6	33270	26615.378782448232	2.017802679607
6	33307	26641.636740639784	1.085234569199
6	33335	26648.33763925785	5.66898258017
6	33340	26650.802284236792	0.982929934468
6	33345	26659.626460298507	1.168667172734
6	33350	26668.376580763278	0.884392173961
6	33355	26669.598139777962	1.074979281705
6	33362	26673.549401352589	0.85711267693
6	33380	26678.505556640175	2.9362440384
6	33385	26681.001680905125	8.212147238693
6	33390	26682.485533449622	1.172848487645
6	33395	26687.842156176582	1.028894173261
6	33420	26717.165888676699	2.74095337781
6	33437	26725.266364957097	1.079348080419
6	33440	26726.156029798913	4.245836421098
6	33450	26733.212069848454	1.007960315235
6	33465	26738.79500381951	1.128306479752
6	33470	26741.319887367377	0.837778034713
6	33475	26744.467480783708	1.030414097197
6	33495	26767.639716050951	6.569427907342
6	33525	26777.696411653756	4.740529466031
6	33550	26824.510464660157	0.974885530025
6	33562	26834.099931857391	0.886148688849
6	33602	26865.803471153506	0.964714417979
6	33620	26883.213205018831	0.948435004614
6	33625	26895.939830618821	1.192586342618
6	33679	26926.187909814183	4.80800448687
6	33685	26927.924188217641	4.433422691102
6	33692	26929.283999285777	0.893160995934
6	33697	26930.470157753606	1.929180619157
6	33712	26933.652744144969	1.120395212993
6	33737	26954.519786848593	3.955240066047
6	33772	26965.010204024016	1.829948302135
6	33785	26978.942449144319	1.093702505808
6	33790	26982.953858960973	0.814178191684
6	33810	27022.29739305542	1.063815853093
6	33820	27037.20199985437	1.056868142076
6	33827	27038.795885799654	1.093139039911
6	33862	27051.958395414853	1.050902026426
6	33865	27052.917530123198	1.502775052614
6	33924	27081.993503660316	7.485207331482
6	33927	27082.944473029094	6.720990615149
6	33932	27083.764570390785	4.296444275002
6	33947	27086.462088358009	2.487944668553
6	33952	27087.443786093386	1.208402195097
6	33990	27111.712632096624	1.187416327279
6	34005	27143.202369566448	1.09288018113
6	34015	27148.896448715234	1.164899088722
6	34050	27168.83856272843	0.914717397746
6	34055	27171.594965276436	0.88327902453
6	34065	27176.158144506343	1.106396485679
6	34075	27179.920966359429	2.000231403528
6	34082	27186.191779429554	0.96331824949
6	34090	27188.670477560237	2.484129435503
6	34100	27200.928200852518	1.138650935423
6	34110	27209.378467599191	1.188851183467
6	34115	27212.748447286285	1.095768962149
6	34120	27214.073470978818	0.970059619285
6	34125	27225.536670597754	1.046249657962
6	34130	27232.582148770973	0.914336342085
6	34140	27237.900063182385	1.697992210304
6	34145	27240.529144040005	0.89969617743
6	34180	27258.802415938829	6.15123290926
6	34190	27262.896009851154	0.837744962703
6	34205	27276.212198508985	0.944112061057
6	34215	27283.703416272836	1.101052963734
6	34305	27358.26692060992	0.916524512693
6	34312	27364.218084198599	1.076484157518
6	34325	27367.080999523391	2.292070094129
6	34332	27368.018584122878	0.816870818939
6	34337	27369.181991567646	1.320514845261
6	34345	27372.7304757199	1.159058379289
6	34350	27376.925241970651	0.801528209541
6	34367	27403.539058742063	0.970582891162
6	34380	27425.435472990678	1.002671092842
6	34385	27427.221656986037	0.961567515228
6	34417	27466.580754910656	0.946094733849
6	34455	27510.605653236418	1.071831352077
6	34465	27514.190937930288	1.906643818537
6	34470	27521.951766074028	0.861276427936
6	34477	27534.830430594463	1.186395131983
6	34495	27543.654002204247	2.497404017567
6	34510	27563.233402058481	1.023070195224
6	34515	27564.710124388308	1.015126202535
6	34545	27585.621405476013	3.611241430044
6	34550	27599.475075396232	1.026059387438
6	34559	27606.617486770717	0.98920805715
6	34577	27616.868325556586	0.941067477688
6	34600	27655.887203722679	7.936733252231
6	34640	27699.789656581391	1.013880660944
6	34662	27722.419537026979	1.156032737158
6	34665	27723.422711578928	1.582911453511
6	34670	27725.72428129649	0.923111884389
6	34675	27735.568195025959	0.912882757839
6	34685	27741.57487156676	0.818206265289
6	34712	27757.636866089126	2.71097581093
6	34735	27769.113811564503	3.217009220325
6	34740	27780.151561222388	1.192704027425
6	34745	27812.637271667569	1.058510659356
6	34762	27845.280923457655	1.681365395268
6	34770	27848.294083948709	4.862745224935
6	34785	27862.80951417169	1.038847973198
6	34795	27870.011265161416	1.130473240931
6	34800	27883.42812615679	0.893634665385
6	34817	27900.132998928298	0.83471896518
6	34820	27901.014456198514	1.360054002124
6	34844	27907.800248975998	4.068085968256
6	34865	27922.469262996323	1.83981222221
6	34870	27929.172969604817	0.868624995649
6	34875	27930.519716170917	1.196431416832
6	34885	27939.23944572408	1.076731275395
6	34890	27940.24801645567	0.983517379127
6	34895	27945.11557293902	0.979137863219
6	34905	27947.72450825224	2.241214304874
6	34910	27948.960010414694	1.020553189889
6	34920	27961.166232550993	1.177268946916
6	34925	27968.824433003614	0.844182470627
6	34935	27972.519659330327	0.84925689986
6	34962	27986.889781361234	1.702893988915
6	34992	28015.356991573877	1.074046173319
6	34997	28016.278425712779	0.997571245649
6	35002	28017.47765396171	1.517579102146
6	35045	28048.030454458203	1.121122923587
6	35050	28051.647191203989	0.973892622441
6	35062	28058.273339048254	1.770115926905
6	35085	28073.641982615109	7.052084714258
6	35090	28079.137821493067	0.988424708135
6	35100	28084.553206803875	2.659787023663
6	35105	28088.228312224929	0.957871976215
6	35110	28096.689237209026	0.879361441452
6	35142	28115.519679448038	3.556392764262
6	35150	28118.261434455081	8.0269064503
6	35155	28125.970057430137	1.107405369356
6	35177	28139.041639834978	4.749186723493
6	35190	28143.424486728153	1.36519149169
6	35197	28154.922018068093	0.983531011362
6	35200	28155.860846354435	1.750537862001
6	35230	28177.277381820561	1.081567066535
6	35240	28187.421831399283	1.044341363851
6	35250	28200.408274717259	1.157652499899
6	35260	28207.308057301139	1.018385187536
6	35290	28239.913789905671	1.152173440997
6	35295	28243.766480100728	1.155556237139
6	35325	28263.460003131595	0.857749713026
6	35360	28282.876821441578	2.331000094637
6	35370	28293.494184823821	0.920090217143
6	35385	28321.735226640773	1.142802401725
6	35402	28358.264222113974	1.169872113597
6	35420	28363.833302543211	1.62556590586
6	35432	28376.333600180593	0.859570025746
6	35435	28377.170483315454	0.873464083603
6	35450	28386.005173967062	3.40666308312
6	35457	28387.203696867358	1.007862921525
6	35464	28388.034679374471	1.708515157798
6	35495	28395.024295284181	4.35190204277
6	35500	28413.471318069969	0.840882099792
6	35512	28423.922890283325	2.607735250908
6	35515	28424.7858768271	1.235463546871
6	35520	28429.02055861208	1.186938377563
6	35530	28446.667126799415	4.495484230977
6	35560	28465.250522429551	2.32698027261
6	35655	28546.649053238502	1.133974111639
6	35670	28567.203164607153	0.993189477455
6	35675	28573.355275695636	0.838387444429
6	35695	28594.677663063202	3.047106634847
6	35700	28596.814924880848	0.83412125716
6	35710	28600.278982211363	0.832625528611
6	35715	28602.494782289969	0.999330292456
6	35737	28608.731071809648	1.756361146908
6	35749	28611.619238876406	1.165409817826
6	35777	28631.000134772861	1.174931950867
6	35805	28642.599934474008	1.863983798515
6	35810	28644.186262772401	3.68665436197
6	35830	28656.117556477003	1.11506713219
6	35852	28674.841751418045	4.537713273567
6	35882	28705.062140547718	5.486557425032
6	35892	28712.339161686093	1.197293200064
6	35895	28713.34511267427	1.434523365199
6	35900	28716.81580213869	1.16911042938
6	35910	28726.882212154187	1.062764201686
6	35920	28730.118392331089	0.942450179905
6	35927	28739.815091115017	1.090807142109
6	35930	28740.889822719865	1.130079319277
6	35965	28756.826065532652	5.899868433983
6	35972	28758.538114738173	1.129416725412
6	35980	28761.21221737774	1.038912453875
6	35990	28768.150583193785	1.063850266952
6	35995	28770.701609324267	0.876465148572
6	36000	28772.516562592439	0.897587629501
6	36005	28787.822104404556	1.068148067687
6	36015	28792.471812805143	2.169775985804
6	36020	28793.643896555362	0.87672586171
6	36049	28802.46919467821	1.457678250316
6	36057	28804.451582074344	4.26945407642
6	36065	28811.681323166665	0.924215261545
6	36077	28818.87890841133	2.969533198284
6	36080	28819.715919021527	0.837238360252
6	36095	28832.53981816603	5.318445140283
6	36115	28839.613310517293	1.185558761749
6	36152	28863.441773698216	1.103842986375
6	36162	28867.37209313367	0.964649897814
6	36165	28868.500175644313	1.35261238946
6	36170	28871.367338184187	1.050567188673
6	36175	28872.832162356911	0.93046336025
6	36200	28882.235717556562	2.259438528057
6	36260	28945.296606669471	6.953754649651
6	36290	28974.439828319715	3.013368142116
6	36315	28998.976408836426	0.958479140326
6	36320	29003.869219169322	0.929963169899
6	36330	29011.768985110048	2.961254921804
6	36370	29045.225893701728	0.805075319298
6	36375	29046.996282277786	1.050797101483
6	36390	29074.883387521563	1.136473424919
6	36400	29094.037893597574	0.976286133844
6	36427	29126.321176585905	2.967827909347
6	36450	29142.207022151821	1.144055437297
6	36460	29145.860723980091	1.177013395107
6	36465	29151.72421475178	0.885303173494
6	36475	29169.158012294978	1.111110914592
6	36500	29191.071779701378	2.516055936312
6	36512	29197.058787017744	1.960205070517
6	36525	29212.721660361943	3.084032328495
6	36535	29224.078718855421	1.184277438838
6	36547	29229.858367956059	1.049327821936
6	36552	29230.770719547199	1.563728203195
6	36565	29234.420792220899	0.881021236908
6	36570	29246.271053761573	0.929669355042
6	36592	29279.345369001114	1.185035283864
6	36597	29280.389675034964	1.898875903923
6	36615	29295.620877757448	2.39033140321
6	36652	29331.540723488861	1.187982705235
6	36667	29347.563744012815	0.920677745808
6	36680	29350.439496197489	2.184949474145
6	36707	29357.709914784082	2.745132356439
6	36710	29358.790792252444	3.166936163915
6	36720	29367.157186430167	0.815412273444
6	36755	29412.306615210744	1.187408051547
6	36760	29413.668961013066	0.828589025978
6	36805	29451.39184855854	4.579448202562
6	36815	29454.786032675947	2.13625289734
6	36840	29473.366401923476	3.425517723128
6	36845	29475.067879760434	1.06738133179
6	36895	29548.862057543375	0.80756704798
6	36905	29555.953590914746	0.848842588253
6	36915	29579.762182500085	1.172562534176
6	36945	29603.620260720023	3.296674627777
6	36970	29643.911591027596	1.153435081616
6	37060	29681.672722402489	8.084516452867
6	37082	29692.192204635369	1.803442695662
6	37085	29693.341129151883	3.233792174794
6	37090	29696.330411659882	0.877251318656
6	37102	29701.255717202643	1.141373374793
6	37105	29702.073941359943	1.438502880939
6	37115	29721.398361916164	2.931867989133
6	37129	29732.482266186949	0.84942902308
6	37150	29751.2944322096	3.086044241314
6	37177	29783.504625137927	3.312835709589
6	37205	29793.028171618255	2.656911558844
6	37212	29797.311505556297	1.193527836818
6	37250	29821.782019611744	1.00554362461
6	37255	29828.211206146891	0.83044621693
6	37262	29832.726189399308	1.109681184497
6	37270	29835.558768195427	3.321113905053
6	37282	29849.044151483092	0.946034707502
6	37305	29856.655535732722	1.148071237653
6	37310	29862.171120360177	0.936153091211
6	37325	29875.217466281022	0.851330705453
6	37330	29876.779470619684	1.07171157226
6	37337	29885.507745702177	0.801634632517
6	37355	29892.002536618801	1.543508879218
6	37365	29911.20908141006	0.866309050843
6	37370	29913.4819980175	0.942237340566
6	37412	29944.285978153724	5.205537083544
6	37415	29945.273390515804	1.17283980175
6	37445	29955.104789042758	5.685716990448
6	37465	29968.678228385737	1.052381096035
6	37470	29975.179220098408	0.822899205424
6	37480	29981.544270043655	1.149752377719

