version 2
run Second_exit_2-8-20191114-11:42:30-8882
attr configname Second_exit_2
attr datetime 20191114-11:42:30
attr experiment Second_exit_2
attr inifile omnetpp.ini
attr iterationvars ""
attr iterationvarsf ""
attr measurement ""
attr network ResponseTimeNetwork
attr processid 8882
attr repetition 8
attr replication #8
attr resultdir results
attr runnumber 8
attr seedset 8
param **.Source.interArrivalTime exponential(5s)
param **.jobPriority bernoulli(0.6)
param **.PS.serviceTimeU1 "uniform(0.8s, 1.2s)"
param **.PS.serviceTimeU2 "uniform(1.8s, 2.2s)"
param **.SS1.serviceTime exponential(1s)
param **.SS2.serviceTime exponential(1.2s)
param **.PS.exitProbability bernoulli(0.2)

vector 0 ResponseTimeNetwork.sink lifeTimeU1:vector ETV
attr interpolationmode none
attr title "lifetime of arrived jobs U1, vector"
attr unit s
vector 1 ResponseTimeNetwork.sink totalServiceTimeU1:vector ETV
attr interpolationmode none
attr title "the total time spent  by arrived jobs U1, vector"
attr unit s
vector 2 ResponseTimeNetwork.sink lifeTime:vector ETV
attr interpolationmode none
attr title "lifetime of arrived jobs, vector"
attr unit s
vector 3 ResponseTimeNetwork.sink totalServiceTime:vector ETV
attr interpolationmode none
attr title "the total time spent  by arrived jobs, vector"
attr unit s
vector 4 ResponseTimeNetwork.QueueU1 queueLength:vector ETV
attr interpolationmode sample-hold
attr title "queue length, vector"
vector 5 ResponseTimeNetwork.QueueU2 queueLength:vector ETV
attr interpolationmode sample-hold
attr title "queue length, vector"
vector 6 ResponseTimeNetwork.sink lifeTimeU2:vector ETV
attr interpolationmode none
attr title "lifetime of arrived jobs U2, vector"
attr unit s
vector 7 ResponseTimeNetwork.sink totalServiceTimeU2:vector ETV
attr interpolationmode none
attr title "the total time spent  by arrived jobs U2, vector"
attr unit s
vector 8 ResponseTimeNetwork.SS1 queueLength:vector ETV
attr interpolationmode sample-hold
attr title "queue length, vector"
vector 9 ResponseTimeNetwork.SS2 queueLength:vector ETV
attr interpolationmode sample-hold
attr title "queue length, vector"
0	12610	10001.312197919404	1.079665744491
0	12615	10002.870365839724	1.149359207135
0	12620	10009.283224021317	1.032560980413
0	12625	10021.670395504062	1.058490969613
0	12630	10024.655550336899	0.903358172812
0	12637	10026.95549217146	1.118446502741
0	12640	10027.859041463864	1.714717623455
0	12645	10042.610707711457	0.94056177726
0	12650	10047.125104569404	1.155979321152
0	12655	10050.722193004857	0.924206642248
0	12660	10065.30822124376	1.114592150412
0	12682	10081.24642485047	4.238107162781
0	12695	10084.730393306028	5.434204372251
0	12715	10097.854454909041	0.898679630831
0	12720	10101.242151115505	0.826324726269
0	12730	10103.755121801903	2.065817603925
0	12735	10113.206596510299	1.156686326768
0	12757	10125.337330617846	0.817396234628
0	12772	10128.569422891219	3.675837044454
0	12775	10129.702684212611	3.674729619146
0	12780	10132.182509502939	1.152280674037
0	12785	10136.656939593586	1.160100660101
0	12790	10141.411114204098	0.836723679211
0	12795	10147.673290371915	1.174347724766
0	12800	10149.095537232008	0.857861933578
0	12805	10150.754176672068	0.925505014043
0	12840	10178.528354597877	0.981766938698
0	12845	10179.766002727163	0.928757421859
0	12860	10188.160237525137	1.037383018341
0	12872	10197.764784907789	1.314106326756
0	12885	10200.89284553682	4.886408441885
0	12895	10207.568666647153	1.055104931071
0	12900	10211.834065325547	1.050513289403
0	12905	10219.804666509848	1.114620508812
0	12912	10226.719737785192	1.069936627429
0	12930	10247.782579850945	0.893511635903
0	12940	10253.158120539946	1.005467558559
0	12954	10263.440484962407	1.543352409601
0	12962	10265.518292183316	3.848277910239
0	12965	10266.546611477694	4.180388584501
0	12970	10269.924910644898	0.815959281847
0	12980	10282.356381008498	1.187821961567
0	12985	10287.032281380815	0.893175166566
0	12990	10289.431208992727	0.981817252841
0	12995	10290.894999763387	0.975690381136
0	13010	10297.409593596531	0.878130826075
0	13015	10298.935035238577	4.649234299754
0	13025	10305.901767071804	2.604253448583
0	13035	10325.577841205516	0.940539650712
0	13040	10330.201035295909	0.921704178769
0	13045	10336.495239519214	0.927211426664
0	13052	10337.425034725413	0.811387622356
0	13055	10338.366031550084	1.490528641066
0	13060	10346.900291019952	0.914322429243
0	13075	10359.098179357397	0.877941773366
0	13080	10366.462218097793	1.012576852273
0	13087	10372.976860378958	0.932772293221
0	13100	10377.61996225113	4.968545687801
0	13105	10387.500425512265	0.946127046272
0	13110	10394.307354358413	1.163026254531
0	13115	10397.199434722198	1.109281939175
0	13135	10409.849852844481	2.107059349665
0	13155	10426.834184291647	0.802538681775
0	13175	10444.992236621938	4.389933880843
0	13180	10449.259484448483	1.126261829399
0	13192	10455.283674849783	0.86833988307
0	13200	10462.080810194043	1.120454442315
0	13210	10470.964640855604	0.899516714457
0	13245	10488.773819654058	1.587443201908
0	13248	10489.744518954582	4.797693435833
0	13259	10493.006471795399	1.696018675593
0	13285	10520.156039051888	2.58556484482
0	13290	10524.431446397696	0.819348629843
0	13300	10537.188434120383	0.924148318358
0	13305	10538.527203869161	0.833052972797
0	13322	10544.032180754983	1.026336697303
0	13325	10545.160651735825	5.019953345477
0	13330	10556.718759643865	0.854158886056
0	13342	10559.326665379133	1.052028287388
0	13345	10560.167024419576	1.714848900864
0	13352	10561.87027875976	1.041963345371
0	13355	10562.67838439382	5.522676949481
0	13380	10605.379343496353	2.72723641273
0	13385	10608.836506671855	1.018504897226
0	13395	10612.616561512823	1.109008644987
0	13400	10614.650413270587	0.980797601491
0	13410	10624.625052364542	1.145598449092
0	13415	10625.823374342161	1.001870595291
0	13420	10643.543533725392	0.938128465135
0	13425	10645.201649440179	0.859641083982
0	13430	10649.051738749548	1.089995857887
0	13435	10661.931172530345	1.007337811776
0	13457	10675.499392232438	0.94003170114
0	13465	10687.727577627075	0.978138073254
0	13487	10693.906527400353	5.244841594945
0	13495	10700.63690370406	0.84327660501
0	13500	10703.434721087955	1.028746193927
0	13512	10710.404599254086	1.62554674474
0	13520	10713.723194612673	1.06906247614
0	13525	10719.725886984543	1.150243419874
0	13530	10722.284716224303	1.174555305671
0	13535	10724.312109875717	0.883585742395
0	13540	10728.052558796612	0.930123529956
0	13550	10744.598256706852	1.180418638233
0	13562	10754.724323583258	4.554617648915
0	13565	10755.649883852856	1.095306425307
0	13577	10770.538145059786	3.195730252249
0	13585	10778.590726456283	0.897920490615
0	13590	10783.163128699252	0.939906815253
0	13600	10801.177120517099	0.930177383963
0	13610	10804.669144766594	1.12643466061
0	13622	10807.319604243749	1.538487413417
0	13625	10808.460945552253	1.696625027851
0	13630	10809.736765408113	0.827694917098
0	13640	10816.777100162463	1.114317885321
0	13660	10827.177838295538	0.811166050006
0	13665	10832.954149830519	1.060664574988
0	13670	10834.045948245036	0.903155656252
0	13675	10844.84068533076	1.027444114257
0	13680	10851.413172345851	1.064726363029
0	13706	10861.253549293466	1.797420642484
0	13709	10862.112380099055	2.97114241682
0	13719	10863.787204363235	1.290115165957
0	13730	10874.045628646206	0.961679061223
0	13740	10895.177814923462	0.957745259255
0	13745	10899.098223300413	0.814555688296
0	13750	10908.252278138356	1.194656522665
0	13765	10918.80366003233	3.567254611148
0	13770	10920.192556516225	1.19354407331
0	13775	10924.222208238585	1.167915532552
0	13785	10928.991197825278	1.140373905841
0	13795	10934.899499390099	1.02672354104
0	13805	10946.473063413422	1.083734657522
0	13810	10964.636860760793	0.965986518282
0	13827	10970.949756526017	1.040645893756
0	13830	10971.947741110345	4.412781151698
0	13840	10979.598774949908	1.139925048128
0	13845	10983.480671478415	0.952364537679
0	13850	10985.546817971521	1.103332922328
0	13855	10991.01097262729	1.064312267583
0	13865	10998.230927692035	0.852282284945
0	13877	11010.348704596678	0.881763950642
0	13880	11011.47596655765	1.40359178853
0	13892	11022.209975690923	1.12698366046
0	13902	11025.872405897907	3.925124481681
0	13910	11030.909906713702	0.901471596118
0	13915	11036.987485466328	0.858384832088
0	13920	11038.006066326805	0.933900120575
0	13930	11044.72155724881	0.801727629453
0	13935	11056.015628653184	1.134667707235
0	13960	11064.067513979232	1.364374372417
0	13965	11075.285393049716	0.822738858406
0	13980	11092.352771222882	2.59301358571
0	13989	11094.720211007404	1.181904838141
0	13992	11095.700343668791	1.979147724234
0	14010	11099.795620308845	3.063483136948
0	14015	11104.07857534459	0.919460138585
0	14030	11112.119853362374	1.116378229484
0	14072	11141.718805883978	1.020297233853
0	14085	11156.232772478487	0.981187969632
0	14097	11161.209068557866	1.728448046509
0	14115	11165.414597062289	0.864924075361
0	14124	11167.078334124568	6.735328466882
0	14142	11171.18471957349	0.886212947687
0	14162	11178.418419894319	1.586200117409
0	14177	11182.559384432326	4.424846900952
0	14182	11183.511442349463	10.633469150108
0	14187	11184.342104155648	1.562389875433
0	14245	11232.956271847228	0.807419065665
0	14265	11248.13878750779	0.821827540826
0	14270	11255.062271320054	1.02768024737
0	14290	11272.548923123661	1.086533260066
0	14310	11284.983446494872	3.996855721449
0	14320	11298.62888006966	0.890121192951
0	14342	11309.399727281328	3.908366427943
0	14365	11316.609626973024	1.12200746839
0	14372	11318.067581281621	0.989842045959
0	14382	11320.271064446281	8.389277791181
0	14400	11327.817015461651	2.433888869113
0	14409	11335.420844780201	0.877631417755
0	14417	11337.586383854704	1.608059242241
0	14427	11339.338847829321	1.711027267551
0	14430	11340.464270945092	5.458431843066
0	14450	11351.506476585497	1.122595423582
0	14455	11356.534532857595	1.134053398203
0	14475	11363.628181703075	3.724316661947
0	14487	11375.10802765224	1.237717632958
0	14492	11376.269043729788	1.282873097489
0	14506	11378.546670725064	2.244929527479
0	14509	11379.705687063055	2.6690521521
0	14525	11385.134230611497	11.766859926719
0	14530	11386.034223533414	0.824046634231
0	14550	11398.166184725692	1.170456398372
0	14565	11402.675830671448	1.355954720917
0	14600	11430.680299186054	1.175270258542
0	14615	11443.587112930062	0.811556169111
0	14627	11449.16463540924	0.996253247
0	14650	11470.224944091004	1.051412774064
0	14670	11494.090852523946	3.018966240436
0	14675	11498.296210366328	1.059944559261
0	14682	11503.724347129429	0.805448160321
0	14690	11506.626767690475	3.453799319126
0	14695	11509.346873508269	1.138760677073
0	14700	11510.427052159304	1.041865029093
0	14705	11523.808602521612	1.168105319515
0	14722	11530.583329361045	0.945276907459
0	14727	11531.423302993664	2.873915306834
0	14730	11532.434869302457	1.68875888898
0	14740	11567.388914478619	0.855521722138
0	14745	11584.080020747818	1.059375541005
0	14750	11586.631449196951	0.96063801283
0	14760	11619.265855655883	1.097584800888
0	14765	11620.317948472364	0.858505279291
0	14772	11622.291390864663	1.125471401401
0	14775	11623.19835209392	1.788542270092
0	14780	11625.887867115927	0.999909886811
0	14785	11631.646816176087	1.138213510904
0	14807	11643.644365248205	3.392869613377
0	14815	11645.291725702798	1.436967617441
0	14825	11655.399540390316	0.999837611988
0	14830	11658.211558094508	0.972397397365
0	14835	11669.793655673806	0.956987435464
0	14840	11672.672622352208	1.173392003588
0	14845	11678.583631004692	0.975882880203
0	14850	11680.573200050849	0.952209758013
0	14866	11685.854303108091	1.08605350922
0	14874	11687.804940581443	1.98875246786
0	14882	11689.709829876787	4.920624479624
0	14890	11691.950176381062	1.069169867784
0	14897	11703.372458005695	1.186329583265
0	14912	11717.920255652926	0.966333446652
0	14925	11730.092393518117	3.326209803649
0	14935	11735.249512430544	0.971831767447
0	14957	11745.191116305986	0.876829230089
0	14960	11746.375103962035	4.662805416777
0	14965	11749.152386645125	1.115175520349
0	14970	11751.145202182833	0.990878850687
0	14980	11756.69616194155	1.167318440415
0	15000	11763.927545708503	1.011843729485
0	15005	11776.857936668306	1.069697860628
0	15012	11780.414238802176	0.848955927044
0	15020	11783.208864619052	1.08863240825
0	15032	11786.705829024635	1.504213974312
0	15035	11787.50893435622	2.801866010018
0	15050	11795.905254816073	2.414779700863
0	15062	11800.326510555152	2.286572685136
0	15080	11807.753198751424	1.083661532309
0	15089	11817.006603749662	1.16096720146
0	15094	11817.815087823949	0.870321687438
0	15097	11818.830079626578	1.708339482798
0	15110	11834.320300241505	0.99823422106
0	15115	11843.337489472793	0.903828150593
0	15120	11846.816499647864	0.948971477896
0	15130	11860.603423834943	1.023661227524
0	15135	11864.030897610926	0.907288945653
0	15140	11865.666450086265	1.14969012104
0	15155	11879.073720693641	1.067533845361
0	15160	11883.337057706173	1.139655785449
0	15165	11887.520802260487	0.995360691566
0	15175	11896.932834111595	0.832321843226
0	15185	11900.481946768816	3.156765223149
0	15195	11903.188919402738	1.505924353366
0	15207	11905.754325567195	4.533292315272
0	15212	11906.652949253199	2.766625407618
0	15225	11916.874023682027	0.937686509639
0	15230	11919.585353459249	1.001767680515
0	15235	11926.319350562732	0.817970005609
0	15245	11941.893303964409	0.859767731093
0	15255	11944.646552706856	2.20684212312
0	15265	11950.0402817233	4.300823366418
0	15270	11954.861922442494	1.068015579879
0	15275	11956.514592248657	1.036175831966
0	15287	11959.302002967097	1.551505007304
0	15290	11960.395444593806	2.558771718793
0	15309	11969.834708172592	2.214456342612
0	15312	11970.733185826192	1.560126058764
0	15315	11971.925572776186	2.247800079535
0	15335	11982.538362431696	1.159337518085
0	15345	11985.557578015462	2.089849848942
0	15352	11992.878465695374	1.016552957892
0	15365	12001.251431768426	0.981953956373
0	15380	12057.156350810712	1.098129192553
0	15395	12071.365517242951	0.815997761954
0	15410	12118.228229082609	0.978012402914
0	15422	12124.540089913055	2.224050805364
0	15445	12148.465782476182	0.990476952679
0	15462	12161.832889436477	0.893378316611
0	15465	12162.973532031861	1.888320651553
0	15475	12173.933997391305	0.905961730983
0	15492	12187.836615521638	1.091993435193
0	15522	12196.009170592367	2.073626616787
0	15540	12203.245995546903	0.933307653759
0	15545	12210.283389409113	0.881755040679
0	15562	12214.632766579368	1.343968562039
0	15594	12238.231061461033	1.040182283148
0	15604	12240.172196652764	2.453587670719
0	15609	12241.204253207264	2.518485631786
0	15612	12242.099978697603	10.170674703571
0	15620	12254.694976554544	0.811859028507
0	15625	12256.618786192101	0.832448184118
0	15645	12282.556752658563	1.114753102884
0	15650	12289.745769172517	1.180302704498
0	15660	12297.117672130392	2.759405800177
0	15665	12300.535689271792	0.861610086355
0	15680	12304.230509464195	1.004435118567
0	15695	12311.428278455459	1.131246634666
0	15700	12317.326771342324	0.868089560699
0	15705	12319.468484518435	0.814108909108
0	15722	12338.092331484854	2.75053164795
0	15747	12345.629262552562	2.957660005645
0	15760	12351.524909695612	1.808434093645
0	15765	12353.25659420815	0.838077474851
0	15785	12363.397331755689	1.0607217988
0	15797	12369.459318821036	0.953321021322
0	15832	12381.963418413974	6.812018317884
0	15837	12383.099836845319	2.439503097924
0	15852	12387.436323559205	1.035101592075
0	15859	12388.524548001508	1.503821199361
0	15862	12389.521868721875	1.752250990118
0	15882	12394.26379625328	1.652196325656
0	15887	12395.366678259951	7.577092847357
0	15897	12397.741445896131	2.935259916391
0	15900	12398.608153365468	1.833843981318
0	15905	12402.131843945123	1.056681186799
0	15912	12404.881156415994	0.801443286426
0	15915	12405.760575996003	1.315603522401
0	15925	12409.479479222568	1.322708558986
0	15930	12416.190185007197	1.044070228096
0	15935	12423.834086460873	1.04781041285
0	15942	12428.428153498476	1.016924350988
0	15945	12429.319953739835	1.322258266283
0	15955	12433.523630065237	3.584063917943
0	15960	12434.880705914495	1.131197199877
0	15970	12440.294973337993	3.365431798265
0	15992	12456.192619604463	1.694934177847
0	16000	12460.000850171162	1.059719590656
0	16010	12477.433498873301	0.816587547865
0	16020	12487.107268266052	0.949818676431
0	16027	12497.307843605278	0.910693854373
0	16040	12501.416934663962	1.460866362134
0	16045	12508.830170027131	1.129737073556
0	16055	12516.429953210908	3.947297687643
0	16060	12522.155750503226	1.013270476274
0	16065	12532.405216538545	1.069228842948
0	16075	12537.014462230726	2.67011568556
0	16085	12545.864178432197	1.03077752376
0	16097	12555.235420018873	1.04603622891
0	16100	12556.23365640293	1.334397698558
0	16105	12560.755256941123	1.113917953894
0	16112	12563.463202873587	0.936682012677
0	16120	12570.02189516342	0.999283523299
0	16135	12576.237596275425	1.03097504694
0	16140	12577.465008502927	5.476362504557
0	16160	12582.634744396053	4.667715775043
0	16165	12586.569992904976	0.894378018565
0	16175	12593.874600914669	1.039774355199
0	16190	12601.852468910496	2.161528428356
0	16212	12615.597724945954	3.040386316091
0	16217	12616.771757215	1.628807421606
0	16235	12626.217435107032	0.810994481388
0	16261	12630.758240836121	1.817738055708
0	16264	12631.838990487631	4.478577270744
0	16282	12635.897614202655	1.82285597443
0	16285	12636.751473175927	6.719203888549
0	16295	12639.063628559185	0.907719386831
0	16300	12641.244788730283	0.890855137259
0	16307	12649.454419237344	1.166562893987
0	16312	12650.47586431882	1.379733525573
0	16331	12656.862870096815	1.209812051275
0	16334	12657.908544299499	1.575099172811
0	16352	12681.106872859379	1.113891329244
0	16360	12724.281413517609	1.194616073836
0	16387	12731.212265645389	3.860315070271
0	16397	12734.553903574494	0.836601129174
0	16400	12735.728124164601	7.35859629544
0	16405	12745.991366419797	1.109928268194
0	16410	12747.631286311275	1.129404810909
0	16420	12759.203966596448	1.357891955034
0	16425	12760.578739602464	3.569978692071
0	16435	12763.040599325585	1.909958377094
0	16445	12777.100745649171	1.028050864767
0	16450	12785.901169380867	1.085169284698
0	16455	12787.960228700625	1.011280180793
0	16462	12791.042783980855	0.876245430112
0	16474	12793.250530248453	1.505601122217
0	16502	12800.578502032893	0.949444218446
0	16517	12803.722610152408	1.110699631418
0	16535	12816.645050995694	0.909157524258
0	16545	12820.155996608716	1.303629117683
0	16560	12842.050422467395	1.00217584921
0	16567	12849.526529105889	1.141766168922
0	16572	12850.643930105815	2.231231645754
0	16575	12851.522741407199	1.275662299537
0	16590	12868.138498274861	1.053284975514
0	16600	12883.717758163097	0.978285612166
0	16605	12885.493603742741	1.152249462903
0	16620	12896.574969181005	1.169722744052
0	16634	12921.603254799634	1.15778499525
0	16637	12922.795558716446	1.656272147061
0	16640	12923.876396979667	2.469267584887
0	16655	12928.723534994464	0.901494885236
0	16665	12932.4542552193	1.406281754537
0	16675	12941.23285845201	1.073328423128
0	16685	12949.330131905991	0.871920135338
0	16690	12959.766869066275	0.813900598232
0	16710	12965.360594432192	3.342631065964
0	16725	12972.037982250449	0.957537431549
0	16740	12989.229895321141	1.023865784239
0	16750	12998.264193547504	1.196596404538
0	16762	13009.184058786638	1.065210565459
0	16767	13010.346439514391	1.322235279844
0	16772	13011.210120781872	1.150722444383
0	16775	13012.177953289531	1.585059553627
0	16780	13024.883209797103	1.181845558994
0	16785	13047.1236860657	1.151384799555
0	16790	13048.985669396985	1.015327316895
0	16815	13063.877921569078	2.344486853374
0	16825	13073.717159313359	0.836943742633
0	16835	13085.520666943769	1.089740831312
0	16840	13091.499645379251	0.89112267755
0	16845	13096.860357487203	0.963068766333
0	16852	13099.093437229495	1.006024866737
0	16855	13100.080773213252	1.078653262691
0	16860	13108.462759278	0.820916496776
0	16865	13110.593329397794	0.984059296083
0	16870	13125.323724044992	1.031503470242
0	16880	13132.307008793996	0.923176814895
0	16885	13139.225325531674	1.023067696299
0	16897	13149.078281592238	1.598060063892
0	16900	13149.976461213115	2.74949441012
0	16907	13156.153042350207	1.06245103972
0	16920	13164.551487869837	1.180537881423
0	16930	13171.538276721819	1.033758629765
0	16940	13178.55790000041	2.70483955771
0	16962	13204.495674108543	1.869072290744
0	16977	13207.341193387952	1.267909832872
0	16990	13213.474541692444	3.059769153905
0	16995	13219.565799123343	1.01525422046
0	17015	13232.453120253122	1.217279345224
0	17030	13241.852061147678	0.805649283901
0	17040	13267.666082825597	1.039362275973
0	17045	13286.499295403139	0.959683565982
0	17050	13294.300401669256	0.874017082434
0	17057	13298.141380898515	1.128378811199
0	17065	13306.461938070014	0.899294547085
0	17070	13313.535866921943	0.943790734187
0	17075	13317.197521591142	1.163055129256
0	17095	13327.178288038693	1.691184835099
0	17100	13339.661672917933	0.85838699704
0	17105	13345.398751556108	0.983349935059
0	17110	13350.076809790162	1.089157164004
0	17127	13356.957378002004	3.506337825271
0	17130	13358.123473680047	1.416037318796
0	17137	13360.105586409796	0.895521336421
0	17149	13362.382813333418	1.066506301891
0	17172	13369.929658892382	1.317019314879
0	17175	13370.746093466137	1.697537885559
0	17187	13382.164941847494	1.066736219358
0	17190	13383.224104028365	4.195818182399
0	17195	13384.715387103716	1.191544070281
0	17200	13399.891805264107	0.988028115034
0	17205	13403.234378557577	1.178404608835
0	17220	13416.435233389076	1.385820890668
0	17237	13432.298565309752	1.116508426331
0	17240	13433.266054854054	0.989241530857
0	17245	13438.914016575715	0.894378059637
0	17255	13447.246973302973	1.172893020138
0	17265	13469.606285824192	2.166419174435
0	17275	13478.53991937622	2.253660124143
0	17285	13485.745958291066	0.858368876204
0	17290	13496.544307152344	1.143166579586
0	17305	13504.476251873856	0.906993809715
0	17325	13521.528186281	1.021910723019
0	17330	13522.78198572061	0.98163395226
0	17335	13524.647077686929	5.155935857698
0	17347	13532.624017949853	0.951330838166
0	17355	13534.646936370454	4.383981554296
0	17360	13538.009627578572	1.116526492964
0	17374	13543.514060642957	1.063460184354
0	17394	13547.731582251228	1.288652292199
0	17422	13561.363956501965	1.06876067752
0	17425	13562.373308633432	1.236818853646
0	17432	13563.89934113852	1.152801997215
0	17435	13564.841809613605	1.18428268255
0	17440	13572.992079553378	0.829395413771
0	17445	13579.116207542805	0.969946084823
0	17450	13581.143115982343	1.15497544799
0	17459	13594.401300425282	1.068314545415
0	17462	13595.243805936737	1.21715191669
0	17470	13597.992548387147	3.857785873025
0	17482	13604.324612109956	1.071349043492
0	17487	13605.434495090355	1.245764567874
0	17512	13639.88624778688	2.02311804438
0	17524	13641.707073632629	1.583056521514
0	17527	13642.840876573605	2.171267583986
0	17535	13647.162299565911	0.869613917917
0	17540	13653.643234919507	0.853463172261
0	17545	13656.048197582772	0.933648178168
0	17565	13670.807269552872	1.082154395245
0	17595	13729.514328457117	1.137272429559
0	17605	13734.047358815276	2.285741659113
0	17610	13743.317960462068	0.927889658138
0	17620	13749.713815353785	1.196462139953
0	17630	13768.909525879386	1.147575682029
0	17635	13772.043382580766	0.960407285392
0	17645	13812.100220243983	0.966031512246
0	17650	13814.239729853045	0.993594047707
0	17680	13841.408486493127	2.840131917345
0	17700	13860.099346753897	1.011187099759
0	17705	13876.81250696248	0.894589240942
0	17715	13890.614261627753	1.073520447128
0	17725	13896.117451344041	1.639571859912
0	17742	13903.525551930986	1.638191369429
0	17750	13908.78783729704	0.908862377889
0	17762	13921.686568844023	1.104944722261
0	17772	13926.105212650984	1.186158016138
0	17780	13938.187536859882	1.159347220883
0	17800	13948.81955022416	0.827772921603
0	17805	13952.325184606649	1.17253031265
0	17810	13954.208832720634	0.84482134385
0	17815	13956.966133762904	1.063782336563
0	17820	13960.397982795421	1.157675296161
0	17830	13964.152687507704	1.67740593394
0	17845	13975.72698737748	0.938720498141
0	17860	13992.424819439767	1.988682114219
0	17865	14008.255913797629	1.00975431595
0	17877	14014.087675095787	1.080730536077
0	17885	14016.297317546081	1.032659324724
0	17905	14021.878657846123	9.65271004075
0	17910	14024.92528610014	1.07310675662
0	17919	14043.264356771962	1.013933389075
0	17922	14044.235299626378	1.400782151466
0	17930	14046.335974975791	0.882872594893
0	17937	14047.45182608206	4.278098349601
0	17960	14065.370343271795	0.853887140006
0	17967	14068.364545591986	0.908641990088
0	17980	14084.37741059139	1.134431208763
0	17990	14090.747274325502	1.378927246069
0	18002	14093.536013838166	1.23302034769
0	18012	14102.733424322572	0.997614345327
0	18034	14106.769992610984	3.393454205937
0	18037	14107.903128063478	1.756600661783
0	18045	14109.771261811987	1.186618519535
0	18072	14115.472446088564	1.080761875615
0	18085	14118.575521519414	0.84102466153
0	18102	14123.399224371194	2.074563071097
0	18105	14124.517017482697	2.107790290778
0	18115	14128.566251586116	1.189004640933
0	18125	14131.343130026159	2.224178532259
0	18140	14138.406076468381	0.873381207231
0	18150	14164.022561242159	1.082602013089
0	18155	14167.153102373464	0.807600114774
0	18165	14191.93820588847	1.032454374201
0	18177	14206.754030623494	2.401727257142
0	18180	14207.71290443849	1.189953632072
0	18202	14226.921464826189	1.688019675414
0	18214	14229.08351366131	4.19267751174
0	18227	14233.306888230673	1.123850602843
0	18230	14234.494862831819	13.929242942593
0	18240	14246.974912655877	2.168639927696
0	18245	14248.273853198675	0.975852562394
0	18250	14250.234230097803	1.092158260103
0	18265	14287.630683488856	1.197363613918
0	18277	14293.861919715677	1.288088728936
0	18285	14297.709641564828	5.750815427817
0	18305	14307.173044442512	7.562169970781
0	18310	14308.922291264637	0.981529749278
0	18315	14314.366205732342	0.823429100867
0	18325	14328.62848557269	2.135795993306
0	18335	14352.103819672563	0.955458477698
0	18345	14363.485503861379	1.025368253421
0	18350	14368.147075443004	0.940874047577
0	18367	14391.497966317892	1.056055131368
0	18372	14392.364213429637	1.144639601716
0	18375	14393.441063006375	1.907545836516
0	18380	14399.253750828842	1.146366244648
0	18397	14412.024315879855	1.194062427945
0	18422	14422.001126924348	4.507961819773
0	18448	14427.423860443619	1.875231218111
0	18451	14428.224175811888	8.217150872074
0	18454	14429.26838360797	6.474837457781
0	18457	14430.279572325343	4.983603169211
0	18465	14438.828489415751	1.156287432928
0	18475	14440.987712469853	2.091694167567
0	18490	14460.025278631967	4.011886192978
0	18495	14468.745000104247	0.917045131233
0	18500	14474.365522670734	0.812393616326
0	18517	14488.456227894123	0.980940012541
0	18522	14489.288803543984	4.703498662492
0	18525	14490.303953038803	1.776209393997
0	18540	14500.663974702922	0.894419567101
0	18552	14509.450075215433	2.290432519868
0	18570	14515.289158175845	0.941656034254
0	18575	14527.539080959124	0.877841611113
0	18580	14538.293770027546	0.953850387689
0	18585	14540.900871300227	0.80512612788
0	18590	14544.857963551723	0.913486601785
0	18595	14569.227274334879	1.158000669628
0	18600	14577.585166827914	0.823871416785
0	18607	14587.438092986571	1.096185716148
0	18610	14588.245317541978	1.576806223125
0	18615	14591.032860354353	1.166095034778
0	18625	14596.744592456165	2.006155195455
0	18640	14629.91931904291	1.045248661656
0	18660	14636.00297051541	1.800930238968
0	18667	14637.80926617739	1.162496454455
0	18677	14639.899441279632	0.966827455442
0	18709	14661.065237636301	1.012608667836
0	18730	14685.200929026683	2.559999179045
0	18747	14694.816786659213	1.03846928248
0	18760	14697.852213881708	3.186601789859
0	18782	14707.631396692805	1.282943498683
0	18792	14709.895533654341	4.200901430255
0	18795	14710.721905844068	1.845201899081
0	18800	14713.172330467741	0.96595694907
0	18815	14728.659558500368	1.084704854432
0	18820	14735.046799939086	1.181020506937
0	18825	14738.671342730113	1.015016272292
0	18845	14755.309282069895	2.004566926743
0	18864	14767.445648665385	0.929735163786
0	18867	14768.415197384389	1.023604183707
0	18874	14769.314821017099	1.920983491284
0	18877	14770.212180102648	1.382183678171
0	18880	14771.262324776346	2.29971579439
0	18892	14776.691996328079	0.944374359492
0	18895	14777.583551263821	2.84009244522
0	18900	14785.617138625185	0.897999121621
0	18915	14794.60698246286	1.36221206804
0	18930	14810.377200954041	0.959545893222
0	18935	14811.825238737961	0.917925508413
0	18955	14821.180424692391	6.684726192326
0	18965	14826.934458644138	2.313791588469
0	18987	14840.221448303788	0.948767545167
0	18992	14841.243936305336	1.023151552173
0	18995	14842.23784031964	4.745729694663
0	19000	14855.376553335341	1.07777813198
0	19009	14857.590395823828	1.12006696742
0	19014	14858.763826855793	2.032816399852
0	19017	14859.682138132732	2.686641062408
0	19032	14866.527340016352	1.025646094047
0	19050	14877.178716960528	1.773302576069
0	19055	14882.626863952127	1.170177734923
0	19065	14894.182240946574	0.943750864733
0	19070	14895.453870194889	1.072541270498
0	19080	14904.505815835114	0.935808699019
0	19090	14915.739859320188	2.008780748605
0	19095	14920.591279195247	0.926770372596
0	19100	14924.298371091165	0.868831939157
0	19112	14928.824547436704	0.918147261161
0	19115	14929.958923929521	1.369233395016
0	19130	14940.608393174076	1.15173258232
0	19142	14943.733799236575	0.818216203991
0	19157	14947.635183323829	0.914507263247
0	19162	14948.601851049906	7.089154810231
0	19165	14949.755052371046	4.834631851487
0	19170	14959.276322673387	1.108150654007
0	19195	14988.447319461537	0.815615703072
0	19200	14989.452802731433	4.91598192596
0	19205	14999.006078066226	1.174586626887
0	19210	15008.571428634132	1.170042494778
0	19220	15036.091448121188	1.043416705634
0	19257	15060.919155048866	4.765570223862
0	19267	15064.051952769651	1.07815252319
0	19282	15077.276559512406	1.282354481415
0	19285	15078.447041832744	1.842177789932
0	19292	15079.901564812377	1.186928283423
0	19305	15087.321748898107	0.824072271027
0	19310	15094.87975663389	0.864124038257
0	19315	15102.009593105834	0.869231947232
0	19330	15117.106019793983	1.797063505053
0	19337	15119.572258898928	0.904702027515
0	19340	15120.502505537621	1.433517223743
0	19345	15124.191030794687	0.960808736179
0	19350	15134.240536503701	1.011167118233
0	19385	15151.332987251633	0.808732124325
0	19405	15159.129010098326	13.49889436659
0	19412	15161.318059306841	1.062984913401
0	19415	15162.28516421492	1.943952235765
0	19422	15175.239765552618	0.932026058342
0	19430	15183.55005048526	1.091839620657
0	19435	15188.800403762861	1.164476506971
0	19460	15203.41138872904	0.80591613166
0	19465	15204.335823359272	0.838224078156
0	19485	15226.78458931642	1.617459429156
0	19522	15245.155511060164	0.828178266063
0	19530	15247.478736914967	1.585595846258
0	19545	15258.429959953558	1.94240632787
0	19550	15259.72629025254	1.163895301521
0	19555	15262.272547695546	1.002923456952
0	19560	15271.260016845996	0.865985791571
0	19575	15279.925282969324	3.581902624251
0	19585	15297.012928310665	1.00523776859
0	19590	15303.059769964046	0.840049061365
0	19595	15306.249052558246	1.068761539645
0	19600	15309.313140755937	1.063416587282
0	19605	15312.594929204364	0.985085563269
0	19610	15318.838363378723	0.827898407169
0	19615	15322.117006861321	0.950873668678
0	19627	15341.055124417181	1.037025998253
0	19630	15341.946651911783	1.403812871621
0	19640	15356.317637091132	1.166631720774
0	19645	15378.71117959832	0.9415826221
0	19662	15395.050414715803	1.418897728764
0	19675	15398.197060186325	3.856691382101
0	19692	15407.822791695431	1.131829308134
0	19704	15409.915256994706	2.032362091483
0	19730	15419.810668523623	1.115081207175
0	19740	15425.02073388567	3.857449417659
0	19755	15462.561867774792	1.04031735491
0	19775	15480.469181247463	5.748711645217
0	19780	15481.517079600619	5.097199232166
0	19785	15487.287839906037	1.034652470052
0	19794	15493.748888123279	0.985887062363
0	19810	15512.162603013986	1.065360749885
0	19815	15518.86486936614	1.006414145138
0	19830	15540.858007014976	2.991338542185
0	19835	15546.118294173512	0.906316737644
0	19840	15551.583321664847	0.826741634496
0	19850	15562.78172514904	0.982283537742
0	19855	15571.882985941291	1.189332122263
0	19860	15577.625272995158	0.987151322421
0	19865	15584.741999180465	0.907989021577
0	19870	15587.270109025213	1.188350742403
0	19875	15597.122419154846	0.812610142585
0	19885	15612.629027022614	1.078799939621
0	19895	15621.341402026098	0.848146806657
0	19902	15632.193783888302	1.165745113045
0	19910	15636.853526117712	1.113325355481
0	19932	15663.055972663195	4.247417063423
0	19935	15664.008236288347	1.442080918353
0	19945	15666.726756525974	0.89310395699
0	19955	15697.620501089982	1.161576264631
0	19960	15710.011176796558	0.970982278604
0	19965	15721.406766833098	1.186741561163
0	19975	15745.418232042376	2.5397084445
0	19990	15762.120458380217	0.887317799684
0	20037	15787.326030270229	2.649787384877
0	20040	15788.36493165459	1.396452048887
0	20045	15792.752533414788	0.963102082349
0	20055	15796.479781933239	0.815452539735
0	20062	15800.580884823684	1.195489251148
0	20074	15802.951353005547	1.043421021663
0	20079	15804.026262106601	1.168641860148
0	20084	15805.031824836083	1.264465822798
0	20105	15818.447697835064	1.083704539575
0	20125	15845.9533376568	1.250915685764
0	20135	15859.535300974339	6.038374863
0	20140	15869.795267413263	0.861227702256
0	20145	15874.733868956226	0.885218353942
0	20150	15883.625523204764	1.164501137007
0	20167	15896.373349835106	1.954609798839
0	20170	15897.18088109981	2.875027299859
0	20175	15903.612487499855	0.952639096323
0	20192	15909.874326186991	3.828213373082
0	20202	15911.654402879337	1.12083591338
0	20270	15958.296189310639	1.107806572318
0	20279	15962.904152063702	0.986174373422
0	20284	15963.789990079638	1.393420732545
0	20295	15973.529464850342	1.169887031429
0	20324	15989.901849925887	0.866855509579
0	20327	15991.037851203602	1.77926386971
0	20330	15992.072651136197	5.805394057742
0	20360	16015.181715176091	1.753144206444
0	20377	16026.830932267106	1.115613244853
0	20380	16027.681181333682	1.777843950795
0	20411	16068.505671314661	1.385958408256
0	20414	16069.695500395492	2.405607064368
0	20427	16072.71924874545	1.541609977457
0	20435	16075.80696776033	0.801218769886
0	20452	16094.125440878211	2.302061361836
0	20470	16104.472442040975	1.015855524782
0	20475	16108.701404032294	1.062159449048
0	20485	16122.983031826146	2.364898187466
0	20490	16130.542656652222	1.06819815971
0	20500	16138.202556409699	1.140395659022
0	20507	16144.393186126435	0.890783862863
0	20510	16145.515738053033	1.936476705129
0	20532	16159.106951029915	2.768392055575
0	20535	16159.972208236009	1.453658417963
0	20545	16168.443034213869	1.09450371908
0	20585	16195.639762434331	1.171484347992
0	20590	16205.813838259628	0.923107312061
0	20595	16213.393364799089	1.063255963009
0	20610	16220.723383875026	1.071441032086
0	20620	16237.325303990473	1.075813088194
0	20632	16248.837890656303	1.14189974498
0	20635	16249.90119088079	1.314081353421
0	20645	16254.308614701942	2.707161482761
0	20660	16261.783704500131	3.108730520773
0	20665	16265.027908738515	0.809982844628
0	20690	16288.506858646172	7.646458504055
0	20695	16295.721821444247	0.835819312464
0	20712	16305.556551713773	1.635333330126
0	20715	16306.634054162444	2.754726943002
0	20720	16308.120197482665	0.819109318964
0	20730	16313.45919219416	3.234977211163
0	20735	16322.990243831822	0.83491728697
0	20750	16342.434603251764	6.674486665265
0	20755	16346.299210771374	1.169380457141
0	20770	16356.491648031017	1.07535590874
0	20775	16358.463050973853	0.864211760648
0	20780	16378.387756850355	1.160821438581
0	20785	16380.583496696121	0.905030045938
0	20800	16387.435270762753	2.655532006267
0	20810	16398.82713197589	1.004024483822
0	20815	16406.334460984276	0.85803835839
0	20820	16413.109943804825	1.133442613762
0	20825	16415.851888460098	1.183842328377
0	20872	16447.079206207829	1.137687491253
0	20875	16448.262632043442	5.789563341898
0	20897	16471.103485965252	1.798600134068
0	20917	16477.303720364693	3.204867374338
0	20927	16480.433926422059	1.112485112716
0	20947	16491.133193253862	1.042269969173
0	20950	16492.197441500468	4.878401078133
0	20955	16496.098621558098	0.975836643018
0	20965	16516.752681986555	2.060020706345
0	20970	16528.343031560133	0.841656065825
0	20975	16530.413921266943	1.031914250832
0	20980	16541.114715590712	0.951435007434
0	20992	16547.136503170375	1.16211260166
0	20995	16548.071929953099	1.367859618468
0	21000	16549.223064856184	0.903783418797
0	21010	16560.356969776552	4.723580466371
0	21017	16562.725921516849	1.057059122063
0	21025	16570.018281830728	0.876324859075
0	21030	16575.500757471949	0.819167563412
0	21050	16600.615754795612	3.162768279272
0	21055	16605.782057150975	0.863319347147
0	21070	16618.752803393296	3.589659788583
0	21080	16629.855935478452	0.988523490075
0	21085	16631.649889672685	0.899596702773
0	21090	16642.274109489945	0.956112546753
0	21112	16650.299811497922	0.97622489417
0	21135	16659.283222458375	9.421596826775
0	21140	16670.102294878828	1.181161306519
0	21150	16674.642216576723	2.807163939642
0	21162	16689.457230336539	1.39937761139
0	21170	16695.386267239515	6.861763665885
0	21175	16703.936822290045	1.153854880761
0	21185	16756.393736359624	1.153523659334
0	21200	16769.407439609705	4.440596884203
0	21215	16779.340745602261	1.14290786488
0	21235	16800.04481388741	3.187946068467
0	21240	16802.996493024324	0.90053761052
0	21245	16811.53227942672	1.197393544298
0	21255	16826.750614244733	0.918254122511
0	21262	16829.085940205147	0.945559694245
0	21285	16837.334161938718	1.606359020242
0	21307	16842.62472008825	4.109477466946
0	21310	16843.548217516343	3.948284095948
0	21315	16844.663740079291	1.021277838573
0	21320	16849.168872039792	0.979661473073
0	21330	16852.665648544953	2.56438001768
0	21335	16857.18477643979	0.858123803604
0	21345	16863.027019483972	1.154671830125
0	21357	16869.094334790169	0.849422465896
0	21375	16873.766980110703	6.361611332815
0	21385	16877.076314713158	1.816814629691
0	21390	16882.392057859046	0.996757204551
0	21395	16887.698304940279	0.957540104631
0	21402	16893.54917533704	0.837293504551
0	21410	16895.72796349702	2.319837924317
0	21415	16901.790197975114	0.903527896199
0	21425	16909.022034184111	1.170332324319
0	21430	16916.160511706965	0.867519707605
0	21435	16919.421712260192	1.023844810389
0	21442	16922.43669276032	1.031000872701
0	21450	16925.95601096062	1.023609076161
0	21472	16932.219967902997	2.534251120172
0	21475	16933.388815427092	2.011572472303
0	21487	16960.732729985124	0.905791211128
0	21490	16961.794853502909	1.419809286868
0	21495	16963.363769497633	0.856532023102
0	21500	16964.550687511404	1.067613112926
0	21505	16966.537536251282	0.930329421163
0	21550	17018.832136025558	1.044467119314
0	21567	17023.345993363711	1.148296620983
0	21580	17035.273959962735	1.112996304408
0	21590	17040.481300038795	0.978852710873
0	21627	17070.753221609711	1.725472153228
0	21632	17071.690869936428	1.732298058807
0	21635	17072.661830911028	1.509658889025
0	21660	17089.305257863899	0.888985944726
0	21670	17092.683758513814	0.965989488922
0	21680	17099.229303036493	0.863609765377
0	21690	17104.661472755499	8.183820731628
0	21705	17112.898165982655	2.129036616137
0	21710	17116.647686143081	0.873190257326
0	21715	17118.668625386204	1.196102458425
0	21735	17127.954498636635	2.502684310803
0	21750	17136.668305571046	1.057567852922
0	21755	17143.750954664914	0.915243830252
0	21760	17152.096597863281	0.866109087039
0	21775	17164.987030416462	0.869270096067
0	21800	17184.227769318559	3.482540446408
0	21819	17189.822846478078	1.919076688563
0	21830	17193.14114313493	6.173330282359
0	21840	17208.948165806863	2.509978272633
0	21860	17225.171715523269	0.850395571627
0	21867	17231.27331812025	0.873308701813
0	21870	17232.272076302645	1.621125189414
0	21875	17233.932415912881	0.888956543244
0	21887	17241.798054687564	0.917963950522
0	21897	17243.971119323687	5.142617737667
0	21905	17245.8124254892	1.443681225053
0	21919	17265.376726867882	1.087620966602
0	21922	17266.576524287434	1.46669879833
0	21925	17267.50791327252	2.339901945389
0	21935	17270.953073126742	1.081064213132
0	21940	17276.578445989042	1.179756993894
0	21945	17277.876817579673	1.068845733441
0	21950	17281.84813185487	1.005678169616
0	21960	17290.118345805657	0.976127289888
0	21980	17311.215217644343	0.864245056175
0	21996	17319.305000061419	2.776087221566
0	22001	17320.286810756073	1.778667937411
0	22009	17322.090458893933	3.163889433726
0	22014	17323.011328781833	3.506430994453
0	22019	17323.862550222286	2.850095091882
0	22022	17324.861195750506	6.074226385931
0	22027	17325.726048736991	2.081765985294
0	22032	17326.824540371792	1.632665155812
0	22035	17327.884690555716	2.123815571268
0	22045	17345.960522773008	0.864715000708
0	22052	17364.098089100144	1.028496169578
0	22060	17378.559931966135	0.902948018257
0	22067	17387.198862789149	1.005259304773
0	22082	17391.242041846352	1.972242539992
0	22087	17392.43953847679	2.931633336059
0	22090	17393.624189924157	7.02114364944
0	22095	17399.796579255521	0.96020529829
0	22104	17405.898047267993	1.02847171789
0	22125	17413.696972153179	1.920820900867
0	22130	17414.596627071611	0.869779173005
0	22150	17430.336483425633	1.114694095403
0	22157	17433.711737196186	0.967030692752
0	22160	17434.844697483481	1.500884222084
0	22177	17443.525370105795	1.136055789329
0	22185	17445.916419932987	3.0982265573
0	22205	17516.431557147587	0.995998246036
0	22210	17518.502449270883	0.936523374449
0	22220	17524.116410186139	2.099956932067
0	22230	17551.005636364366	1.021412251703
0	22247	17558.338056272942	1.424451519062
0	22255	17560.823390674365	1.075037528016
0	22282	17580.130994861208	0.866772843432
0	22285	17581.22211488216	1.612970059646
0	22290	17582.628629715943	0.954711451475
0	22300	17588.982237723723	1.149934710842
0	22305	17594.717262499724	1.189387722686
0	22332	17615.66100071416	0.997357531264
0	22335	17616.544713937945	5.633042807398
0	22349	17628.773958797303	3.041372045158
0	22352	17629.866480330021	1.579871028002
0	22355	17630.880491229628	2.420977705067
0	22367	17633.897759423041	2.037563322037
0	22370	17634.902448659306	1.387483560267
0	22377	17644.884289388542	0.966566358227
0	22380	17646.028350424019	1.187498396296
0	22385	17656.067464869239	1.140435125958
0	22412	17679.58074239248	5.455397973138
0	22420	17682.814111624449	5.556382032713
0	22427	17687.29843558513	1.129762349743
0	22435	17695.733212327331	1.005938359629
0	22450	17702.839282830252	1.008385774214
0	22455	17706.1287375412	0.903348809388
0	22465	17729.757415220914	0.915720084123
0	22470	17731.404526720452	1.16273253141
0	22475	17737.768581628025	0.909703011066
0	22485	17753.14301056179	1.124255078472
0	22500	17758.86130717636	1.11169505883
0	22512	17761.17448653077	2.302396306844
0	22525	17765.505965058701	4.5540207796
0	22530	17772.239641816029	0.90999480309
0	22535	17785.589881498345	0.995756484102
0	22570	17806.748819701011	1.148722336548
0	22580	17816.662676064655	1.035525724757
0	22590	17828.448660719001	0.934308344778
0	22600	17849.272827560629	0.804422666878
0	22605	17851.95378797061	1.028535568342
0	22610	17859.182240823968	0.832278571371
0	22615	17876.295837773755	1.181970074214
0	22649	17901.028348760814	1.034963602852
0	22652	17902.109206926399	1.745925158194
0	22657	17902.973802260724	2.301073651197
0	22660	17904.014315702529	1.547592307144
0	22670	17922.230294527498	1.093443984073
0	22697	17929.361027395287	5.163823480083
0	22705	17933.133768196183	1.059051421098
0	22747	17945.594738756368	3.038947865832
0	22755	17957.882660988736	1.126532559656
0	22787	17992.130075977451	0.881427116692
0	22802	18001.710886222045	0.889199452009
0	22812	18003.829799778774	2.039256686118
0	22819	18005.012460296336	2.452377008843
0	22822	18005.860401158794	1.16725750791
0	22840	18014.111186040177	3.286055782624
0	22855	18021.319969095665	1.146750806924
0	22862	18031.571465352253	0.860145713016
0	22867	18032.446298821905	1.411197152377
0	22870	18033.537730852963	1.672924842416
0	22885	18051.537300808736	1.047951118182
0	22890	18059.343189338759	0.837835753057
0	22895	18069.667713824598	1.024051625375
0	22900	18077.333613309846	0.882077511959
0	22907	18081.168774566229	1.08837442901
0	22910	18082.271394707344	1.709344582469
0	22915	18083.516460376348	1.15277322121
0	22920	18087.755489034363	1.154146744497
0	22925	18090.364178501676	0.954681922402
0	22930	18092.924722152181	1.150522537064
0	22950	18104.661436863702	0.900570770632
0	22957	18107.176657325293	1.18508138964
0	22965	18109.229640687837	3.072419801361
0	22970	18127.220624331314	1.0197542198
0	22980	18144.476757029084	1.059288984537
0	22985	18147.749482174042	0.911686647683
0	22994	18152.975908336089	1.104827722628
0	22997	18153.840050592133	1.843134409579
0	23000	18154.87291201218	1.943211764808
0	23015	18165.525261163255	1.12874255348
0	23025	18183.861533134154	0.942789519019
0	23030	18193.066912160501	0.906848031748
0	23042	18201.20327190481	1.061922654416
0	23060	18224.462157493773	1.382809334784
0	23070	18247.34461544498	0.965407382045
0	23080	18250.742062898941	2.891685671384
0	23090	18260.007427058146	1.082936022617
0	23110	18289.076121396334	1.13938253466
0	23130	18313.62672019078	0.990889300592
0	23145	18323.073646950701	0.885631543491
0	23150	18333.805001617122	1.157034678757
0	23179	18360.002377800814	1.062911896128
0	23182	18361.010685693084	1.132496526006
0	23192	18363.119731776586	1.34753874741
0	23199	18364.066445411166	4.104142436504
0	23225	18372.294091469799	1.041882853303
0	23230	18375.706254369191	1.153772821371
0	23235	18381.809385006238	1.175867400132
0	23242	18386.831171634282	1.188057752885
0	23267	18408.386234019856	1.007645031624
0	23270	18409.504201272103	3.419518767487
0	23280	18420.363458159237	1.222674660834
0	23285	18421.428507733579	0.822721194755
0	23300	18435.624563586813	1.052914559189
0	23305	18438.115751251243	1.147103975527
0	23310	18448.40459949654	1.168968567345
0	23325	18460.323336322449	1.646062921873
0	23345	18471.124488206982	2.708614409864
0	23355	18473.522135705867	2.346621987431
0	23360	18474.954057278713	1.157664200664
0	23370	18485.213285200254	2.292775194099
0	23375	18492.632432726193	1.065494940616
0	23380	18494.023898313576	1.085595131572
0	23395	18500.352542103955	0.840947240777
0	23405	18505.472697640045	0.862665947806
0	23420	18508.417472915751	2.933558649198
0	23427	18512.085317182626	1.06400139723
0	23432	18512.891750053401	1.134974944822
0	23435	18513.97868216903	1.145309821589
0	23447	18534.670245696055	1.012687475979
0	23452	18535.619812784074	1.86311801339
0	23460	18539.820077352357	4.213844016558
0	23465	18543.383541176169	1.09124063747
0	23470	18548.423360259783	1.137670577876
0	23475	18550.983729969086	0.996144819167
0	23490	18582.601993255006	1.143569168355
0	23499	18588.800826572435	1.025897739176
0	23502	18589.612714786636	1.241816142452
0	23510	18592.380113913534	1.123735980131
0	23520	18608.925623157474	0.936322380323
0	23525	18614.671354137224	0.886457153969
0	23530	18619.595887760474	1.057309680525
0	23545	18625.953811126271	4.001845742181
0	23555	18634.131687129171	2.402138692832
0	23570	18638.26855368069	3.727430957968
0	23592	18647.383430354064	0.81754075978
0	23620	18654.681092859834	5.080116619467
0	23625	18657.144769805545	0.959280253388
0	23637	18659.339746401063	1.408567547378
0	23655	18665.007300896344	7.517727135199
0	23680	18705.99345429886	1.144961444475
0	23685	18724.128345112337	0.879469113797
0	23702	18732.508911459307	0.942803464457
0	23735	18762.4077968686	0.921955369413
0	23740	18769.628249608698	0.878587840777
0	23745	18786.876974253362	1.182983214315
0	23750	18797.29290123705	0.841507743485
0	23755	18804.669393918553	1.162711967435
0	23770	18820.23873531682	3.03883100864
0	23775	18830.357189212421	0.932762522157
0	23780	18831.569205954535	1.182339364011
0	23785	18836.03671227168	1.024923307821
0	23790	18838.668860012712	1.124104721472
0	23802	18854.154122802622	1.043858027644
0	23805	18855.064117462102	1.882500609562
0	23810	18856.012580212577	0.851678752527
0	23815	18857.377702104852	1.152863549255
0	23822	18866.134715592956	0.857968595531
0	23827	18867.110302233418	1.245063456134
0	23835	18869.766332441101	2.994296294176
0	23850	18881.447792658233	2.017015892808
0	23855	18884.682845880101	1.10249385722
0	23862	18889.289433114637	0.90628557587
0	23885	18902.537916324687	2.917027789997
0	23890	18905.08513982351	1.106732103135
0	23899	18916.798600177976	1.163890325371
0	23909	18918.637506252198	2.360641864107
0	23912	18919.59382618698	2.625195197891
0	23925	18925.710819437414	10.035579319782
0	23940	18938.593770979024	2.824526398164
0	23950	18943.042812515703	0.896841257811
0	23960	18952.259732046315	3.204232230661
0	23965	18954.49208547244	0.898152309377
0	23970	18956.12616989396	0.815571110696
0	23975	18957.927197370429	0.80486515481
0	23982	18959.347774862206	0.890885892883
0	23987	18960.256028384144	1.757776337205
0	23990	18961.121217931981	1.630313095199
0	24010	18979.006033823708	3.063343013051
0	24015	18985.936365078756	1.181659711991
0	24025	18996.163660463811	3.429679124606
0	24045	19042.659212502404	0.856819036417
0	24057	19048.438134289476	2.301916624159
0	24065	19055.763725310839	0.978094869945
0	24070	19058.807946258316	1.134658110794
0	24077	19065.642018832297	0.944522542413
0	24090	19072.62930029858	1.059027502127
0	24095	19074.712533650552	1.126350058336
0	24107	19080.262148062421	0.941497408692
0	24119	19082.26527128732	1.623724960825
0	24129	19084.265865289049	2.04410548748
0	24137	19086.602690816207	2.509200025249
0	24140	19087.572040580122	6.324375736028
0	24160	19122.580194678481	2.551590827349
0	24167	19133.648699763749	0.892981811333
0	24175	19136.06479260668	1.015295216069
0	24182	19137.2567380782	0.982188976463
0	24185	19138.108627468046	1.610414043184
0	24195	19143.678584981681	3.543742970741
0	24200	19150.824261132715	0.925543122832
0	24205	19172.487994916315	0.852197762299
0	24225	19183.326588101198	4.579841403918
0	24230	19189.040224583099	0.8593331513
0	24237	19191.73572203629	0.856575073395
0	24240	19192.758296202312	1.804652048141
0	24245	19210.736077742835	1.062923163269
0	24250	19216.341343349605	1.065042533632
0	24255	19219.835222550334	0.866645976435
0	24270	19226.354982976981	5.778102581841
0	24275	19232.668474068367	0.824742502719
0	24280	19234.514849526645	1.117985558603
0	24285	19240.942468037052	0.973656410631
0	24290	19249.977341985512	1.186183915101
0	24310	19259.826831964967	4.457341152691
0	24322	19265.248143553725	1.17857003659
0	24339	19269.926431075738	2.035704845581
0	24342	19270.811003710398	2.485916119573
0	24345	19271.838244691653	2.739146515504
0	24357	19286.804030347047	1.00332356123
0	24360	19287.688859260352	2.647972422465
0	24382	19319.687076401279	1.088520286918
0	24390	19322.454249413464	0.885788838286
0	24395	19327.828352449985	1.047486351058
0	24407	19331.542831294805	1.004696955252
0	24417	19340.200506462935	1.060983525775
0	24422	19341.37361353369	1.790286545563
0	24425	19342.213410737678	1.883358492632
0	24432	19343.49816293989	0.938780681603
0	24435	19344.321429437331	1.633563668831
0	24442	19349.273262760891	0.950586498156
0	24447	19350.221095910212	1.71378070935
0	24457	19352.261599715436	2.022276831727
0	24460	19353.379116160991	1.674706405519
0	24470	19373.508730082799	1.084547920059
0	24485	19390.59587890592	0.945916603506
0	24492	19398.095273581996	0.920730287023
0	24500	19401.373856576742	3.461783438533
0	24525	19412.590550346544	1.038015982509
0	24540	19430.898659023163	0.971087756287
0	24547	19432.552370423326	1.142491793912
0	24550	19433.603539388781	1.566615590962
0	24570	19448.127132021651	3.046917853805
0	24575	19457.371276963872	1.152348468173
0	24580	19464.155701237119	0.989364609122
0	24602	19474.365270407705	0.896767735574
0	24605	19475.324350799455	1.386942480735
0	24615	19494.569722397832	0.984283063654
0	24620	19501.610945539992	0.824721398111
0	24630	19507.618846309912	2.385684076972
0	24637	19508.791857024199	0.992774969805
0	24640	19509.715396377268	1.399443017345
0	24650	19520.648771824656	2.18067407699
0	24660	19527.564874055879	4.75073138371
0	24675	19545.594085800933	0.878366612643
0	24680	19547.351041813746	0.94021435976
0	24700	19568.33595937708	0.878579480201
0	24710	19572.843446213719	0.961606257129
0	24720	19578.362128252201	3.603156261657
0	24732	19585.595977184851	1.167805615161
0	24740	19587.940320720963	3.459768599836
0	24745	19588.946495427741	0.808143100329
0	24750	19594.349661454548	0.820919378381
0	24755	19596.819447400226	0.998125584796
0	24762	19601.808400676591	1.141450325958
0	24780	19613.320727198124	0.921281362046
0	24785	19624.44801074005	1.138910671696
0	24795	19631.397841129762	1.008511198405
0	24812	19637.28810413855	1.108836421327
0	24820	19639.379277824637	1.701265084675
0	24830	19658.29211941017	1.014085453759
0	24837	19662.172697345161	1.102401500568
0	24845	19663.854736379248	0.941442466372
0	24850	19669.972027011501	1.045842128154
0	24855	19675.190434222093	1.086428864487
0	24865	19682.52943419993	1.146164809074
0	24880	19699.417582279655	0.932555831783
0	24885	19701.221360033459	1.09909348255
0	24890	19708.012320834189	1.087529123761
0	24915	19731.221789597765	0.936028471962
0	24920	19742.761435413967	0.946425662097
0	24950	19764.651571115624	0.918918531202
0	24960	19782.730878161068	1.007262026705
0	24965	19788.847329172807	0.972195630707
0	24982	19797.875394972888	3.697917565677
0	24985	19798.877924517458	1.288846144895
0	25002	19806.736341550247	0.81095934771
0	25005	19807.832674196595	3.113966085016
0	25015	19812.304969281474	0.889899728727
0	25032	19821.007541927393	1.177850667387
0	25047	19826.0536254039	0.874824609421
0	25055	19828.042455569931	1.277757599129
0	25065	19832.517572027317	1.030496424437
0	25075	19847.70895100432	1.020450836234
0	25085	19852.854898645394	2.963726443399
0	25090	19855.118416522868	1.050602377113
0	25095	19860.353979192403	0.990062016714
0	25100	19883.265480897485	1.060385097563
0	25110	19893.147829074518	0.849482300039
0	25135	19921.39720176691	0.891253871936
0	25145	19926.66061593432	2.246911753037
0	25165	19936.980824562466	4.240865628328
0	25170	19941.007797730167	0.856817039754
0	25179	19943.997427023299	0.943535858579
0	25182	19945.120436757248	2.013029617052
0	25190	19947.565786462104	4.087985478208
0	25215	19964.311400979968	1.0727081188
0	25225	19976.96212940114	1.146410683263
0	25279	20010.146073147545	0.920614176802
0	25282	20011.327486219706	1.521498295104
0	25297	20015.383160716928	2.188834394139
0	25310	20031.915664158969	1.078549558856
0	25322	20041.499758169993	1.879875884681
0	25330	20045.377278054434	1.108760118298
0	25335	20049.255717872009	0.819344362244
0	25340	20061.167115438979	1.189081053995
0	25352	20068.805058187826	1.689704126636
0	25355	20069.854105316775	2.901075807307
0	25360	20071.729550004808	1.119616352674
0	25370	20077.143335545442	1.076672525145
0	25385	20090.248399699677	1.144542788714
0	25390	20094.442759618229	0.927662553359
0	25400	20106.346401309072	0.849203972332
0	25410	20109.658522577557	1.01360060852
0	25420	20126.883669602417	0.9627697533
0	25435	20141.83942165229	4.859508011384
0	25440	20142.92775086659	0.814372473489
0	25445	20146.775376393085	1.087925830297
0	25465	20155.693733239442	2.45298711462
0	25477	20158.060403883456	1.099107116181
0	25495	20165.833172506018	3.947977011625
0	25515	20191.039838729764	0.960107243061
0	25520	20203.911474935659	0.960066635441
0	25530	20208.493917872387	1.972184770764
0	25540	20216.76567430854	0.982812480815
0	25545	20226.214459707073	1.050772579107
0	25555	20241.190906077708	3.26561480004
0	25567	20253.784210000512	1.046657928172
0	25570	20254.974732403037	1.421070560145
0	25575	20261.797476233167	0.844818118773
0	25580	20264.19114702874	0.837213649694
0	25585	20270.402339869461	1.193430021033
0	25600	20284.078482739605	1.115560813155
0	25610	20292.383235415133	4.333906824932
0	25622	20304.609053159854	1.207892553038
0	25627	20305.522169173113	2.840515042563
0	25630	20306.582385480287	1.274279056822
0	25655	20327.812855455362	0.988344790787
0	25672	20352.496104072473	2.464551661228
0	25685	20364.445118230434	1.110824318416
0	25690	20367.297906579079	1.176757905819
0	25705	20382.633545853539	1.006701495778
0	25715	20392.256690238757	2.505275437382
0	25745	20426.884114984521	1.459796440054
0	25755	20436.124286200482	0.851959882677
0	25770	20461.005014596575	1.188594504073
0	25780	20464.38202915928	0.962529307536
0	25785	20466.640559676159	1.19696906982
0	25790	20468.243809160235	0.86331852451
0	25820	20488.150699219242	1.05539778946
0	25832	20497.391214496938	1.198392589111
0	25845	20503.662592628057	1.009443987347
0	25855	20511.948600872334	0.851925185788
0	25860	20521.422472989535	0.951785991527
0	25881	20525.36517768034	1.552115601746
0	25884	20526.261266416099	3.966167244315
0	25897	20529.278716788601	6.621681974069
0	25910	20542.087079208383	1.111798105482
0	25915	20546.269826559745	0.819073465373
0	25927	20557.512347452168	2.340123530891
0	25935	20559.724823320496	2.378919719795
0	25940	20566.994440687264	0.885267668869
0	25957	20577.174942053431	3.258921213246
0	25975	20586.042601598803	1.842923915303
0	25980	20589.143012366446	1.08490053378
0	25985	20597.540953275607	0.948200615309
0	26004	20606.858911669054	3.145417328365
0	26030	20630.267697572917	1.08642162187
0	26040	20637.565745873025	1.153145922255
0	26054	20648.844231533307	1.117770772707
0	26057	20649.676166008554	1.823322434895
0	26065	20661.674623342828	0.811958930176
0	26102	20693.014539362003	1.714962023014
0	26105	20693.952807129805	1.174934031452
0	26115	20699.994616926673	1.910241761078
0	26120	20703.389696824563	1.13288721377
0	26125	20716.331859952792	0.968021440133
0	26135	20728.042948265539	2.054108458728
0	26142	20731.137428758961	0.965997141972
0	26145	20732.208940096588	1.925706628565
0	26155	20739.522980009621	1.163069695234
0	26162	20749.432330227594	1.180205911212
0	26175	20755.056147409875	2.713611828824
0	26182	20761.779898398917	1.115527326427
0	26185	20762.631450531062	1.278871108087
0	26190	20767.807702250453	1.047571418248
0	26205	20776.461098060284	0.816481248755
0	26210	20778.119287632832	1.015477961302
0	26222	20786.712297523812	1.095200180076
0	26225	20787.679210600209	3.233283942614
0	26230	20808.554823924025	0.989665114507
0	26242	20810.812360429819	1.358611741706
0	26245	20811.948410686533	3.114211352448
0	26250	20814.162058177749	1.019263734575
0	26255	20820.140087562389	1.129338702466
0	26260	20827.450205503315	0.866055141203
0	26265	20833.293852683532	0.809656285867
0	26275	20859.631529238495	0.935010101646
0	26300	20875.619280934188	1.167954224721
0	26307	20893.765261185901	1.047182958759
0	26315	20897.04991427265	4.141226749106
0	26325	20902.153601426439	1.0952752674
0	26355	20931.232541172687	0.957268727757
0	26360	20933.410415304315	0.800028342847
0	26365	20942.329402342933	1.12385921916
0	26370	20943.949436167446	0.814536928479
0	26382	20951.974325117524	0.857502990495
0	26395	20959.435138726028	0.82410732517
0	26402	20960.689602261266	0.955427739024
0	26410	20972.078038060418	1.130140368268
0	26415	20980.860440974158	0.853545128275
0	26440	21013.851463764378	0.925159823988
0	26457	21037.801374953081	0.901130350959
0	26465	21044.789044020338	1.006280560605
0	26480	21054.773489379999	3.400256196589
0	26485	21063.677997578974	0.973995247111
0	26495	21075.562879212518	1.197615284659
0	26500	21081.893329104591	0.858085866645
0	26505	21086.049925009606	1.062954830658
0	26510	21093.037341993513	1.154996566288
0	26520	21112.18795134242	1.19687674056
0	26527	21117.005456609007	1.154094439745
0	26530	21117.936011008553	1.28206257702
0	26535	21123.653667728403	1.082921911124
0	26540	21130.199837310557	1.171070822049
0	26552	21135.017645213044	2.258618386364
0	26565	21140.32497264932	6.264169864273
0	26575	21157.325720865233	0.819266836904
0	26604	21168.614640566254	1.568363135159
0	26609	21169.6286475327	3.389794587136
0	26614	21170.625693702432	1.817795430902
0	26619	21171.513017632547	1.025247153982
0	26622	21172.651184814624	1.793595636617
0	26635	21175.671624249646	2.021748574506
0	26640	21193.910570823251	0.90095683476
0	26645	21197.694504199492	0.834893240687
0	26650	21215.746875850381	0.918652760144
0	26655	21219.215127667907	1.025731670298
0	26680	21237.170684065455	1.036718896218
0	26685	21248.238254512954	1.193658496812
0	26695	21267.974657441228	0.993739973474
0	26707	21276.620018938207	1.077582812589
0	26710	21277.430682979082	4.948758767948
0	26720	21284.426306402252	0.941407964285
0	26727	21298.67165785826	0.910618911497
0	26744	21306.731957642488	1.37319920187
0	26747	21307.636516575269	3.079569059703
0	26755	21313.448291795834	0.947982860636
0	26760	21315.486609128763	1.018131545186
0	26765	21326.004442715269	0.898948939051
0	26782	21336.89928837913	7.572817499567
0	26785	21337.769592190449	2.64990315428
0	26815	21367.244251719798	2.992808610171
0	26820	21368.90720079596	1.041939374804
0	26840	21412.28020390269	0.843722511265
0	26845	21420.726817819994	1.020569557697
0	26850	21433.979938643401	0.977723886166
0	26860	21459.934157805465	0.918630280998
0	26885	21474.208219358703	5.70952634996
0	26900	21492.047775640319	5.603293998432
0	26905	21495.844248121308	0.988771660626
0	26917	21505.916701622276	1.006244716421
0	26925	21509.607390538682	1.172086223587
0	26930	21516.46044741836	1.043657773733
0	26940	21518.60919412719	1.524570253064
0	26945	21525.983500864227	0.977575590927
0	26952	21530.275167623604	0.968507927004
0	26955	21531.438901409297	1.34353591558
0	26965	21536.515349346612	2.883698053217
0	26970	21542.892162781254	0.87698478736
0	26977	21543.898259740109	0.979475518595
0	26980	21544.747702262989	0.934861299943
0	26987	21554.514233795929	0.819322139956
0	26990	21555.476291372537	1.673124394166
0	27000	21560.545540141966	0.830453276634
0	27005	21566.348037370306	1.1279776101
0	27010	21569.17183539876	0.836423232872
0	27015	21572.260094178871	1.164987896569
0	27020	21582.496311891478	1.144536028989
0	27025	21590.605815971156	0.914371428359
0	27047	21608.080855614431	1.318652623275
0	27052	21609.065005415045	2.059488883287
0	27065	21616.977773366171	1.077266434673
0	27072	21622.440728381938	0.953753238264
0	27077	21623.467223622101	1.797106029611
0	27097	21627.886969752608	1.403363913481
0	27100	21628.745539705826	5.442548630384
0	27105	21634.760163539192	1.014351443481
0	27120	21646.871292731115	4.767492626465
0	27127	21651.502777027494	0.830041218922
0	27142	21654.492855255461	3.047813550463
0	27150	21656.76365398765	1.067418922018
0	27155	21658.851703754468	1.141386220325
0	27165	21662.283740013454	1.493775575115
0	27190	21683.405596460075	2.513129814692
0	27195	21688.450583988578	0.915673568938
0	27200	21690.907273958395	1.002256664354
0	27207	21707.998605511641	1.128624044079
0	27210	21708.813608852239	1.30401885239
0	27225	21718.954274730778	4.33430218348
0	27230	21724.412100386169	1.181938799936
0	27240	21734.461473825595	1.190776381642
0	27252	21763.053906996093	2.305468346105
0	27259	21764.04529204351	2.07009344649
0	27275	21771.087532707154	1.739795222783
0	27282	21772.946817469151	12.280113290725
0	27295	21783.773029982959	1.136880133499
0	27300	21790.57740610634	1.199779472314
0	27320	21803.56585467273	2.756857828424
0	27325	21806.370568495012	1.02597426204
0	27335	21820.182224375284	0.869966682512
0	27345	21826.431289792251	0.908869218081
0	27355	21833.103657613011	1.188613536861
0	27360	21849.388165953366	0.977700091433
0	27367	21852.529941616376	0.834287005011
0	27375	21868.161837076506	0.801568687521
0	27387	21882.956129281605	1.983999662544
0	27390	21883.957286470672	1.014069293757
0	27395	21887.135909893224	0.915424492303
0	27400	21889.9989978082	1.103716812562
0	27422	21909.974293067896	1.163391980529
0	27425	21910.915864374054	1.052912174318
0	27430	21927.918376346787	0.898447670043
0	27440	21942.838570746001	0.80745905349
0	27450	21954.777795631612	1.115465375781
0	27460	21958.396920013678	2.034698913511
0	27465	21962.486099672318	1.18684598254
0	27470	21963.647583385045	0.983653969597
0	27480	21968.901655490244	1.151781701669
0	27492	21981.310388859661	2.005649146676
0	27507	21988.081669379897	0.921641203482
0	27515	21989.963957175459	1.182741546873
0	27520	21992.318476648526	1.168076205999
0	27542	22005.854132279581	1.594783709157
0	27555	22011.274159516003	1.93790789914
0	27575	22016.42007085128	3.083044343715
0	27587	22044.438265296693	1.010922244657
0	27594	22045.58285174553	1.671757904435
0	27607	22048.57839627328	1.467831675051
0	27630	22056.953454579602	6.57700208864
0	27637	22064.226824350138	1.04120744206
0	27647	22070.810400250268	0.925799765252
0	27655	22075.295037605596	1.150648086984
0	27670	22082.786405880516	0.954753317405
0	27675	22088.656900138769	0.949071156327
0	27680	22095.270612704872	0.984448216576
0	27685	22102.238092074154	0.954841690138
0	27695	22115.675489304545	1.127492743265
0	27707	22119.319919625155	0.97094949726
0	27710	22120.29584860238	1.28735721058
0	27729	22126.629884908269	3.296160778132
0	27739	22128.700065897326	5.46178055834
0	27742	22129.549856125112	6.305273760649
0	27745	22130.424874823834	7.002735468382
0	27750	22132.143649773082	1.035568918101
0	27760	22135.849647296828	0.902121592406
0	27767	22138.336660596376	1.091314784903
0	27777	22145.442675059022	0.946003347263
0	27780	22146.581249836193	2.063874132749
0	27790	22161.371795733905	4.669637484493
0	27807	22169.229276226592	0.960335555114
0	27820	22176.061441027159	0.969301049132
0	27825	22184.031266140228	0.986282846425
0	27830	22185.616808439697	1.059077779204
0	27845	22203.5739818529	2.449169610164
0	27880	22231.100221444571	2.677491626758
0	27899	22249.09236685691	1.615636576475
0	27902	22250.10025065431	1.740929428107
0	27927	22255.325438002233	3.2586579809
0	27930	22256.421624625862	1.190907562107
0	27974	22301.252438576539	0.886141124554
0	27985	22304.070329476912	1.497531713385
0	28000	22314.5695401644	2.327305874164
0	28005	22334.901890523456	1.095421285182
0	28020	22352.066002934001	2.712411549508
0	28025	22354.417926744975	0.914019534364
0	28042	22376.218128053645	0.921698136814
0	28095	22419.769098163003	2.867688598128
0	28100	22421.316945024351	0.80488663502
0	28115	22431.726826033495	0.851082778536
0	28145	22446.063792223174	0.978235905431
0	28155	22461.671464516044	1.18438412156
0	28165	22477.156418059394	0.970646360889
0	28170	22481.40296542766	0.846914300229
0	28175	22494.73673663842	0.953929740377
0	28180	22508.516576170881	0.995822320413
0	28192	22519.046665342164	1.993907104613
0	28197	22520.229620885023	3.454184660874
0	28205	22523.553019898996	3.652657146173
0	28210	22531.623226042845	0.901214936562
0	28215	22537.438937204531	1.030655142944
0	28222	22551.59933691757	1.123391378578
0	28225	22552.481786244979	1.348333915113
0	28232	22554.792352531733	1.109574088082
0	28245	22568.073126489744	1.097951175179
0	28255	22571.934599930739	6.663103537612
0	28260	22574.212763721912	1.088906114083
0	28270	22578.178588171097	1.002515520179
0	28275	22583.531914648081	0.914544213843
0	28280	22594.205705717379	1.14637049241
0	28290	22601.978551804916	2.327451726924
0	28295	22604.487527024484	1.121480858792
0	28310	22614.694474578783	0.951852245349
0	28315	22616.485906411627	1.135335246939
0	28325	22627.908883531301	1.003741397336
0	28330	22646.755825470123	1.010828849953
0	28357	22678.762255068065	3.062150178939
0	28375	22683.782015329308	8.101342843309
0	28400	22691.514984241281	1.731411637231
0	28405	22693.174785168599	8.55074921819
0	28420	22697.83758490114	0.887656506896
0	28440	22715.057038321366	0.870104450732
0	28445	22719.997544223114	1.00022547273
0	28450	22723.855018119634	1.005851010419
0	28465	22761.260219574858	0.930175482947
0	28475	22769.30646749651	1.045775864553
0	28480	22782.347000751401	0.882182969898
0	28485	22790.668909089971	1.129963738378
0	28495	22798.006738173298	2.707418113149
0	28527	22825.068657918306	1.183678595538
0	28532	22826.197313268235	1.163642392218
0	28537	22827.203267154688	1.353395461307
0	28557	22840.865390922807	2.894863854983
0	28570	22855.092958824736	1.881408843748
0	28589	22870.164517250419	0.96249429311
0	28600	22877.886958528416	0.967927614413
0	28605	22880.337452748681	0.853098221775
0	28610	22886.430531036658	1.174866006244
0	28615	22888.197855986095	0.932407301106
0	28622	22895.43572953309	0.966492319293
0	28630	22898.104291263646	0.947733869962
0	28640	22917.282526343123	1.05979927294
0	28650	22924.237227425714	1.359234803086
0	28655	22932.309032118664	0.899124469142
0	28665	22949.369869576005	1.153720451053
0	28695	22988.044545605162	0.930381600931
0	28712	22993.651253609596	1.10696852291
0	28725	23000.035295789841	3.040189510081
0	28730	23002.384496549448	0.900211235788
0	28740	23011.940655001082	3.054535054791
0	28762	23020.647706054419	2.798600345452
0	28781	23025.520108521302	5.138790934187
0	28784	23026.683518194445	3.110000326018
0	28787	23027.644548822139	2.19281494507
0	28800	23041.502964759578	1.063845016807
0	28812	23051.721874407364	0.822297280282
0	28825	23055.001325289029	4.047313823186
0	28830	23057.459113423975	0.962230503932
0	28835	23066.708235118259	0.802865845617
0	28840	23068.303889653806	0.932860050723
0	28845	23072.322103903418	0.81127190683
0	28850	23076.407961349154	0.87055129353
0	28860	23079.043299020535	2.554149591397
0	28870	23082.751975941152	0.927665531915
0	28892	23092.59458787476	2.111207229398
0	28905	23095.435989445425	0.85140691977
0	28910	23097.639484055819	1.168832519185
0	28917	23101.076765822153	1.123113194201
0	28940	23121.143442816604	1.187287108693
0	28945	23134.093282045196	1.145139434189
0	28960	23143.801905134429	1.170141631365
0	28969	23145.299418571033	1.162952476181
0	28972	23146.192090479099	1.542446721456
0	28990	23154.102547845157	1.034400807478
0	28997	23172.261961548431	1.067487350386
0	29007	23175.929855288948	1.136666538101
0	29017	23178.195485056575	1.924882376225
0	29020	23179.045628746051	4.078673210873
0	29025	23180.050247643194	0.848325325456
0	29035	23184.421665571145	2.748760139357
0	29040	23194.144745885357	1.03289598655
0	29055	23205.178608785253	1.149780458491
0	29060	23207.340245160527	6.827732215717
0	29074	23212.843834912355	1.11792760659
0	29077	23213.855743250946	1.662496346601
0	29080	23214.934897854222	2.698313734334
0	29095	23231.845340412281	1.143749267701
0	29107	23246.161146564527	0.893010064401
0	29110	23247.215436587787	1.798339684761
0	29120	23251.784311526288	2.728183083011
0	29130	23258.329712606371	1.662593433331
0	29137	23261.820976006717	1.042838323209
0	29140	23262.947649368935	2.055528455349
0	29160	23282.106898055105	1.137838037219
0	29165	23284.147597655613	0.840454924759
0	29170	23288.498622648126	1.136533386912
0	29192	23316.092566874607	1.074240691774
0	29195	23317.14549499972	3.131806037247
0	29200	23321.020556864233	1.199634678662
0	29205	23324.728039670476	0.936549762916
0	29212	23326.663274814142	1.067673271336
0	29215	23327.748305360647	1.681230667916
0	29220	23334.311061220382	1.163137940038
0	29230	23337.774236942462	3.079233647925
0	29235	23338.847571825289	1.033643089328
0	29240	23340.252044879325	1.039039379638
0	29249	23342.724106940055	1.002452027239
0	29252	23343.56626225839	1.555323632374
0	29255	23344.621308972674	2.544975829644
0	29277	23353.043307009436	1.104466279317
0	29285	23361.08181352104	0.802925881743
0	29290	23368.207984041249	1.132574835513
0	29307	23381.97881937303	1.177939961385
0	29324	23385.645937970658	1.052033607382
0	29337	23398.967996456988	0.858050958812
0	29345	23404.156406514706	1.016271047015
0	29352	23407.089439995395	0.92572158277
0	29355	23408.117498054629	1.137951161774
0	29365	23419.705940725699	2.25433663482
0	29385	23458.761587911278	4.251216267466
0	29395	23465.652145180983	2.421076569039
0	29400	23470.126436647402	1.038438808173
0	29410	23478.770131751026	0.876988165732
0	29415	23483.155173224024	0.818172639702
0	29424	23486.81815414482	0.828443975095
0	29427	23487.702050407484	1.491431304173
0	29430	23488.74797774383	2.465386304648
0	29440	23498.041214845762	1.81355224908
0	29445	23507.409383256741	0.918445706367
0	29450	23520.655315013988	0.992318738997
0	29460	23523.899024364309	2.178246690905
0	29470	23543.893221606015	1.039325530361
0	29480	23552.470599425615	0.825134813599
0	29485	23559.981256195466	0.861383147072
0	29490	23562.697559973472	0.826799325179
0	29500	23566.459681659929	0.831435775291
0	29510	23585.397648960478	3.005808863816
0	29520	23590.917751142549	2.464068785243
0	29525	23597.964768809437	0.927570284344
0	29530	23601.813676873666	0.96079503065
0	29535	23626.064269259926	0.841731978767
0	29570	23647.388611162154	1.12958955504
0	29575	23650.127015744451	1.128275297116
0	29587	23656.701812826363	1.131245611794
0	29600	23662.067313276363	1.672953313294
0	29607	23663.439626741994	7.235540912489
0	29610	23664.355415887691	1.011658143205
0	29617	23668.466489300965	0.875026996247
0	29627	23671.876578078149	1.020000889339
0	29635	23674.022819378144	1.20368560655
0	29640	23694.839832517765	0.805344849918
0	29652	23701.703989453461	0.916978271399
0	29657	23702.664923129544	2.867000096285
0	29660	23703.733623956178	1.380045530041
0	29672	23716.85283051357	2.754453622852
0	29697	23725.75273188037	0.835755714029
0	29705	23727.899786567844	3.863127883309
0	29710	23744.550544714469	0.947529496346
0	29725	23762.962228889162	1.037908349
0	29760	23785.489467442048	2.232485545085
0	29770	23790.015064327987	1.069506689999
0	29795	23800.608114184518	0.967467300873
0	29800	23802.240147753146	0.849583298899
0	29805	23809.611069695262	0.994931427948
0	29815	23831.246335272152	0.978287375346
0	29820	23839.81879246829	1.10845897533
0	29825	23843.131678217904	0.961791345663
0	29830	23846.192749206797	0.881050487421
0	29835	23849.362435741037	1.185998037271
0	29845	23851.537137708016	1.2276722741
0	29855	23856.933587287655	0.942936862074
0	29860	23859.025779179422	0.843503647856
0	29865	23867.297604582643	0.841522256285
0	29880	23888.820816645463	1.016484042909
0	29885	23894.143564813423	1.191081443708
0	29895	23931.026895734513	0.84816428991
0	29905	23936.26869627792	1.79911941443
0	29920	23941.863414593412	1.017515462264
0	29937	23948.065038765422	1.501591545882
0	29945	23957.561068244037	1.082146271132
0	29957	23969.235337746015	0.954463100061
0	29960	23970.387363130192	1.250832766236
0	29967	23996.261275719834	0.904565865081
0	29975	24001.636170901096	0.86838266924
0	29990	24019.926445177667	3.435198049097
0	29995	24027.095298481858	0.883680644445
0	30005	24039.23378451803	0.860872023273
0	30012	24041.64217250093	1.057039052155
0	30015	24042.795570712044	2.201644545387
0	30020	24044.28620316524	1.124747789558
0	30025	24048.25812930185	1.040561207943
0	30030	24053.510248901217	1.02183978837
0	30040	24073.698759947864	1.198913328256
0	30045	24076.5117413288	0.948384641763
0	30060	24086.14101661826	1.403078962266
0	30065	24087.996766426476	1.124030944891
0	30080	24112.358778881696	4.7069141204
0	30085	24129.957327668611	1.13317165887
0	30090	24137.188193886811	0.920706044883
0	30097	24154.168866048353	1.133309818991
0	30109	24156.227640016628	1.713646544845
0	30112	24157.157533860923	1.687624571958
0	30115	24158.311753878434	4.189460531667
0	30120	24170.486533236763	1.04728399748
0	30130	24174.009337868744	1.193311324436
0	30145	24187.988335253653	2.369171010855
0	30165	24217.548265582784	1.157735641021
0	30170	24221.032771011587	1.112489524484
0	30175	24224.381212459472	0.990061215311
0	30180	24226.580413655347	0.926180655789
0	30190	24232.431465275297	1.003578905668
0	30210	24240.570027156258	3.027908141239
0	30215	24247.570705696449	0.975959648471
0	30225	24259.094061855922	0.944705200661
0	30235	24261.671415465385	2.139568825076
0	30240	24273.187227321408	1.124745109491
0	30250	24285.429028441529	0.991036321409
0	30255	24289.770745160224	1.16000906229
0	30260	24291.697016164605	1.036328387912
0	30270	24311.728412204015	1.182800931018
0	30290	24324.664020720888	2.151331787398
0	30305	24328.432178984399	3.19800878847
0	30317	24342.756110468	2.254810985389
0	30320	24343.653131959639	1.701615270014
0	30325	24345.915987486471	1.103212690633
0	30345	24370.958748307668	1.04388454454
0	30350	24381.123214058545	0.827753535472
0	30365	24391.461967717907	0.954476859793
0	30370	24396.262019503007	0.87227951251
0	30395	24404.63559734431	1.033728978393
0	30402	24406.335124322303	3.665101695142
0	30407	24407.217136421424	1.556467268979
0	30412	24408.119829085373	0.904548810727
0	30420	24409.830914989297	1.090328786524
0	30425	24420.703134285014	0.809396328684
0	30440	24428.433805173863	4.379330736433
0	30445	24431.55588027629	1.152387209609
0	30465	24443.545709399774	2.595037211013
0	30475	24446.369932598054	2.014645189573
0	30490	24450.153696676061	3.443512079575
0	30500	24462.162649716003	0.808828682266
0	30505	24463.701094798129	1.013999518752
0	30515	24467.498404460851	2.172964272974
0	30520	24470.000331050198	0.989548824914
0	30525	24481.765826473979	1.068191003054
0	30550	24489.68807961636	5.564993430767
0	30560	24492.997616736838	2.338487626504
0	30575	24512.12337127437	0.859205861762
0	30587	24526.278678473137	0.831399504468
0	30600	24531.549241654123	2.560295308028
0	30605	24532.935933462194	0.922640910838
0	30622	24542.389283557057	0.95742506152
0	30625	24543.290812134657	1.059916358503
0	30660	24567.471998591725	0.962635587621
0	30665	24568.944786925672	0.837436518632
0	30675	24571.326219371799	1.347807203614
0	30690	24577.112940598571	1.138618633524
0	30695	24580.198849328938	1.095386025589
0	30700	24597.998407204314	1.013941875752
0	30752	24644.291770813295	3.378812111222
0	30760	24647.017223713837	0.992306918558
0	30770	24659.648911547849	0.968072677869
0	30780	24690.361105487022	1.042953845393
0	30785	24709.622744450376	1.101226875558
0	30790	24716.693017691219	0.962134015001
0	30800	24748.5877496584	1.164967231359
0	30805	24752.158298358625	1.066833254136
0	30835	24803.870751789544	0.980967369769
0	30845	24820.481027987738	2.32801023711
0	30850	24822.002274584601	1.017189680785
0	30870	24828.970398919912	3.241331457347
0	30875	24832.269910530879	0.93624934312
0	30880	24836.037937930628	0.823386031296
0	30885	24837.172132384789	0.992946514022
0	30895	24843.063686661475	2.812570362454
0	30920	24863.12502562795	1.113553485554
0	30930	24879.240513942523	2.261958309268
0	30955	24899.7311011978	3.036318375357
0	30965	24904.410168699713	3.500350338668
0	30970	24911.891456019174	0.930230542552
0	30987	24916.092870882714	2.949369628995
0	30990	24917.259818756023	1.547288358544
0	31010	24928.077578942736	6.194114458407
0	31026	24932.78895741767	1.349607706047
0	31031	24933.688090730558	2.165093057906
0	31034	24934.755297759647	2.18260663937
0	31037	24935.693335093657	2.381257804955
0	31052	24939.884976890074	0.842566524073
0	31060	24943.676385953054	4.387842456767
0	31065	24949.199973294931	1.025982328504
0	31080	24954.509331291456	2.963298517526
0	31107	24964.028143623388	1.267828756081
0	31110	24964.981927343747	0.990759704605
0	31117	24975.335325172379	1.186036629509
0	31120	24976.151498053431	1.371359163037
0	31125	24981.913991063543	1.136809468176
0	31140	24988.952863695812	0.924236700311
0	31147	24990.390580523179	1.152505736239
0	31150	24991.553124364258	1.846984076989
0	31185	25007.892526503276	1.159994300734
0	31195	25017.337535562342	1.093108927179
0	31210	25040.667855014712	2.49708370615
0	31220	25047.295816263297	0.972425264027
0	31225	25051.30097403233	1.036040688585
0	31230	25055.32933832377	1.096188922692
0	31242	25059.614691030763	3.064323381421
0	31245	25060.764308799308	1.302888808097
0	31250	25063.526865882402	1.029652681202
0	31255	25069.596779290361	1.109723324236
0	31295	25116.967012346573	0.856939744949
0	31305	25134.943919388532	1.180526915845
0	31310	25140.539421088794	1.01807108745
0	31315	25145.157811235805	0.88229122581
0	31320	25147.628273957259	0.968274801131
0	31325	25162.105396952942	0.915167907067
0	31334	25173.574712795109	1.021366084181
0	31337	25174.418320887719	1.278084573317
0	31340	25175.432108886257	2.007439834478
0	31345	25179.332385329603	0.963588880934
0	31350	25185.518279169199	0.975496275071
0	31360	25189.568899466401	2.338066506091
0	31380	25201.457069739494	5.730541277143
0	31385	25205.880405580408	1.199044354167
[...]
7	30335	24351.729201941871	1.025908189639
7	30340	24356.322339566382	0.809617216513
7	30355	24388.948162286588	1.093656694982
7	30360	24390.355176027118	0.853508984111
7	30375	24398.066556881397	1.044697481859
7	30380	24400.554351744656	1.132277255878
7	30385	24401.638773450281	0.800727981608
7	30417	24408.972592831307	0.852763745934
7	30450	24433.439782823531	0.904254580196
7	30457	24441.222009137614	1.100095253065
7	30495	24451.806988432903	1.061130867898
7	30537	24486.351027033224	1.129588215332
7	30547	24488.714947142012	1.18096421808
7	30565	24497.347954509843	1.064148137067
7	30570	24503.014452396469	0.952530546393
7	30580	24525.383308673849	0.962097750977
7	30590	24527.155017798911	0.876339325774
7	30612	24536.540678350494	0.907607289124
7	30615	24537.410060110555	0.869381760061
7	30632	24548.049025312371	0.95739238942
7	30647	24553.603967580509	5.554942268138
7	30652	24554.553358412099	0.94939083159
7	30655	24555.470433655598	3.295666855548
7	30685	24575.920889275549	6.739258091646
7	30705	24601.033249122031	0.984204249084
7	30712	24607.721172560649	1.093298952281
7	30715	24608.522223494286	0.801050933637
7	30720	24611.295696797496	1.189097277354
7	30725	24617.178670716118	0.943421204947
7	30730	24635.161241055772	0.829914624803
7	30735	24638.831069617519	0.897564841807
7	30749	24643.251010476386	1.080616859905
7	30755	24645.35159546524	1.059824651945
7	30765	24648.215128605265	0.97906884281
7	30775	24679.567763019587	1.023447022587
7	30795	24722.464050632656	0.813954388164
7	30812	24755.600400258027	1.028182833362
7	30815	24756.451161687899	0.850761429872
7	30820	24764.722986895521	1.090312466584
7	30830	24799.439176111662	4.446920238705
7	30867	24828.119929943209	4.059208429569
7	30905	24852.608487309219	2.858118682175
7	30915	24857.256976553501	2.685557718367
7	30935	24883.886169227095	1.128922571987
7	30940	24893.550741013291	0.970168076176
7	30952	24898.79217540841	1.116516116727
7	30982	24915.256471580362	0.857676395122
7	31005	24924.243864705893	2.72246811212
7	31019	24931.667345099717	0.906141208392
7	31040	24936.675516916072	0.982181822415
7	31045	24937.751346382218	1.027794790547
7	31070	24950.934944295455	1.041818523221
7	31092	24959.75181095315	2.461937689342
7	31095	24960.579112665018	0.827301711868
7	31102	24963.102705633091	1.086341458373
7	31132	24986.455933738488	1.159081626497
7	31135	24987.51674559823	1.060811859742
7	31155	24994.176653995557	1.199099973589
7	31180	25002.135474560918	7.323390361063
7	31190	25010.969772302871	1.032824676204
7	31200	25030.47974074933	0.999975070264
7	31215	25041.884538236259	0.912318064179
7	31260	25071.14465494837	1.032116014976
7	31270	25075.914666013249	3.743791823535
7	31277	25096.14275138776	0.981718984526
7	31280	25097.194900883149	1.052149495389
7	31285	25102.339060937766	1.171139223874
7	31290	25111.62060900145	0.942065737117
7	31300	25126.777539608669	1.065568684973
7	31372	25197.652256066215	0.921032783389
7	31390	25210.122611532926	1.011512407009
7	31447	25235.994229287216	0.937220789399
7	31455	25238.556758331877	1.189252318628
7	31460	25241.583556682358	1.143011912424
7	31467	25244.792611625587	0.858709234744
7	31480	25257.711045474911	1.180587050598
7	31490	25272.395232156509	1.035239862651
7	31497	25284.580618367887	0.807477728557
7	31525	25298.073272221444	1.106845217012
7	31535	25304.273761601695	1.140769856703
7	31545	25311.604044272308	0.998210298829
7	31555	25322.461978700664	1.044027697109
7	31560	25323.985767826005	1.007406580728
7	31582	25337.336888270961	0.940323350765
7	31600	25343.049445729834	0.908670844138
7	31610	25348.129043054607	0.838156781066
7	31637	25368.972305770338	2.153129918164
7	31650	25374.953831745259	4.39189846935
7	31682	25395.327017271469	3.241032908673
7	31685	25396.452146273709	1.12512900224
7	31720	25428.714494093061	0.886841799598
7	31750	25443.81285109059	2.118495686571
7	31760	25450.099605024772	0.934239708632
7	31770	25454.497246757937	0.803620533552
7	31790	25470.127444482576	0.872540373169
7	31817	25500.389819778102	1.161567668337
7	31835	25516.508896802843	2.134818821506
7	31875	25553.093475845469	0.824442037009
7	31900	25584.68554219787	0.854166692216
7	31915	25602.769317210974	1.021406187303
7	31945	25626.206327277762	0.950120303594
7	31950	25627.168808366884	0.823991407454
7	31955	25638.202630725696	0.874641042016
7	31960	25645.7132226457	1.173221029621
7	31965	25664.005296270809	0.919916455541
7	31972	25669.657827655156	0.928455147147
7	32040	25729.896237971597	0.875709848851
7	32047	25732.466965709623	1.122944263089
7	32135	25816.25153548369	6.953053526329
7	32154	25837.953839125128	3.33311166473
7	32157	25838.849447277857	0.895608152729
7	32165	25841.201443732105	2.351996454248
7	32180	25849.590267756146	3.556350988438
7	32240	25912.62408127555	0.931885365024
7	32255	25922.027673456411	1.070638187509
7	32272	25927.038097214	2.259915057792
7	32280	25933.019101547681	1.101692507043
7	32290	25941.177815271778	0.968124882691
7	32295	25947.329675804083	0.924297717866
7	32320	25953.79205008273	1.187756064814
7	32325	25957.015201274976	1.138958993834
7	32360	25991.805347785098	1.073806734476
7	32365	25999.193360242159	0.901956738904
7	32385	26018.503491142177	1.161523098499
7	32432	26057.417297733895	0.976796489395
7	32435	26058.490385188668	5.4963031695
7	32450	26065.885835008298	0.800953606609
7	32455	26068.036124553408	5.989689600132
7	32497	26090.494565066895	1.705942270474
7	32510	26094.466444176083	1.033068401925
7	32522	26100.529948206579	0.916203252226
7	32530	26105.363353233811	0.985934127495
7	32540	26111.313806285496	2.524220298203
7	32570	26164.384507174244	0.861479510553
7	32595	26183.04461852545	2.30615869326
7	32600	26189.441497113055	1.008793436363
7	32607	26194.053806021363	1.16556895189
7	32612	26195.141768132356	1.087962110993
7	32615	26195.972362511811	0.830594379455
7	32620	26197.096812317144	1.006789036188
7	32635	26220.03533533271	3.263817424593
7	32665	26235.230375629464	1.165062252898
7	32675	26250.524475788672	0.811975114699
7	32680	26252.513419078173	1.00061737569
7	32694	26256.337407734978	1.140558026917
7	32697	26257.486409001227	1.149001266249
7	32700	26258.568681610178	1.082272608951
7	32732	26279.524994628452	2.750688684427
7	32772	26309.754355409818	0.854428890254
7	32780	26317.802094326837	1.193434917275
7	32810	26341.856627583849	2.089448031669
7	32815	26346.883420354118	1.132979713846
7	32845	26392.160886346397	3.433166574961
7	32850	26394.304234005157	0.901937506907
7	32870	26417.190721193597	0.968964533322
7	32880	26438.068922960034	0.872487396467
7	32885	26440.619130051222	1.094714597519
7	32897	26450.552102954288	1.061814433523
7	32917	26468.649366961479	3.256796324934
7	32924	26469.453559287883	0.804192326404
7	32930	26471.234721588775	0.969565045927
7	32982	26523.731581951389	2.775428692505
7	33000	26537.233467520492	2.223800949472
7	33020	26568.89565036206	1.177108165342
7	33035	26574.568858627138	2.457542746018
7	33049	26588.961925059182	1.172948896792
7	33055	26591.151033110634	1.193076557945
7	33070	26608.804548345067	0.90546346996
7	33090	26652.172619752277	0.859050067235
7	33097	26656.93161463605	1.079449167475
7	33100	26657.751657002305	0.820042366255
7	33105	26668.596227407884	1.093358915299
7	33120	26678.799898124065	0.920275767241
7	33142	26704.557179115431	7.060854625993
7	33155	26721.389464866495	5.445600578828
7	33160	26727.092738339295	0.810501790326
7	33167	26735.955741720684	1.067619907297
7	33170	26737.117601855695	1.161860135011
7	33230	26774.406476759368	1.860943061557
7	33242	26777.194121743267	1.040979769267
7	33250	26779.356843010423	0.978138843458
7	33277	26792.415900291988	0.918892574776
7	33280	26793.535080233516	1.119179941528
7	33304	26840.85988702038	1.045527748205
7	33330	26847.589157784874	2.088940979263
7	33350	26882.129865700511	1.140593490936
7	33357	26883.197698824027	0.930784767959
7	33370	26898.612703454264	2.374633461202
7	33375	26901.975689550554	1.123608217482
7	33380	26915.075301485571	0.960249869525
7	33405	26947.671392649517	1.126409119274
7	33410	26961.354108362238	0.9928693505
7	33422	26967.542479733448	0.891473422386
7	33425	26968.627608331549	1.085128598101
7	33430	26977.470932894604	1.117760450579
7	33480	27040.68725094828	2.707738714758
7	33505	27055.391387422684	0.966198725533
7	33520	27067.948724477911	1.129793940857
7	33530	27074.867063520837	1.062593925372
7	33535	27077.467347044371	0.878622649889
7	33540	27092.059795131772	0.955681734625
7	33560	27106.279924393578	1.037586704921
7	33565	27108.724885036982	1.018606732972
7	33570	27110.599610363271	1.042575460859
7	33610	27161.89845217907	2.201743865196
7	33615	27172.977903452062	0.823673670366
7	33620	27176.521051323479	1.04037013324
7	33640	27198.155015781022	1.138457376882
7	33649	27199.579923783459	1.09467779845
7	33700	27225.798926152483	1.027883200813
7	33715	27234.870735720725	6.452710154711
7	33732	27241.984440916697	1.01525495341
7	33739	27242.863468747227	0.87902783053
7	33745	27245.008568171146	5.007339074479
7	33760	27264.788138658205	1.114945339318
7	33765	27273.811054010029	1.054866410792
7	33780	27307.397908818967	0.843119511101
7	33795	27320.023436499289	3.193177534756
7	33815	27330.794839537557	1.087434566673
7	33820	27334.742260313942	0.915133882035
7	33825	27336.038785913136	0.86467376817
7	33845	27345.995844244104	0.983597582392
7	33850	27348.461982272684	0.813903420884
7	33885	27387.961110517151	0.92651963532
7	33890	27390.915556149176	1.178219645377
7	33944	27433.927949444727	0.98642277522
7	33969	27443.873642335259	0.835632660706
7	33977	27445.865230194186	2.563242230166
7	33980	27446.926892623291	5.26137941223
7	34005	27485.64489004981	1.110115813371
7	34025	27505.987791148885	1.949183847898
7	34030	27521.302388839357	1.060707081668
7	34042	27526.766728501902	0.813122372888
7	34052	27529.075764208458	0.862697869632
7	34084	27549.842255222741	2.413773985732
7	34097	27553.015524826794	0.936098000221
7	34100	27553.990115109681	3.502706371784
7	34107	27555.549860782193	4.315303025024
7	34130	27561.706109341572	2.884338533251
7	34137	27562.844834083508	0.861928332131
7	34155	27567.096625085592	0.866013152804
7	34165	27573.128454304742	5.328684682877
7	34195	27586.120826804231	6.963684632854
7	34200	27589.810999469462	0.918252782244
7	34207	27592.737132883131	0.913237192109
7	34220	27601.112744324375	1.10762227783
7	34240	27612.125226328282	5.920067722189
7	34247	27619.41711687873	0.956775072683
7	34255	27621.685716992352	1.061659563705
7	34260	27623.393939303271	0.837344241887
7	34265	27626.025921366322	1.128462393302
7	34270	27630.959913613201	1.005733122211
7	34280	27642.408842968518	1.153194094729
7	34285	27650.35059382542	1.010406557657
7	34317	27667.967180412454	1.039736437332
7	34320	27669.016260786825	1.049080374371
7	34352	27692.274436373733	0.951465976238
7	34384	27702.355619501639	0.88226327626
7	34387	27703.189686431587	2.131014362768
7	34390	27704.290997343734	1.101310912147
7	34395	27707.125461656732	0.885172636155
7	34402	27712.35442727429	1.046370939538
7	34452	27745.257258721614	6.827339006773
7	34455	27746.426055799598	1.168797077984
7	34485	27772.537751259526	0.921896303818
7	34502	27792.412649425522	1.157658975106
7	34515	27804.48256378044	0.84129615007
7	34525	27834.197057496745	0.934168773703
7	34530	27854.282873631368	1.169569025375
7	34560	27875.369277145102	3.384743155023
7	34565	27881.018886573547	0.91018172102
7	34582	27893.635626668746	0.967437632289
7	34595	27896.395153055604	2.599489410992
7	34600	27898.326685579816	1.012912914157
7	34610	27911.893581943356	1.12201889148
7	34620	27919.735304095492	1.136604645662
7	34627	27934.579319376139	1.150031060353
7	34635	27953.980094448284	0.994647258054
7	34665	27973.769412387034	1.079329649359
7	34685	27997.824948686714	1.193380845897
7	34695	28012.307952295619	1.085236919578
7	34702	28020.79551791291	0.890114142001
7	34712	28022.925555657898	1.017659008969
7	34755	28094.246436396447	0.884476081282
7	34765	28114.797066491343	2.028620474013
7	34772	28116.238169271782	1.199473122507
7	34789	28123.513194350905	1.042531410605
7	34802	28126.225303988351	0.86976186661
7	34807	28127.282633375103	1.057329386752
7	34810	28128.310523231427	1.027889856324
7	34815	28129.740520161891	1.014722772595
7	34832	28135.546610985438	0.817517919652
7	34900	28185.194087011319	0.944524392486
7	34915	28193.400491573327	1.159494344145
7	34957	28215.181202212924	0.909068866167
7	34985	28235.623893305733	5.309962837322
7	35027	28255.458175912167	1.041319559515
7	35035	28257.184230763039	0.886647401098
7	35040	28259.669294033864	1.155942000728
7	35065	28268.000997955354	5.337366467603
7	35080	28273.991255583961	0.996783101
7	35085	28282.043686984631	1.115202980489
7	35140	28329.259064885527	0.842600163817
7	35152	28332.77817101331	8.519819958991
7	35160	28341.835579978219	1.055699853227
7	35170	28356.004867987359	0.870744501147
7	35175	28361.994532626328	1.078128135949
7	35195	28375.484059402774	0.953196514491
7	35214	28388.263628338332	1.124660163186
7	35225	28391.247188141977	1.828914702105
7	35235	28416.566438093881	1.127782949992
7	35240	28423.061870035518	0.868134251237
7	35255	28433.733361686542	1.131942375097
7	35267	28446.335787611473	0.960923095793
7	35280	28453.717121169841	0.856345733348
7	35290	28459.705575688581	0.972774206288
7	35302	28467.089867065922	0.919101606589
7	35305	28468.196437654719	1.106570588797
7	35315	28472.594572560585	1.021927245427
7	35325	28514.568293247089	1.021966796834
7	35342	28523.993134937114	3.345930001113
7	35350	28526.411461248143	4.46039758877
7	35385	28565.516294009656	0.9249534918
7	35400	28578.839511292953	1.180431554932
7	35420	28601.570304513178	1.010251378361
7	35447	28624.755719949283	1.099568766076
7	35460	28634.223039808206	0.921259369515
7	35465	28638.061928769616	0.946493511368
7	35475	28652.991593008842	0.834866931848
7	35500	28671.905896939109	1.182197475899
7	35505	28681.855222657873	0.940971019864
7	35522	28699.428662601208	0.863667015452
7	35560	28707.292019505148	2.082431479968
7	35575	28710.552846380054	2.837850391424
7	35580	28712.823736800671	0.893037539348
7	35595	28722.406466696163	2.797255485546
7	35610	28738.538021903964	3.738414518059
7	35615	28739.801831800152	2.939292822892
7	35639	28762.941308626743	1.092657849379
7	35645	28764.689787472622	0.926418147236
7	35662	28781.399056196396	2.047421686912
7	35722	28811.456635523752	0.920029935148
7	35735	28814.283663633264	0.932680598926
7	35740	28817.990619525835	0.836543516722
7	35755	28828.970172274987	1.027057531103
7	35775	28858.380481605149	1.006967792753
7	35780	28859.580263440388	1.05747212125
7	35792	28872.221715472923	0.810016722418
7	35815	28896.911469382208	0.840370368399
7	35827	28910.795256315268	1.190513127018
7	35850	28921.089322758015	0.959609425906
7	35915	28969.350944951909	0.88872773489
7	35935	28995.467414599021	4.681048582675
7	35955	29015.457680001299	5.715019189345
7	35965	29017.780093275202	0.931188819185
7	35975	29020.929829079444	0.9748487195
7	35980	29023.947232156906	0.821491530631
7	35985	29031.314186705025	1.082626953628
7	35995	29044.00028511034	2.015555371707
7	36005	29049.964465513772	0.902492960636
7	36061	29070.245404411791	1.075037599169
7	36064	29071.158131775385	4.326869734057
7	36067	29072.189258009972	2.217594422358
7	36075	29075.735480573677	3.546222563705
7	36095	29085.620610440443	0.905077580549
7	36115	29112.814700357147	3.271722975428
7	36130	29124.916524163418	0.846158041433
7	36142	29127.975791008028	0.887378973328
7	36150	29146.683193463035	0.892062227987
7	36155	29147.970330188159	1.102133727446
7	36165	29154.698033588338	2.98420795115
7	36170	29159.687743456922	1.089110191353
7	36180	29167.33667680015	1.071053062566
7	36185	29172.773113774874	0.875003248826
7	36220	29201.521248612767	0.941386765614
7	36250	29218.661958175085	3.729523284556
7	36257	29220.109039182214	0.887081227545
7	36267	29224.565143636474	1.139025890455
7	36272	29225.634766602283	5.295844081701
7	36275	29226.455829005548	0.821062403265
7	36297	29256.840106356324	1.108397981338
7	36340	29296.384379968255	1.978018800564
7	36354	29316.333510140007	0.803709077928
7	36360	29318.304651589927	0.89399345573
7	36375	29325.591770815914	0.982445827592
7	36385	29338.129364611434	1.051503120363
7	36390	29343.93743490366	1.162129338272
7	36450	29372.520093504555	1.165902824048
7	36460	29384.210764023936	0.855603386275
7	36465	29386.403355147262	1.15879232185
7	36480	29396.633533389566	1.061706975475
7	36505	29410.648384135753	1.039635360707
7	36525	29429.510939958708	0.934507222008
7	36546	29435.963076976199	2.319827141117
7	36552	29437.901155770175	1.103636112064
7	36555	29438.84415259983	0.942996829655
7	36560	29439.873488586847	3.910411610648
7	36570	29442.743914317669	0.921790114883
7	36590	29454.597997242452	1.059014782589
7	36600	29460.028851280322	1.011806643661
7	36610	29463.092161929898	0.863875804376
7	36632	29487.510272839996	2.954167076016
7	36635	29488.344019876937	0.833747036941
7	36655	29528.272461796763	1.133981145639
7	36685	29544.236971873446	0.83202665709
7	36710	29586.182615341365	1.125254866295
7	36732	29591.950599380313	0.838051964622
7	36735	29593.050835054191	2.157712754368
7	36757	29603.464653076025	1.144294728618
7	36760	29604.659683695136	1.195030619111
7	36775	29610.167788765173	3.726614731076
7	36800	29618.317452207414	1.045635567512
7	36807	29619.534433424824	0.999181925505
7	36825	29627.664905802225	1.069049361441
7	36842	29643.759902449628	0.990417712554
7	36845	29644.611911781622	0.852009331994
7	36850	29651.448874844236	1.127991145104
7	36855	29661.332099022519	1.020784072578
7	36860	29679.068441634772	1.024001694191
7	36890	29706.316528578851	1.18781495234
7	36907	29710.814312517567	1.153872870095
7	36910	29711.647471878508	1.854043360074
7	36915	29719.542672496392	0.869065054972
7	36925	29728.649335186182	1.037267087493
7	36930	29730.922491971299	0.924749957304
7	36960	29764.0358259641	1.097235412151
7	36970	29784.246991934615	0.901832668204
7	36975	29798.74842063367	0.898168606963
7	36980	29800.826936147717	1.094417287409
7	37005	29839.383952845007	0.823328409251
7	37035	29879.868543336563	2.126013266163
7	37092	29901.87064908528	1.186748811603
7	37100	29904.542392359915	2.671743274635
7	37120	29924.710295154885	0.845119414013
7	37187	29961.4042703405	1.125056287553
7	37207	29966.555063473791	5.150793133291
7	37215	29968.624313836321	3.841515920009
7	37220	29971.33769660297	0.82378535457
8	12765	10127.345392748897	1
8	12766	10127.669306732663	0
8	14165	11179.298502985317	1
8	14166	11179.425001345577	0
8	14170	11180.323108402642	1
8	14171	11181.406132404211	0
8	16377	12729.323922976248	1
8	16379	12729.605832885644	0
8	18197	14226.022817041561	1
8	18199	14226.849112405578	0
8	18430	14424.185951016196	1
8	18436	14425.735767306019	0
8	19150	14945.991174529789	1
8	19154	14947.520022301566	0
8	19770	15477.768491763205	1
8	19771	15479.347650763986	0
8	22405	17678.353736138092	1
8	22406	17678.496182436101	0
8	25872	20524.347047983922	1
8	25876	20524.528954540378	0
8	31420	25227.363443087681	1
8	31421	25227.534239600471	0
8	33679	27221.153436818913	1
8	33681	27221.230398123646	0
9	13690	10857.524334477724	1
9	13696	10859.496999677901	0
9	15675	12303.184989170357	1
9	15681	12304.294031936234	0
9	18060	14112.795896196857	1
9	18061	14113.603952630401	0
9	18650	14633.2103409404	1
9	18651	14634.054835805049	0
9	18657	14635.123226897916	1
9	18664	14637.16710773919	0
9	20850	16431.68454770121	1
9	20851	16433.154498465764	0
9	21610	17065.175422863439	1
9	21611	17067.802781155694	0
9	25250	20004.397519370149	1
9	25259	20006.772876648199	0
9	28125	22438.6798907247	1
9	28126	22439.578967587162	0
9	28130	22440.598822047446	1
9	28131	22441.969130754934	0
9	29315	23383.889754085209	1
9	29319	23385.125976273826	0
9	30640	24551.662572946169	1
9	30641	24552.607443044179	0
9	33960	27442.700134737601	1
9	33964	27443.107855862384	0
9	34092	27552.079426826573	1
9	34094	27552.370371311638	0
9	35605	28737.562772339085	1
9	35606	28737.669639069507	0
9	36050	29069.080295677478	1
9	36054	29069.757957839412	0
9	37200	29964.331221343919	1
9	37201	29965.585033346512	0

