version 2
run Second_exit_5-9-20191023-00:19:59-5204
attr configname Second_exit_5
attr datetime 20191023-00:19:59
attr experiment Second_exit_5
attr inifile omnetpp.ini
attr iterationvars ""
attr iterationvarsf ""
attr measurement ""
attr network ResponseTimeNetwork
attr processid 5204
attr repetition 9
attr replication #9
attr resultdir results
attr runnumber 9
attr seedset 9
param **.Source.interArrivalTime exponential(5s)
param **.jobPriority bernoulli(0.6)
param **.PS.serviceTimeU1 "uniform(0.8s, 1.2s)"
param **.PS.serviceTimeU2 "uniform(1.8s, 2.2s)"
param **.SS1.serviceTime exponential(1s)
param **.SS2.serviceTime exponential(1.2s)
param **.PS.exitProbability bernoulli(0.5)

vector 0 ResponseTimeNetwork.SS1 queueLength:vector ETV
attr interpolationmode sample-hold
attr title "queue length, vector"
vector 1 ResponseTimeNetwork.SS2 queueLength:vector ETV
attr interpolationmode sample-hold
attr title "queue length, vector"
vector 2 ResponseTimeNetwork.QueueU1 queueLength:vector ETV
attr interpolationmode sample-hold
attr title "queue length, vector"
vector 3 ResponseTimeNetwork.QueueU2 queueLength:vector ETV
attr interpolationmode sample-hold
attr title "queue length, vector"
vector 4 ResponseTimeNetwork.sink lifeTimeU1:vector ETV
attr interpolationmode none
attr title "lifetime of arrived jobs U1, vector"
attr unit s
vector 5 ResponseTimeNetwork.sink lifeTime:vector ETV
attr interpolationmode none
attr title "lifetime of arrived jobs, vector"
attr unit s
vector 6 ResponseTimeNetwork.sink lifeTimeU2:vector ETV
attr interpolationmode none
attr title "lifetime of arrived jobs U2, vector"
attr unit s
0	0	0	0
0	185	90.195117108732	1
0	186	90.996441130505	0
0	190	92.160231614464	1
0	191	92.506990094475	0
0	202	94.272600067213	1
0	206	94.966354229518	0
0	216	96.135947371732	1
0	218	96.274078005773	0
0	309	116.09000237128	1
0	314	117.5505704869	0
0	607	300.69212468152	1
0	616	302.533788223593	0
0	647	308.705196293042	1
0	649	309.077842824714	0
0	679	314.688575733983	1
0	682	315.877620512311	2
0	684	316.38229456662	1
0	686	316.419497200552	0
0	702	319.305700359278	1
0	704	319.417376933332	0
0	747	328.935391545175	1
0	749	329.188372993478	0
0	890	389.545081944548	1
0	891	389.928595577465	0
0	895	390.844740178348	1
0	896	391.672649814779	0
0	905	393.682853884934	1
0	909	396.872305155641	0
0	1782	892.427479152777	1
0	1786	892.566717008327	0
0	1796	894.390048688207	1
0	1798	894.566724542835	0
0	2227	1132.336867267766	1
0	2229	1133.384323339356	0
0	2405	1184.843354284135	1
0	2409	1185.55086214441	0
0	2412	1186.410519679059	1
0	2414	1187.245166272342	0
0	2420	1188.266557376814	1
0	2421	1188.879414657799	0
0	2432	1190.923736684226	1
0	2436	1197.374511408046	0
0	2960	1478.925800028389	1
0	2961	1479.826511646165	0
0	2977	1482.699042346338	1
0	2979	1482.795914346853	0
0	2992	1485.872351792092	1
0	2994	1485.936278784766	0
0	2999	1486.810508459909	1
0	3006	1488.319376983919	0
0	3475	1762.169088125977	1
0	3476	1762.339595662521	0
0	3615	1839.872045948447	1
0	3616	1840.678157093867	0
0	3620	1841.482152959357	1
0	3626	1843.540104414444	0
0	3890	1952.132127062772	1
0	3894	1953.56909578532	0
0	3897	1953.753070514813	1
0	3899	1954.372679558003	0
0	3902	1954.626306669298	1
0	3906	1957.830784729468	0
0	4714	2420.662911605149	1
0	4716	2420.699697052073	0
0	4795	2439.388405425148	1
0	4796	2441.358693632644	0
0	5637	2871.266275602468	1
0	5639	2872.118476731746	0
0	5642	2872.307261676044	1
0	5649	2875.499728292261	0
0	6152	3126.962653564925	1
0	6154	3127.150035124855	0
0	6250	3195.715310391942	1
0	6251	3195.881091841966	0
0	6260	3197.911223882999	1
0	6261	3198.02500339641	0
0	6265	3199.173261675953	1
0	6266	3200.838937939857	0
0	6410	3316.261991745875	1
0	6411	3316.388240073923	0
0	6522	3351.673952409304	1
0	6526	3358.212833568009	0
0	7105	3666.226207088559	1
0	7106	3666.245941229828	0
0	7165	3689.707442134118	1
0	7166	3689.804506262755	0
0	7170	3690.899996143756	1
0	7171	3691.844844506573	0
0	7449	3840.487578590895	1
0	7451	3841.148305606507	0
0	7552	3863.875884378747	1
0	7554	3864.041324840196	0
0	7850	4022.437506277058	1
0	7851	4023.045332263592	0
0	7860	4025.311640587351	1
0	7861	4025.739957506898	0
0	8095	4106.766360444312	1
0	8096	4107.973783881027	0
0	8100	4108.873519390817	1
0	8101	4108.885651628995	0
0	8155	4133.54058424656	1
0	8156	4133.713506474727	0
0	8175	4137.74427806112	1
0	8176	4137.915421818508	0
0	8410	4222.720435190111	1
0	8411	4223.722491178855	0
0	8415	4224.888697076596	1
0	8416	4225.423198990271	0
0	8420	4226.296849881232	1
0	8421	4228.837529757194	0
0	8439	4231.801953488909	1
0	8441	4232.004379133777	0
0	8605	4297.24043186819	1
0	8606	4298.680245701049	0
0	8775	4365.566789473497	1
0	8776	4365.752142291678	0
0	8780	4366.588610900355	1
0	8781	4366.816656146693	0
0	8796	4368.796068963251	1
0	8798	4369.608691603144	0
0	8833	4375.492668181965	1
0	8837	4376.145200617831	0
0	9750	4993.980749512475	1
0	9751	4994.978077968736	0
0	9765	4997.819250965644	1
0	9766	4998.18923163568	0
0	9775	5000.138434440693	1
0	9776	5000.497243871069	0
0	9780	5001.351589301223	1
0	9781	5002.558587976682	0
0	9875	5047.100370162907	1
0	9879	5048.904680401925	0
0	9882	5049.713928131349	1
0	9885	5050.739784043617	2
0	9886	5051.023889417454	1
0	9890	5052.054022790186	2
0	9891	5052.303582682208	1
0	9894	5052.308026277507	0
0	10147	5169.391384126018	1
0	10149	5170.426025243429	0
0	10229	5191.234573649179	1
0	10231	5191.298305298012	0
0	10266	5198.078384557768	1
0	10268	5198.349448978249	0
0	10287	5200.849551391538	1
0	10289	5201.689986463207	0
0	11107	5583.207946334653	1
0	11114	5585.054932794717	0
0	11437	5751.345930722299	1
0	11442	5752.207240901644	2
0	11446	5752.52369100491	1
0	11451	5753.425760394718	0
0	11715	5935.523844080853	1
0	11716	5935.63539504038	0
0	13365	6672.184698328828	1
0	13366	6672.679163829974	0
0	13370	6673.557632202181	1
0	13371	6674.021073648868	0
0	13385	6676.918967271666	1
0	13386	6677.139011580099	0
0	13620	6797.500476280467	1
0	13621	6797.887025037569	0
0	13822	6881.688623197707	1
0	13824	6882.699306300883	0
0	13832	6883.833550282153	1
0	13836	6884.741527886602	0
0	14504	7181.251913525672	1
0	14506	7181.549311970997	0
0	14740	7273.166095711988	1
0	14741	7274.153109323164	0
0	15122	7422.245592225513	1
0	15129	7423.563277808323	0
0	15134	7424.270126866254	1
0	15136	7424.522960446147	0
0	15139	7425.339070142231	1
0	15141	7425.588613178108	0
0	15157	7429.270666194971	1
0	15161	7431.048851630748	0
0	15624	7712.831322269366	1
0	15626	7712.833343947632	0
0	15643	7716.34811098626	1
0	15645	7716.919255016978	0
0	16050	7883.08247908251	1
0	16051	7883.828467714267	0
0	16562	8186.234961301477	1
0	16569	8187.717063723378	0
0	16846	8334.110361338108	1
0	16848	8334.166484046328	0
0	17088	8453.133310897705	1
0	17093	8454.398378806551	0
0	17312	8567.178955021558	1
0	17314	8567.283849637956	0
0	17347	8574.119280954043	1
0	17349	8574.158706980727	0
0	17484	8617.055962815645	1
0	17489	8618.758246700927	0
0	18107	8902.565316183811	1
0	18109	8903.018651594937	0
0	18480	9101.839696717558	1
0	18481	9102.057390184309	0
0	18740	9286.314330467117	1
0	18749	9288.41970069182	0
0	18765	9291.967201149109	1
0	18769	9292.725276859121	0
0	18987	9410.235801188414	1
0	18989	9410.596454379806	0
0	19495	9616.150484352382	1
0	19496	9616.322989407084	0
0	19689	9689.873418786828	1
0	19704	9694.312653644799	0
0	19754	9703.789717784752	1
0	19763	9705.37715511752	0
0	19788	9709.791506070686	1
0	19790	9710.111446500774	0
0	20037	9821.765331256258	1
0	20040	9822.613981484956	2
0	20041	9822.649696001148	1
0	20044	9822.661820360603	0
0	20047	9823.660457313823	1
0	20053	9824.763435641871	0
0	20056	9824.784678995068	1
0	20058	9825.24049757408	0
0	20590	10095.647152000494	1
0	20591	10096.395246668489	0
0	20600	10098.313690506716	1
0	20601	10098.565163809019	0
0	20680	10122.577461525441	1
0	20681	10123.517598928035	0
0	20980	10273.525924172662	1
0	20984	10273.846367654723	0
0	21097	10325.468443331588	1
0	21099	10325.513529040063	0
0	21685	10739.593181347652	1
0	21686	10739.913750625432	0
0	21762	10763.548128705564	1
0	21764	10763.807515119252	0
0	21972	10919.520039051336	1
0	21979	10920.842446246796	0
0	21982	10921.204175341905	1
0	21984	10921.274253585761	0
0	22124	10988.007700703132	1
0	22126	10988.220466272558	0
0	22415	11096.691720077291	1
0	22416	11097.428053434513	0
0	22425	11099.242767143197	1
0	22426	11099.512333114794	0
0	22430	11100.377380588441	1
0	22431	11100.542724446224	0
0	22445	11103.767258011939	1
0	22446	11103.921186841477	0
0	22450	11104.901186638989	1
0	22451	11105.789883957646	0
0	24040	11877.520129102754	1
0	24046	11879.534538825152	0
0	24134	11898.990073734788	1
0	24141	11900.190354276633	0
0	24540	12086.43252433532	1
0	24541	12086.758647529423	0
0	24545	12087.677196313362	1
0	24546	12089.657318037665	0
0	24550	12090.753022619067	1
0	24551	12092.834521503756	0
0	24732	12181.799263589199	1
0	24734	12182.219596583629	0
0	24742	12183.765231550227	1
0	24744	12183.990284673092	0
0	24960	12321.808267839914	1
0	24961	12322.800266235509	0
0	25300	12458.132676131604	1
0	25301	12458.353300324424	0
0	25521	12640.514272437909	1
0	25523	12641.111342753538	0
0	25539	12644.193499085786	1
0	25541	12644.940904872462	0
0	25547	12646.435916483043	1
0	25549	12647.003149416614	0
0	25875	12871.58964782958	1
0	25876	12871.86848142613	0
0	26390	13117.472797805017	1
0	26391	13118.831238657297	0
0	26395	13119.866392195099	1
0	26396	13124.9102782466	0
0	26450	13140.283143434418	1
0	26451	13141.165130160997	0
0	26910	13398.737199380446	1
0	26911	13399.776881652743	0
0	26915	13400.747860059001	1
0	26916	13400.801994975631	0
0	27112	13458.741371498826	1
0	27114	13459.00475410553	0
0	27265	13532.643006576793	1
0	27276	13537.622638011243	0
0	27990	13874.139519108774	1
0	27991	13874.338767580052	0
0	28127	13957.184684108153	1
0	28129	13958.088992726626	0
0	28212	13994.038112131135	1
0	28214	13994.527342381103	0
0	29062	14428.967966510044	1
0	29064	14428.992103248195	0
0	29119	14455.514359603592	1
0	29124	14456.750329065473	0
0	29864	14813.03928758355	1
0	29866	14813.590213501661	0
0	29872	14815.031999302862	1
0	29874	14815.273987136814	0
0	29997	14892.28949348722	1
0	30001	14892.674356424365	0
0	30327	15055.326134650427	1
0	30329	15055.857941985682	0
0	30349	15059.460593712534	1
0	30354	15060.826607338902	0
0	30955	15293.974543228222	1
0	30956	15295.070004821271	0
0	31172	15373.750648096877	1
0	31174	15374.563934124557	0
0	31177	15374.623080385404	1
0	31179	15374.643709664763	0
0	31755	15625.162986249679	1
0	31756	15625.302604864846	0
0	31765	15627.245404158468	1
0	31770	15628.845807788482	2
0	31771	15631.143106232561	1
0	31776	15632.726571060177	0
0	32427	15947.577324387073	1
0	32429	15947.739011568003	0
0	32454	15953.032724631872	1
0	32464	15955.806815503126	0
0	32474	15957.692943868059	1
0	32476	15958.237249306956	0
0	33655	16602.308164276913	1
0	33656	16604.007142032751	0
0	33835	16674.557136889963	1
0	33836	16676.302353234641	0
0	33881	16684.275772117688	1
0	33883	16684.611822408201	0
0	33886	16685.187577393423	1
0	33888	16686.1840067061	0
0	33907	16690.487488137796	1
0	33909	16690.682257694151	0
0	33952	16699.454880256137	1
0	33954	16700.184539828382	0
0	34061	16748.533804011049	1
0	34064	16749.481596435124	2
0	34066	16750.348863074337	1
0	34071	16750.639279288281	0
0	34074	16751.230850881042	1
0	34078	16752.069304943467	0
0	34081	16752.136562154798	1
0	34083	16752.941829150815	0
0	34089	16754.257006409096	1
0	34093	16754.992482576032	0
0	34750	17080.214849274025	1
0	34760	17085.555092492186	2
0	34764	17087.884916946048	1
0	34774	17090.572467226817	0
0	34777	17090.627548999789	1
0	34779	17090.815851993547	0
0	34792	17093.730424301496	1
0	34796	17093.910912993119	0
0	34804	17095.863926183043	1
0	34806	17096.194749136855	0
0	35490	17414.972074637233	1
0	35491	17415.681879756925	0
0	35497	17416.509503089589	1
0	35499	17416.866340485328	0
0	35615	17461.793873273656	1
0	35616	17462.563455736441	0
0	36920	18138.110599836539	1
0	36921	18138.63816652698	0
0	36925	18139.580285515725	1
0	36926	18140.199735195288	0
0	37355	18492.701122515554	1
0	37359	18493.352167209151	0
0	37695	18717.545675631356	1
0	37696	18719.029854256631	0
0	37700	18719.925994016853	1
0	37701	18721.58494273869	0
0	37705	18722.669423803386	1
0	37706	18722.729856487199	0
0	39695	19942.50158352488	1
0	39696	19942.580740865245	0
0	40157	20211.998366009734	1
0	40159	20212.089424238385	0
0	40562	20374.115453091504	1
0	40564	20374.820730721099	0
0	40589	20379.0228918308	1
0	40591	20379.932206814203	0
0	40947	20520.994359118642	1
0	40949	20521.69140240046	0
0	41215	20669.410675967188	1
0	41216	20670.56275402554	0
0	41225	20672.447173176376	1
0	41226	20673.23594726782	0
0	41235	20675.189790196453	1
0	41236	20675.252993144787	0
0	41245	20677.261347060225	1
0	41246	20677.523454762545	0
0	41445	20788.486369999578	1
0	41446	20790.636449497641	0
0	41710	20927.37214445906	1
0	41711	20928.514499981034	0
0	41722	20930.483866152339	1
0	41724	20931.257879868675	0
0	41727	20931.397538995914	1
0	41730	20932.490889170285	2
0	41731	20934.664888804522	1
0	41734	20935.030717404472	0
0	41757	20939.611150673334	1
0	41761	20940.585777056282	0
0	41799	20947.758780476754	1
0	41811	20949.8124293764	0
0	41829	20953.637498797687	1
0	41831	20954.384477390998	0
0	41877	20963.653165373416	1
0	41884	20964.979830074118	0
0	42127	21121.232219090888	1
0	42129	21121.530142936228	0
0	42439	21253.959170507435	1
0	42444	21255.145563807599	2
0	42451	21256.924409581906	1
0	42456	21257.455340772309	0
0	42897	21458.219982626383	1
0	42899	21458.579559753196	0
0	43689	21862.399274485506	1
0	43691	21863.096170018178	0
0	43694	21863.310766505957	1
0	43706	21866.708473641649	0
0	43740	21876.222199434575	1
0	43741	21876.286339040555	0
0	43907	21940.738742712116	1
0	43909	21941.080249403198	0
0	44045	22007.902936630466	1
0	44046	22009.450140267259	0
0	44145	22040.375365913833	1
0	44146	22041.424800083892	0
0	44550	22214.400978825104	1
0	44563	22216.864690135828	0
0	45537	22687.459185961105	1
0	45539	22687.583126345597	0
0	46155	23057.781950678559	1
0	46156	23057.951569886328	0
0	46815	23394.92762412099	1
0	46816	23395.32989222709	0
0	46837	23399.350873944386	1
0	46840	23400.383371242638	2
0	46844	23401.811403263824	1
0	46846	23402.367090369778	0
0	46865	23406.41911021351	1
0	46866	23406.918443132053	0
0	47795	23950.971894005644	1
0	47796	23952.368065413551	0
0	47812	23955.482390690407	1
0	47814	23955.513682616126	0
0	47817	23956.661291607002	1
0	47824	23958.097090631651	0
0	47897	23985.143593071122	1
0	47899	23985.960711695934	0
0	48035	24035.996451108364	1
0	48041	24040.75614414564	0
0	48065	24047.944273826885	1
0	48066	24048.210916188025	0
0	48129	24073.708784234794	1
0	48140	24075.416553603088	0
0	48143	24076.036656469377	1
0	48145	24076.150436131127	0
0	48620	24314.015640415191	1
0	48621	24314.191160337746	0
0	48630	24316.224175424528	1
0	48631	24317.326746588085	0
0	48710	24357.476215918487	1
0	48714	24358.549758589452	0
0	48717	24359.234779976099	1
0	48719	24359.558602500834	0
0	49365	24675.586909114294	1
0	49366	24676.047537903122	0
0	49530	24771.887610294925	1
0	49531	24772.30333338428	0
0	49602	24797.46553801797	1
0	49606	24798.117384168814	0
0	49609	24798.414613230952	1
0	49611	24798.450228131404	0
0	50004	24984.601332137709	1
0	50009	24985.992896648905	0
0	50287	25110.797788848347	1
0	50291	25112.586339956047	0
0	50607	25289.269780094188	1
0	50609	25289.294413013238	0
0	50646	25297.054430942062	1
0	50648	25297.105879588221	0
0	50671	25302.025904300726	1
0	50676	25303.047797657983	0
0	50682	25304.742159085545	1
0	50686	25305.571055034196	0
0	50696	25306.738014157593	1
0	50698	25307.126939552257	0
0	50704	25308.748840390436	1
0	50719	25314.785306658954	0
0	50722	25315.229328924221	1
0	50724	25315.294314870761	0
0	50977	25508.926299783888	1
0	50979	25509.437293445207	0
0	51130	25556.349999434829	1
0	51131	25558.526937308921	0
0	52322	26185.356371125917	1
0	52324	26185.403313345398	0
0	52850	26471.284573395811	1
0	52851	26472.206168210317	0
0	52855	26473.132485978954	1
0	52856	26473.940825525613	0
0	52860	26474.887780517561	1
0	52866	26480.270380584022	0
0	52985	26506.294871411638	1
0	52986	26506.374360489461	0
0	53165	26596.371538327436	1
0	53166	26596.826553293216	0
0	53389	26699.327743529919	1
0	53396	26701.471076845396	0
0	53470	26729.304944149737	1
0	53471	26729.429115151914	0
0	53482	26731.348070443349	1
0	53485	26732.204242216816	2
0	53486	26734.044301324467	1
0	53491	26735.621777501902	0
0	53740	26839.867043681429	1
0	53741	26840.350934770143	0
0	53785	26857.674045022971	1
0	53794	26860.293243065793	0
0	53965	26906.051885951481	1
0	53970	26907.074845358765	2
0	53971	26907.294123731082	1
0	53974	26907.905609897323	0
0	53977	26908.131217001559	1
0	53980	26909.223088808259	2
0	53981	26910.183968542533	1
0	53986	26910.490968064364	0
0	53989	26911.006056681292	1
0	53991	26911.354992694167	0
0	53994	26911.9328270727	1
0	53996	26911.975143322043	0
0	54675	27291.366110822391	1
0	54681	27292.910151442171	0
0	54684	27293.030571065376	1
0	54687	27294.017207301872	2
0	54689	27294.340793957614	1
0	54692	27295.137463281395	2
0	54694	27295.255185816851	1
0	54697	27296.10533726597	2
0	54699	27296.890132054727	1
0	54701	27297.021766990765	0
0	54712	27299.358196660129	1
0	54714	27300.320282519774	0
0	55515	27662.512716530369	1
0	55516	27662.619831972558	0
0	55830	27810.159774327086	1
0	55831	27810.85085105216	0
0	55835	27811.929848521388	1
0	55841	27814.1074409071	0
0	55845	27815.000999454653	1
0	55855	27816.974427727178	2
0	55861	27818.730400491037	1
0	55866	27820.862164804366	0
0	55870	27821.849212779597	1
0	55871	27822.258789350961	0
0	55925	27849.438169212046	1
0	55926	27850.220692242602	0
0	56442	28066.018826593325	1
0	56444	28066.112401818266	0
0	56449	28067.15719938656	1
0	56456	28070.652209569203	0
0	56462	28071.559578499167	1
0	56464	28071.626148142879	0
0	56695	28160.761779200588	1
0	56696	28160.958926216024	0
0	56743	28174.752892909604	1
0	56745	28175.50449968455	0
0	57015	28268.12829710495	1
0	57016	28269.80566073408	0
0	57305	28405.979733961086	1
0	57306	28406.725880641737	0
0	57480	28512.697681548607	1
0	57481	28512.896092990623	0
0	58134	28805.034375987597	1
0	58136	28805.475248988852	0
0	58810	29101.384552824337	1
0	58811	29101.863399677253	0
0	59457	29484.466321670289	1
0	59459	29484.659685721965	0
0	59540	29537.940075714185	1
0	59541	29539.239494475685	0
0	59675	29592.886236933843	1
0	59676	29593.144269086817	0
0	59760	29650.464414648762	1
0	59761	29651.689678683805	0
0	59770	29653.61062697314	1
0	59771	29654.083235926962	0
0	59775	29654.890083272232	1
0	59776	29655.188241277483	0
0	60135	29850.719544054899	1
0	60136	29851.120513626003	0
1	0	0	0
1	75	39.638803827664	1
1	76	40.560383071004	0
1	135	72.826592155717	1
1	136	74.938149686059	0
1	1245	625.466871220125	1
1	1246	626.403829384847	0
1	1285	670.099653302618	1
1	1286	670.228077072174	0
1	1290	671.363847608481	1
1	1291	671.39813366795	0
1	1757	887.311176132061	1
1	1759	887.6567770093	0
1	2170	1078.975948891865	1
1	2171	1083.886540536972	0
1	2345	1167.005966030273	1
1	2346	1168.391783018297	0
1	4569	2373.20086396371	1
1	4571	2373.299660247104	0
1	4600	2379.64601775731	1
1	4601	2379.848535253549	0
1	5015	2543.396907145809	1
1	5016	2544.224267871031	0
1	5025	2546.126014865288	1
1	5026	2547.023088186553	0
1	5040	2550.30561999664	1
1	5041	2551.529764959996	0
1	5490	2829.986353152934	1
1	5491	2832.641154616314	0
1	5495	2833.446179507381	1
1	5496	2833.505708846561	0
1	5985	2993.286755170792	1
1	5989	2994.516823493661	0
1	6645	3461.772344718305	1
1	6646	3462.256302215657	0
1	7680	3913.535911006346	1
1	7684	3915.80017405417	0
1	7907	4036.477542340151	1
1	7911	4038.891480456067	0
1	8235	4171.940466485549	1
1	8236	4172.607610252271	0
1	8240	4173.782360158818	1
1	8241	4174.33320392479	0
1	8327	4200.307094913674	1
1	8331	4203.033340344524	0
1	10369	5219.415260432412	1
1	10376	5221.713616552887	0
1	11750	5948.015934394748	1
1	11754	5949.327558313913	0
1	12400	6258.14048933567	1
1	12401	6258.521025349583	0
1	12405	6259.482497326761	1
1	12406	6261.530414284677	0
1	12489	6284.123275653123	1
1	12491	6284.345353127487	0
1	14300	7107.241271698509	1
1	14301	7108.030828398862	0
1	14627	7217.759406737969	1
1	14629	7218.145181218734	0
1	15080	7410.858993665597	1
1	15081	7411.893374911648	0
1	15697	7731.69271285487	1
1	15699	7732.383952293026	0
1	15765	7766.044857722772	1
1	15766	7768.412677006621	0
1	15770	7769.447759486746	1
1	15771	7770.052665302697	0
1	15787	7773.29452396946	1
1	15790	7774.100379268154	2
1	15795	7777.444375658353	3
1	15796	7780.606329051178	2
1	15799	7780.769466445157	1
1	15802	7781.452888215479	2
1	15805	7782.317539446481	3
1	15806	7782.97397344465	2
1	15810	7783.819124774063	3
1	15814	7784.261382250626	2
1	15816	7784.391463165655	1
1	15829	7787.250723061263	0
1	16195	7928.73342542266	1
1	16199	7930.228839998629	0
1	16672	8244.736149253571	1
1	16676	8246.021013090166	0
1	16680	8247.187916099152	1
1	16681	8247.800562069745	0
1	17065	8450.005694522098	1
1	17073	8450.693732830679	0
1	18347	9023.554485852914	1
1	18351	9024.604043945758	0
1	18865	9330.397537110315	1
1	18866	9330.631139372223	0
1	18875	9332.268472929512	1
1	18881	9333.820004423981	0
1	19445	9584.404873574424	1
1	19446	9584.602453992619	0
1	19615	9666.587031236497	1
1	19616	9666.86029325247	0
1	19625	9668.520162892977	1
1	19626	9670.513825294619	0
1	19862	9741.475470192301	1
1	19864	9742.203964131876	0
1	19872	9743.586390459014	1
1	19874	9743.593788089157	0
1	20375	9995.368181976219	1
1	20376	9996.951214275688	0
1	20384	9998.022132985845	1
1	20389	9999.533725480039	0
1	21130	10334.439334053132	1
1	21134	10335.934266237817	0
1	22112	10986.196061814601	1
1	22114	10986.230673371812	0
1	22150	10994.446403664189	1
1	22163	10996.112852566614	0
1	22264	11030.368530812275	1
1	22266	11030.800086286771	0
1	22472	11110.695164408573	1
1	22474	11111.142103974879	0
1	22479	11111.886381562372	1
1	22486	11114.608756234496	0
1	22930	11292.852971161021	1
1	22931	11293.148143708017	0
1	22935	11294.267544410993	1
1	22939	11297.098641761481	0
1	22942	11297.863738536498	1
1	22944	11297.877223178933	0
1	22977	11304.691740116884	1
1	22980	11305.660569839959	2
1	22984	11307.342905267474	1
1	22987	11307.725771293825	2
1	22989	11308.275793755342	1
1	22991	11308.632186542835	0
1	22994	11308.77004847912	1
1	22996	11309.620204825782	0
1	22999	11309.683641905932	1
1	23004	11310.570354294339	0
1	23510	11600.14275558828	1
1	23511	11601.572967618928	0
1	23745	11755.543197256247	1
1	23746	11756.079608747561	0
1	23805	11789.441789374433	1
1	23806	11789.444623240214	0
1	23972	11852.499908093025	1
1	23974	11852.730501281898	0
1	24485	12061.765328639375	1
1	24486	12061.782141217652	0
1	25175	12399.364169970736	1
1	25176	12400.37446019724	0
1	25220	12426.278657966595	1
1	25221	12426.562998329722	0
1	26030	12943.718174503364	1
1	26031	12945.752565546116	0
1	26035	12946.565435313122	1
1	26036	12947.065032163156	0
1	26177	12977.608923001329	1
1	26182	12978.671427711493	2
1	26186	12979.758508043253	1
1	26189	12980.521861552505	0
1	26197	12981.571712564659	1
1	26199	12981.840084608819	0
1	26205	12983.51636364095	1
1	26214	12987.468147432016	0
1	26867	13384.92308782106	1
1	26869	13385.658728930447	0
1	26877	13386.984802467094	1
1	26884	13388.715957504434	0
1	26970	13417.502856581794	1
1	26971	13417.964247398468	0
1	27829	13798.259954562297	1
1	27834	13799.393671445082	0
1	28065	13916.555310822227	1
1	28066	13917.237844499926	0
1	28567	14199.500761134179	1
1	28569	14199.754821137543	0
1	29320	14521.910821145356	1
1	29321	14522.686885640092	0
1	29350	14528.150718925961	1
1	29351	14530.988515276839	0
1	29355	14532.074870110494	1
1	29364	14534.887434575568	0
1	32017	15745.220078568583	1
1	32021	15746.168484877274	0
1	33437	16458.890097507849	1
1	33441	16459.836287272436	0
1	34225	16793.901147527429	1
1	34229	16794.643651687463	0
1	34312	16821.620358484097	1
1	34319	16822.448727863513	2
1	34324	16823.581929017517	1
1	34332	16825.418874338965	2
1	34334	16825.834747854844	1
1	34336	16826.218818352126	0
1	35235	17255.7447328108	1
1	35236	17257.934346767493	0
1	35350	17334.384849561533	1
1	35351	17334.452169771345	0
1	35909	17593.176641441808	1
1	35911	17593.420298342594	0
1	36047	17655.092771679227	1
1	36049	17655.487806063562	0
1	36420	17888.932916169334	1
1	36421	17890.123309960198	0
1	36505	17947.718399842121	1
1	36506	17951.170652107503	0
1	38280	19157.538572586761	1
1	38281	19158.016138280344	0
1	38290	19159.940414013688	1
1	38294	19161.9344171798	0
1	38570	19273.468124529412	1
1	38571	19274.770983868468	0
1	38575	19275.876700544454	1
1	38576	19277.719726194396	0
1	38895	19487.976249655261	1
1	38896	19488.782585386091	0
1	39040	19532.698369172215	1
1	39041	19533.020567815183	0
1	39720	19954.38741488225	1
1	39721	19954.878139907985	0
1	39725	19955.848290831435	1
1	39726	19957.180545287401	0
1	39730	19958.183751002055	1
1	39731	19958.839018785573	0
1	39735	19959.75444820448	1
1	39736	19960.03401286083	0
1	39850	20019.582545534224	1
1	39851	20019.707570781162	0
1	39875	20024.28414937246	1
1	39885	20027.288024487172	2
1	39889	20027.482333283493	1
1	39896	20028.576158764248	0
1	40455	20341.135781109949	1
1	40456	20341.147927363132	0
1	40465	20343.174298200578	1
1	40466	20343.529973251855	0
1	40480	20346.701047984597	1
1	40481	20348.046248866406	0
1	40617	20385.039608472082	1
1	40624	20389.320402224369	0
1	40627	20389.407541126165	1
1	40634	20391.48485306065	0
1	40842	20479.47500682401	1
1	40844	20479.656711937836	0
1	41010	20564.75786175079	1
1	41014	20566.797239272641	0
1	41022	20568.061153920546	1
1	41026	20569.642105021213	0
1	41360	20745.330284623723	1
1	41361	20748.336880636213	0
1	41365	20749.333364085758	1
1	41366	20750.837662291152	0
1	41485	20815.728270348588	1
1	41491	20818.263119444723	0
1	42409	21247.511446553264	1
1	42411	21248.391538664532	0
1	42715	21378.01271925133	1
1	42716	21380.052956569784	0
1	42720	21380.91699367122	1
1	42724	21383.801183732919	0
1	42727	21383.923157066767	1
1	42732	21385.087861070976	2
1	42736	21385.560191914966	1
1	42746	21387.834481660047	0
1	43555	21799.878199415981	1
1	43556	21801.368374373946	0
1	43825	21907.771204665965	1
1	43826	21909.198938401326	0
1	44345	22137.447759103734	1
1	44349	22138.656771954448	0
1	44525	22190.533130114647	1
1	44526	22191.319365246766	0
1	44752	22292.047568133454	1
1	44757	22292.950999431572	2
1	44759	22292.991917376065	1
1	44764	22294.071351943658	0
1	44767	22294.98079124324	1
1	44771	22295.688402698102	0
1	44895	22349.641734601694	1
1	44896	22350.023566459158	0
1	45260	22525.548303977813	1
1	45261	22527.401129675017	0
1	45265	22528.201389625215	1
1	45266	22528.973582260404	0
1	47355	23672.728878759526	1
1	47356	23673.171652728261	0
1	47990	24018.891323311353	1
1	47996	24021.025980827352	0
1	48257	24100.513405306813	1
1	48259	24100.731057082113	0
1	48305	24119.656106456129	1
1	48306	24122.041986058043	0
1	48315	24124.315123582614	1
1	48316	24125.472620217862	0
1	48885	24462.58277945883	1
1	48886	24463.765117796589	0
1	48945	24480.992279368683	1
1	48946	24482.598456578134	0
1	49685	24864.216145210314	1
1	49686	24865.485097808682	0
1	49690	24866.29392797827	1
1	49691	24866.936777682351	0
1	49802	24913.892764872999	1
1	49804	24914.256637758213	0
1	49807	24914.729601480846	1
1	49809	24915.091527844494	0
1	49885	24944.497473055858	1
1	49886	24945.017540910607	0
1	49890	24945.841723077046	1
1	49891	24945.998036021923	0
1	49925	24954.514159014363	1
1	49926	24958.923431918408	0
1	51065	25540.925538616662	1
1	51066	25542.817446286646	0
1	51087	25546.460154137243	1
1	51096	25548.792255510996	0
1	51375	25684.590493815756	1
1	51376	25684.817565772835	0
1	51447	25747.159568502503	1
1	51451	25748.269007209812	0
1	52175	26093.587574805242	1
1	52176	26093.917538453503	0
1	54475	27156.633075253341	1
1	54479	27158.204679755796	0
1	54860	27351.86061990841	1
1	54861	27352.630423651588	0
1	54912	27369.36438544797	1
1	54915	27370.326871877762	2
1	54916	27370.841607867209	1
1	54919	27371.334950561717	0
1	54922	27372.018984695086	1
1	54924	27372.941134530158	0
1	54927	27373.038795825308	1
1	54931	27375.237441268328	0
1	55070	27431.658918702701	1
1	55074	27431.949650626261	0
1	55095	27436.680458892797	1
1	55099	27437.950315143763	0
1	55970	27864.757509258945	1
1	55971	27865.148564150214	0
1	55995	27870.528396846477	1
1	55996	27870.680850165545	0
1	56095	27896.818556376885	1
1	56096	27897.276014510435	0
1	56135	27908.669010970785	1
1	56136	27909.300544265426	0
1	56372	28031.257238262097	1
1	56376	28032.548776322932	0
1	56380	28033.505828385291	1
1	56381	28033.646174414952	0
1	56612	28134.045544800864	1
1	56614	28134.644991032323	0
1	56625	28137.065569043116	1
1	56626	28138.10194727432	0
1	56882	28235.533418826609	1
1	56884	28235.699638290978	0
1	56887	28236.686904448214	1
1	56890	28237.657306721284	2
1	56891	28239.286385713074	1
1	56895	28240.304127654362	2
1	56904	28241.49106164437	1
1	56906	28241.726910206196	0
1	56921	28244.402453689633	1
1	56923	28245.075874534857	0
1	56926	28245.271929692833	1
1	56928	28245.744167828865	0
1	56941	28248.459113030957	1
1	56943	28249.545828365597	0
1	56946	28249.5558839768	1
1	56952	28251.372083873377	2
1	56954	28251.740839918037	1
1	56957	28252.307026969344	2
1	56961	28252.857402666119	1
1	56963	28253.174516616642	0
1	57200	28366.495563902668	1
1	57201	28368.852896709272	0
1	57210	28370.870469646246	1
1	57214	28371.460508346482	0
1	57635	28611.365471366685	1
1	57636	28612.19229000922	0
1	57855	28681.213456786657	1
1	57856	28681.624592547169	0
1	57860	28682.571116854487	1
1	57861	28683.283224573589	0
1	58007	28756.369857592068	1
1	58010	28757.354882635202	2
1	58011	28757.897980062402	1
1	58014	28758.426466181355	0
1	58340	28901.036751537194	1
1	58341	28902.206448024867	0
1	58352	28904.227256531811	1
1	58355	28905.164278752899	2
1	58356	28905.346804786389	1
1	58362	28906.270095660453	2
1	58366	28906.58872595236	1
1	58374	28908.710493653536	0
1	58677	29029.853407339794	1
1	58679	29030.046177624794	0
1	59130	29282.495624518153	1
1	59131	29283.724959437793	0
1	60185	29882.100581725796	1
1	60189	29883.472203081711	0
1	60285	29907.357375973674	1
1	60286	29908.170950010173	0
1	60295	29913.402982458673	1
1	60300	29914.613254797115	2
1	60301	29916.117987942654	1
1	60305	29917.09935165593	2
1	60309	29917.476983809061	1
1	60314	29918.736644479733	0
1	60317	29919.344850194711	1
1	60319	29919.856937688786	0
1	60325	29921.506736658677	1
1	60329	29922.682841022345	0
1	60337	29924.321790204037	1
1	60339	29924.337909468335	0
1	60367	29930.65039520797	1
1	60369	29931.153525608667	0
2	0	0	0
2	20	3.019458072446	1
2	22	3.551627090572	2
2	23	3.770747316208	1
2	29	4.297685707617	2
2	30	4.768609121859	1
2	35	5.718189594194	0
2	155	82.976067342113	1
2	156	83.437366523079	0
2	175	87.433605607507	1
2	177	87.486393380593	2
2	178	88.302109691243	1
2	181	89.381204245541	0
2	195	92.530122554355	1
2	198	93.335477973513	0
2	205	94.884536457875	1
2	207	94.966354229518	2
2	208	95.250244986724	1
2	214	96.111978120775	2
2	215	96.135947371732	1
2	219	96.274078005773	2
2	220	97.028870222337	1
2	224	97.973615435574	2
2	225	98.03604903835	1
2	229	98.769006151128	2
2	230	99.06960830846	1
2	233	100.067342952538	0
2	237	100.091961706798	1
2	239	100.62954400067	2
2	240	101.002168382417	1
2	243	101.856139480128	0
2	247	102.01488697686	1
2	248	103.044458759568	0
2	252	103.299147946336	1
2	253	104.067168819431	0
2	265	107.362158708084	1
2	266	107.571396553798	0
2	270	107.739188044416	1
2	272	107.941367812701	2
2	273	108.587226764394	1
2	276	109.583467383312	0
2	280	109.593881568022	1
2	284	110.583388898462	2
2	285	110.708460353224	1
2	289	111.146124362083	2
2	290	111.824987645543	1
2	293	112.928202056515	0
2	297	113.232383794505	1
2	301	113.785815733279	2
2	302	114.052767874117	1
2	305	115.244985124844	0
2	315	117.5505704869	1
2	317	118.158112197801	2
2	318	118.245088726006	1
2	321	119.275418931622	0
2	355	141.992563317998	1
2	356	143.047644203948	0
2	430	204.315521691662	1
2	432	204.733698880506	2
2	433	204.787105929273	1
2	436	205.901710731051	0
2	485	238.637941422285	1
2	487	238.689171360491	2
2	488	239.253203475437	1
2	491	240.309379997532	0
2	505	242.79371157581	1
2	506	243.687078471666	0
2	540	274.431612103448	1
2	541	274.968523478365	0
2	545	275.809564786259	1
2	546	275.904466047368	0
2	595	297.867137131083	1
2	596	298.697603870715	0
2	600	299.012454381143	1
2	601	299.823453714485	0
2	617	302.533788223593	1
2	618	302.544787296439	0
2	622	302.715530689665	1
2	623	303.499432175113	0
2	629	304.295647705075	1
2	630	304.621614611214	0
2	637	305.935046149841	1
2	638	306.674157253438	0
2	642	306.886261828706	1
2	643	307.57489999772	0
2	650	309.077842824714	1
2	652	309.454361892403	2
2	653	309.550858349231	1
2	657	309.677870784421	2
2	658	310.390576229309	1
2	662	311.095391656068	2
2	663	311.523086854694	1
2	669	311.704959147723	2
2	670	312.695930221276	1
2	674	313.749348645187	2
2	675	313.806775343762	1
2	678	314.688575733983	0
2	685	316.38229456662	1
2	687	316.419497200552	2
2	688	316.745388351165	1
2	691	317.549871489283	0
2	695	317.563770091226	1
2	696	318.369431304157	0
2	705	319.417376933332	1
2	706	320.436445678089	0
2	712	321.277909376279	1
2	713	321.400063915987	0
2	725	324.545236707429	1
2	726	325.024225950494	0
2	730	325.84567970798	1
2	731	325.872637712929	0
2	737	326.48070420222	1
2	738	326.758776399839	0
2	742	327.533888210646	1
2	743	327.856869642875	0
2	750	329.188372993478	1
2	752	329.191369448065	2
2	753	330.005899402472	1
2	756	331.076043905291	0
2	760	331.172386159418	1
2	761	331.994595523524	0
2	765	332.310575755266	1
2	767	332.748672377139	2
2	770	333.188413300618	1
2	773	334.096265917152	0
2	782	335.301821453599	1
2	783	336.204074278913	0
2	795	338.760074616502	1
2	796	339.113213499423	0
2	835	365.485098444995	1
2	836	366.112187170527	0
2	845	367.806068315141	1
2	846	368.252943597558	0
2	850	368.637455602137	1
2	851	369.441497036452	0
2	870	375.064417260391	1
2	871	375.139063935569	0
2	875	375.504502764174	1
2	876	376.316258466831	0
2	885	388.465673932254	1
2	886	388.470745561056	0
2	900	391.775183443825	1
2	901	392.632548777977	0
2	910	396.872305155641	1
2	912	397.393281412609	2
2	913	397.624390970383	1
2	916	398.550482943401	0
2	1135	547.703862994782	1
2	1136	548.559905729658	0
2	1155	563.869314762085	1
2	1156	564.763883233782	0
2	1165	566.18479704635	1
2	1166	567.061057632728	0
2	1180	571.964682491042	1
2	1181	572.315142759592	0
2	1227	620.766027431795	1
2	1228	621.408734732679	0
2	1320	689.897659036656	1
2	1321	690.371300761944	0
2	1360	713.001464887047	1
2	1361	713.058835480322	0
2	1410	735.450874307316	1
2	1411	735.752076852639	0
2	1430	740.204640343481	1
2	1431	741.158676372818	0
2	1440	757.229411967915	1
2	1441	757.622549254786	0
2	1455	760.758169212822	1
2	1456	761.501513180344	0
2	1470	763.950207648761	1
2	1471	764.892272628824	0
2	1535	808.016769995093	1
2	1537	808.258523918609	2
2	1538	808.639547342426	1
2	1541	809.6751618524	0
2	1585	821.030684032839	1
2	1586	821.99415249044	0
2	1597	823.39775192921	1
2	1598	824.000860655467	0
2	1617	827.990893823854	1
2	1618	828.579572098533	0
2	1622	828.748641702456	1
2	1623	829.533658964018	0
2	1655	837.033950292654	1
2	1656	837.618676983728	0
2	1682	846.901740300494	1
2	1683	847.317320710004	0
2	1690	848.630580961114	1
2	1691	849.263357997455	0
2	1720	868.616513008397	1
2	1721	868.743826103223	0
2	1755	887.238176274212	1
2	1756	887.311176132061	0
2	1770	889.751005818279	1
2	1771	890.260950438608	0
2	1775	890.710042608985	1
2	1778	891.25707645223	0
2	1785	892.462456112304	1
2	1787	892.566717008327	2
2	1788	893.38723544965	1
2	1795	894.390048688207	0
2	1799	894.566724542835	1
2	1801	894.56850547448	2
2	1802	895.302150253602	1
2	1806	895.321869112672	2
2	1807	896.126455091149	1
2	1810	897.168010189779	0
2	1880	938.997820340075	1
2	1881	939.681122088368	0
2	1895	944.483721685711	1
2	1896	944.895486760728	0
2	1935	987.471142128004	1
2	1936	987.795599557235	0
2	1990	1008.740053290092	1
2	1991	1008.832648910748	0
2	2010	1020.419677819722	1
2	2011	1020.64763637323	0
2	2020	1021.620953453545	1
2	2021	1022.384310505242	0
2	2050	1044.853570809445	1
2	2052	1045.196008309858	2
2	2053	1045.702872574492	1
2	2056	1046.62806315606	0
2	2060	1047.016013742938	1
2	2061	1047.46714639056	0
2	2065	1047.93691716859	1
2	2066	1048.510538528091	0
2	2075	1051.381096337102	1
2	2076	1052.27654695943	0
2	2080	1052.851741725176	1
2	2081	1053.216727326475	0
2	2085	1053.773925581222	1
2	2087	1053.973490614528	2
2	2088	1054.167552625332	1
2	2094	1055.068760315038	2
2	2095	1055.246901324242	1
2	2099	1055.25081198682	2
2	2100	1056.357514915838	1
2	2103	1057.338176242392	0
2	2175	1084.015080860909	1
2	2176	1084.968412279355	0
2	2220	1130.280533734131	1
2	2223	1131.317099522741	0
2	2230	1133.384323339356	1
2	2231	1133.410286821925	0
2	2235	1133.455430017378	1
2	2236	1134.582274453004	0
2	2245	1140.998570236526	1
2	2246	1141.372505640979	0
2	2275	1147.954324821491	1
2	2276	1148.296651161165	0
2	2285	1150.719714194082	1
2	2286	1150.842998310238	0
2	2290	1151.066328807632	1
2	2291	1152.018194553688	0
2	2295	1152.144448158494	1
2	2296	1153.068522561867	0
2	2300	1153.486154381775	1
2	2301	1153.884014516477	0
2	2315	1159.750551342684	1
2	2316	1159.962165805736	0
2	2330	1162.596861142113	1
2	2331	1162.95787656367	0
2	2370	1173.629271232974	1
2	2371	1173.66013242767	0
2	2400	1183.263216429523	1
2	2401	1183.66888153425	0
2	2410	1185.55086214441	1
2	2411	1186.410519679059	0
2	2415	1187.245166272342	1
2	2416	1187.430945760366	0
2	2425	1189.161994682578	1
2	2427	1189.542124922921	2
2	2428	1189.879439183713	1
2	2431	1190.923736684226	0
2	2440	1197.488759151917	1
2	2441	1198.210476286508	0
2	2465	1207.015736330976	1
2	2466	1207.651719872385	0
2	2470	1207.978176960856	1
2	2473	1208.705390244174	0
2	2480	1210.248759975787	1
2	2483	1210.7918921725	0
2	2487	1210.86462874329	1
2	2488	1211.969474981829	0
2	2497	1213.401912932001	1
2	2498	1213.982194077606	0
2	2505	1215.300749076414	1
2	2506	1216.290348489313	0
2	2540	1231.868827427169	1
2	2541	1232.172006379608	0
2	2555	1241.111581918235	1
2	2556	1241.497969368735	0
2	2565	1243.709566495585	1
2	2566	1244.509106764414	0
2	2590	1252.382855241118	1
2	2591	1252.403552385751	0
2	2620	1291.250487949034	1
2	2621	1291.292113470261	0
2	2630	1292.711648264538	1
2	2631	1293.351531094653	0
2	2650	1296.783353407643	1
2	2653	1297.67392654203	0
2	2662	1299.072367713603	1
2	2663	1299.749164270034	0
2	2670	1301.860953944395	1
2	2671	1302.012213184109	0
2	2680	1307.666406978457	1
2	2681	1307.897631511563	0
2	2695	1311.697975424735	1
2	2696	1312.136687834405	0
2	2735	1347.891908669337	1
2	2736	1348.183035936477	0
2	2780	1381.74496867109	1
2	2783	1382.72138633944	0
2	2830	1408.219744148246	1
2	2831	1408.235014257479	0
2	2895	1450.528955279163	1
2	2896	1450.977142313425	0
2	2910	1455.531415629498	1
2	2911	1456.060881108178	0
2	2950	1475.814297171648	1
2	2951	1476.895260139687	0
2	2955	1477.16387679455	1
2	2956	1477.72704659844	0
2	2965	1480.348213563795	1
2	2966	1480.639257723103	0
2	2970	1481.536211888884	1
2	2971	1481.773610535367	0
2	2975	1482.554951541219	1
2	2976	1482.699042346338	0
2	2980	1482.795914346853	1
2	2982	1483.36574493534	2
2	2983	1483.786665757662	1
2	2987	1484.173362436795	2
2	2988	1484.958033597386	1
2	2991	1485.872351792092	0
2	2995	1485.936278784766	1
2	2997	1486.435824194537	2
2	2998	1486.810508459909	1
2	3003	1487.902980765244	0
2	3007	1488.319376983919	1
2	3009	1488.678103402427	2
2	3010	1488.979693225035	1
2	3014	1489.101114687935	2
2	3015	1489.914226109357	1
2	3019	1490.016270132374	2
2	3020	1491.084604954821	1
2	3023	1491.978356857792	0
2	3030	1493.611614911773	1
2	3031	1494.049265501842	0
2	3040	1495.14665677851	1
2	3042	1495.65482425848	2
2	3043	1496.018810001742	1
2	3046	1496.886093129199	0
2	3050	1497.177923225424	1
2	3051	1497.695605928432	0
2	3065	1502.3991965107	1
2	3066	1502.53514234074	0
2	3070	1502.692160271903	1
2	3073	1503.699432252204	0
2	3077	1504.085179320981	1
2	3078	1504.638075142862	0
2	3115	1532.32225105208	1
2	3116	1532.798340007028	0
2	3145	1554.981076888765	1
2	3146	1555.263807559958	0
2	3160	1558.365850570325	1
2	3161	1558.537229064543	0
2	3200	1572.355730362882	1
2	3201	1573.012433833614	0
2	3225	1596.950219994823	1
2	3226	1597.354120550833	0
2	3230	1597.987782823099	1
2	3231	1598.436580204561	0
2	3235	1599.224940325234	1
2	3236	1599.607105641596	0
2	3265	1614.536523260594	1
2	3266	1614.830282763427	0
2	3295	1629.226607214425	1
2	3296	1630.331926068803	0
2	3300	1630.925397764337	1
2	3301	1631.40240185908	0
2	3365	1714.740400840645	1
2	3366	1715.505488414538	0
2	3370	1715.749169896056	1
2	3372	1716.295969838545	2
2	3373	1716.41920368768	1
2	3376	1717.352797899243	0
2	3380	1717.554898722312	1
2	3382	1717.849055494323	2
2	3383	1718.443489964434	1
2	3386	1719.42962869195	0
2	3435	1739.930331467252	1
2	3436	1740.718253864041	0
2	3465	1759.831797192021	1
2	3466	1760.128217657938	0
2	3470	1760.667903740863	1
2	3471	1761.163639496642	0
2	3480	1762.945022776677	1
2	3481	1763.319186048673	0
2	3485	1763.8660133273	1
2	3486	1764.145195651238	0
2	3490	1764.165413967615	1
2	3493	1765.295823382211	0
2	3497	1765.399652731109	1
2	3498	1766.477151993566	0
2	3502	1766.866370956283	1
2	3503	1767.525344844811	0
2	3507	1767.850039529518	1
2	3508	1768.383546011333	0
2	3535	1781.715757225114	1
2	3536	1781.969639169985	0
2	3595	1831.397537906674	1
2	3596	1831.62771652911	0
2	3625	1843.396528041031	1
2	3627	1843.540104414444	2
2	3630	1844.153179297496	1
2	3634	1844.363829701217	2
2	3635	1845.301071206659	1
2	3638	1846.156406282812	0
2	3642	1846.348761084482	1
2	3643	1847.220042252998	0
2	3647	1847.729230615343	1
2	3649	1847.860907703212	2
2	3650	1848.150325774579	1
2	3654	1848.522707535358	2
2	3655	1849.311264641015	1
2	3659	1849.999311002481	2
2	3661	1850.134975867652	3
2	3662	1850.369588385513	2
2	3666	1850.418833162424	3
2	3667	1851.48958276202	2
2	3670	1852.389874414252	1
2	3673	1853.2536794654	0
2	3680	1854.844229516704	1
2	3681	1855.545864864243	0
2	3700	1859.616115768363	1
2	3702	1859.617542147421	2
2	3703	1860.57674286121	1
2	3708	1861.595613272837	0
2	3712	1861.59632549108	1
2	3713	1862.727912287763	0
2	3717	1863.381427794998	1
2	3718	1863.660040619666	0
2	3760	1892.944039261285	1
2	3761	1893.942924556385	0
2	3785	1899.228080685123	1
2	3786	1900.268413267101	0
2	3800	1902.871766716898	1
2	3801	1902.971464621465	0
2	3850	1944.055771560162	1
2	3851	1944.260551754367	0
2	3855	1944.260684607221	1
2	3856	1945.269976909813	0
2	3860	1945.590314769516	1
2	3862	1946.267571280449	2
2	3863	1946.387454603408	1
2	3866	1947.208461884484	0
2	3870	1947.864897768347	1
2	3871	1948.074224596359	0
2	3875	1948.607526445407	1
2	3876	1949.082142171525	0
2	3880	1949.587769643184	1
2	3881	1950.087109949515	0
2	3885	1950.174638902146	1
2	3886	1951.188632838317	0
2	3895	1953.56909578532	1
2	3896	1953.753070514813	0
2	3900	1954.372679558003	1
2	3901	1954.626306669298	0
2	3910	1957.992907423181	1
2	3911	1958.726016354347	0
2	3915	1959.661122128124	1
2	3916	1959.861329664076	0
2	3930	1973.204220523542	1
2	3931	1973.348166218444	0
2	3960	1986.478695668254	1
2	3961	1987.36691056213	0
2	4030	2036.114867550091	1
2	4031	2036.694674713262	0
2	4165	2167.876977475327	1
2	4166	2168.875648288279	0
2	4200	2206.102007224855	1
2	4201	2206.33942077661	0
2	4205	2206.836598696563	1
2	4206	2207.297247322072	0
2	4215	2209.383287462074	1
2	4216	2210.091254896417	0
2	4225	2212.345538950062	1
2	4226	2212.915054578261	0
2	4335	2272.556165850602	1
2	4337	2272.639177664066	2
2	4338	2272.914592101427	1
2	4341	2273.985493160321	0
2	4345	2275.025485476699	1
2	4346	2275.069876620921	0
2	4435	2313.16583959838	1
2	4436	2314.010592369628	0
2	4470	2330.503593652349	1
2	4471	2331.079480568007	0
2	4530	2363.43543369803	1
2	4531	2363.925864622632	0
2	4557	2370.567049251663	1
2	4558	2371.215821928038	0
2	4576	2373.912351397852	1
2	4577	2374.077890551714	0
2	4584	2375.469598438391	1
2	4585	2375.984466942279	0
2	4607	2380.663826430795	1
2	4608	2380.992827568645	0
2	4670	2398.738890060156	1
2	4671	2399.05350537856	0
2	4705	2419.590639771221	1
2	4706	2419.849126466795	0
2	4710	2420.113848823207	1
2	4713	2420.662911605149	0
2	4717	2420.699697052073	1
2	4718	2421.641818246211	0
2	4722	2421.836400861732	1
2	4724	2422.259650237207	2
2	4725	2422.546109800938	1
2	4728	2423.352542768012	0
2	4740	2425.969953410751	1
2	4743	2426.541835054721	0
2	4750	2427.79881477902	1
2	4751	2428.480569888058	0
2	4785	2436.506722009325	1
2	4786	2437.578053412176	0
2	4800	2442.199831508923	1
2	4801	2442.30801241833	0
2	4825	2452.931208514956	1
2	4826	2453.037648442083	0
2	4855	2462.577099269902	1
2	4856	2462.837879818071	0
2	4880	2479.458745478697	1
2	4881	2480.186811375832	0
2	4945	2509.980282812334	1
2	4946	2510.088242113704	0
2	4980	2530.022545546944	1
2	4981	2530.176674155382	0
2	5060	2564.278542072689	1
2	5061	2564.519931869781	0
2	5085	2601.508764532966	1
2	5086	2601.853868035899	0
2	5095	2602.941831652352	1
2	5096	2604.125627881588	0
2	5120	2612.600159998705	1
2	5121	2612.686420264607	0
2	5130	2614.487621729076	1
2	5131	2615.008462998031	0
2	5165	2633.543762292627	1
2	5166	2634.212227989336	0
2	5185	2650.35821422683	1
2	5186	2650.659860670311	0
2	5195	2652.642067446087	1
2	5198	2652.894503237966	0
2	5220	2688.260086531732	1
2	5221	2689.068344823734	0
2	5240	2694.707119618902	1
2	5241	2695.542218919623	0
2	5250	2696.935668532251	1
2	5251	2697.666762144658	0
2	5285	2722.604039925023	1
2	5286	2723.348822612133	0
2	5295	2726.110648164171	1
2	5296	2726.130928026543	0
2	5335	2736.607088185772	1
2	5336	2736.609653602003	0
2	5365	2747.773623424021	1
2	5366	2748.525618314902	0
2	5372	2749.05617928832	1
2	5373	2749.383515823046	0
2	5377	2749.900289460936	1
2	5380	2750.199920290588	0
2	5387	2751.730232031968	1
2	5388	2752.365392112891	0
2	5455	2817.077157313956	1
2	5456	2817.976500358792	0
2	5520	2841.927060164648	1
2	5521	2842.34328201048	0
2	5535	2845.977660014011	1
2	5536	2846.021363598099	0
2	5570	2855.166134058422	1
2	5571	2855.769454140736	0
2	5605	2863.066505282812	1
2	5606	2863.822933243576	0
2	5615	2866.293898350596	1
2	5616	2867.085924796692	0
2	5620	2867.763308996996	1
2	5621	2867.997558488536	0
2	5630	2870.024336984729	1
2	5631	2870.280485398211	0
2	5635	2870.842689287691	1
2	5636	2871.266275602468	0
2	5640	2872.118476731746	1
2	5641	2872.307261676044	0
2	5650	2875.499728292261	1
2	5651	2876.317139311756	0
2	5655	2876.374289186997	1
2	5658	2877.133842212769	0
2	5700	2901.990774552023	1
2	5701	2902.301279512544	0
2	5710	2903.453714479229	1
2	5711	2904.481255194072	0
2	5720	2912.45796171666	1
2	5721	2912.581512694229	0
2	5725	2913.112503735507	1
2	5726	2913.522227738128	0
2	5730	2914.471780087309	1
2	5731	2914.662247123831	0
2	5735	2915.545249035918	1
2	5736	2915.854961470124	0
2	5740	2916.002685534935	1
2	5741	2916.656166298483	0
2	5745	2916.723786155739	1
2	5747	2917.492058230394	2
2	5748	2917.622444217541	1
2	5753	2918.470625741017	0
2	5757	2919.31665199597	1
2	5758	2919.365151575935	0
2	5775	2925.613725781959	1
2	5776	2925.961533690288	0
2	5790	2928.976976175286	1
2	5791	2929.13589223971	0
2	5840	2959.871369459133	1
2	5842	2960.326216394591	2
2	5843	2960.368637544709	1
2	5847	2961.066784395623	2
2	5848	2961.474344992685	1
2	5852	2962.14317008874	2
2	5853	2962.430567385862	1
2	5856	2963.29172321125	0
2	5860	2963.354872386605	1
2	5861	2964.234034738085	0
2	5865	2964.542993366374	1
2	5866	2965.171612325079	0
2	5885	2970.090489047299	1
2	5886	2970.848573908611	0
2	5895	2972.277445470742	1
2	5896	2972.730627079523	0
2	5930	2981.451171103873	1
2	5932	2981.703235068266	2
2	5933	2982.100222174197	1
2	5936	2983.069002653125	0
2	5940	2983.318389265111	1
2	5943	2984.137150689706	0
2	5947	2984.351954893837	1
2	5949	2984.448833076712	2
2	5950	2984.994472171206	1
2	5954	2985.699913609619	2
2	5955	2986.181454810806	1
2	5959	2986.405937809367	2
2	5960	2987.084638473604	1
2	5963	2988.21927627961	0
2	6002	2996.786691938873	1
2	6003	2997.098580035105	0
2	6115	3118.36988842431	1
2	6116	3118.894492829294	0
2	6140	3124.113992671097	1
2	6141	3124.825747497084	0
2	6145	3125.319777226541	1
2	6147	3125.589736068197	2
2	6148	3125.993536331116	1
2	6151	3126.962653564925	0
2	6155	3127.150035124855	1
2	6156	3127.806161465759	0
2	6160	3127.88207991916	1
2	6161	3128.737615369337	0
2	6230	3182.53320194161	1
2	6231	3182.658949177422	0
2	6240	3192.636045490603	1
2	6241	3193.075046439143	0
2	6255	3196.096417765428	1
2	6256	3196.776440916121	0
2	6270	3201.91914946074	1
2	6271	3201.921631143116	0
2	6415	3316.846334910669	1
2	6416	3317.350204698112	0
2	6435	3324.962315634544	1
2	6436	3325.457677653803	0
2	6440	3325.673710206653	1
2	6441	3326.624139016586	0
2	6445	3326.717079843572	1
2	6447	3327.224385119495	2
2	6448	3327.552221754471	1
2	6453	3328.745670987385	0
2	6457	3328.900813312882	1
2	6458	3329.731269834562	0
2	6462	3330.097086419811	1
2	6463	3330.600051901861	0
2	6505	3348.415846429767	1
2	6506	3348.853084182511	0
2	6510	3349.068326996529	1
2	6511	3349.961030519153	0
2	6517	3350.122322386547	1
2	6518	3350.86886690795	0
2	6530	3359.296444246144	1
2	6531	3359.362817227116	0
2	6545	3366.965596817998	1
2	6546	3367.767286276107	0
2	6555	3369.446112065403	1
2	6556	3370.164339501936	0
2	6625	3452.572992793798	1
2	6626	3453.162015842912	0
2	6630	3453.496986479363	1
2	6631	3454.047732209028	0
2	6650	3462.558527995124	1
2	6651	3463.157390785436	0
2	6700	3475.727327152878	1
2	6701	3475.893863382013	0
2	6720	3482.331983756518	1
2	6722	3482.347982980398	2
2	6723	3482.472389768608	1
2	6728	3483.508541186139	0
2	6732	3484.178863537127	1
2	6733	3484.367333479304	0
2	6737	3484.515905214499	1
2	6738	3485.279771152683	0
2	6742	3486.017964276467	1
2	6743	3486.261782985539	0
2	6749	3486.544406724681	1
2	6750	3487.083817445566	0
2	6757	3488.284733157104	1
2	6758	3489.17631255303	0
2	6820	3526.618891885087	1
2	6821	3526.715466465334	0
2	6830	3528.773718061341	1
2	6831	3528.776744205525	0
2	6860	3551.657392426219	1
2	6862	3552.477790804312	2
2	6863	3552.598192987498	1
2	6866	3553.707462642156	0
2	6870	3554.430409275534	1
2	6871	3554.523927502148	0
2	6920	3591.164948892472	1
2	6921	3591.261879566163	0
2	6940	3602.577803456208	1
2	6941	3603.36312693136	0
2	6950	3604.886568929741	1
2	6951	3605.532137910018	0
2	6962	3606.557203182133	1
2	6963	3607.449222504741	0
2	6969	3608.458595324578	1
2	6970	3608.502959068606	0
2	6974	3609.078177721292	1
2	6975	3609.330170872083	0
2	6982	3611.458748331474	1
2	6983	3611.467519430651	0
2	7025	3640.442680626907	1
2	7028	3641.310503415909	0
2	7080	3657.396942374919	1
2	7081	3657.56737359772	0
2	7110	3666.724220188293	1
2	7112	3666.848178681961	2
2	7113	3667.181601755519	1
2	7116	3668.077526648168	0
2	7160	3688.203412540617	1
2	7161	3688.555277735239	0
2	7177	3692.518109824755	1
2	7178	3692.699877921011	0
2	7210	3702.167438841731	1
2	7211	3702.570015617835	0
2	7230	3706.551093372992	1
2	7231	3707.394683860905	0
2	7345	3790.247218447993	1
2	7346	3791.082009798008	0
2	7350	3791.955313924492	1
2	7351	3792.195756383146	0
2	7355	3792.825909104265	1
2	7356	3793.251936950347	0
2	7375	3800.596303043224	1
2	7376	3801.09370942832	0
2	7405	3829.277906184956	1
2	7406	3830.053268790568	0
2	7430	3836.758754941596	1
2	7432	3837.089048446356	2
2	7433	3837.374453514099	1
2	7438	3838.410749747354	0
2	7442	3839.069550578827	1
2	7443	3839.495997275255	0
2	7447	3840.356679046133	1
2	7448	3840.487578590895	0
2	7452	3841.148305606507	1
2	7453	3841.338670495181	0
2	7457	3841.421797127775	1
2	7459	3841.472554299457	2
2	7461	3841.942440537919	3
2	7462	3842.175095261662	2
2	7466	3842.917391182226	3
2	7467	3843.184385584044	2
2	7471	3843.283479130552	3
2	7472	3844.319159891485	2
2	7475	3845.296916270471	1
2	7481	3845.665449463909	2
2	7482	3846.132206307753	1
2	7486	3846.711818850071	2
2	7487	3847.296570165205	1
2	7492	3848.426293372113	0
2	7499	3849.711528652888	1
2	7501	3849.94657833748	2
2	7502	3850.649864770874	1
2	7505	3851.501942889142	0
2	7512	3852.726505736479	1
2	7513	3853.529390937398	0
2	7540	3861.81180285865	1
2	7541	3861.824630418838	0
2	7545	3861.867490217242	1
2	7548	3862.795832961191	0
2	7555	3864.041324840196	1
2	7557	3864.579616748322	2
2	7558	3864.696168000297	1
2	7561	3865.588218089518	0
2	7570	3867.221682558693	1
2	7571	3867.837103548261	0
2	7580	3872.031116280177	1
2	7581	3872.23258383675	0
2	7615	3894.072422991353	1
2	7616	3894.254108485597	0
2	7632	3897.41953330095	1
2	7633	3898.298577300194	0
2	7642	3899.559199010979	1
2	7643	3900.22191625211	0
2	7665	3908.949385579474	1
2	7666	3909.110484461079	0
2	7755	3970.335214409607	1
2	7756	3970.382071075458	0
2	7760	3970.550937970617	1
2	7761	3971.567806355804	0
2	7765	3971.979643384465	1
2	7766	3972.607112157028	0
2	7770	3973.361341562741	1
2	7771	3973.448897658158	0
2	7780	3975.652652324249	1
2	7782	3976.509556133177	2
2	7783	3976.534855689829	1
2	7786	3977.557906046858	0
2	7855	4023.370469553905	1
2	7856	4024.224861331	0
2	7865	4025.967014091805	1
2	7866	4026.741957178748	0
2	7885	4031.568859359311	1
2	7888	4032.048321199185	0
2	7895	4033.548199592045	1
2	7898	4034.346321902285	0
2	7905	4035.967187930617	1
2	7906	4036.477542340151	0
2	7930	4041.620171244814	1
2	7931	4042.46126030186	0
2	7935	4042.517123316667	1
2	7938	4043.37637703331	0
2	7945	4044.59320064503	1
2	7946	4045.708486883862	0
2	7955	4054.196997371439	1
2	7956	4054.347348164507	0
2	7970	4056.872863588982	1
2	7971	4057.829819842953	0
2	7975	4057.91166452683	1
2	7976	4058.726192842949	0
2	7990	4060.946625694003	1
2	7995	4061.848177385346	0
2	8002	4063.469982289642	1
2	8003	4063.737975039908	0
2	8035	4089.528446076725	1
2	8036	4089.780948955055	0
2	8050	4092.684520775762	1
2	8051	4093.093063186338	0
2	8080	4102.734549965877	1
2	8081	4103.120182052951	0
2	8105	4109.337819346118	1
2	8107	4109.496217121573	2
2	8108	4109.735307239039	1
2	8112	4109.967833380257	2
2	8113	4110.811677089283	1
2	8117	4110.982478710292	2
2	8118	4111.754844155298	1
2	8121	4112.891752899294	0
2	8145	4131.427944337326	1
2	8146	4131.479171906437	0
2	8150	4132.309496612896	1
2	8151	4132.419190739307	0
2	8160	4134.354660323538	1
2	8161	4134.600257563227	0
2	8165	4135.629948574716	1
2	8166	4135.733424611119	0
2	8170	4135.96084425347	1
2	8171	4136.923570442954	0
2	8250	4177.290088170497	1
2	8251	4177.291835581708	0
2	8260	4181.067600782142	1
2	8261	4181.16831437235	0
2	8265	4181.390802633627	1
2	8266	4182.180525094152	0
2	8295	4193.539438338591	1
2	8296	4194.57813458289	0
2	8305	4196.152942672125	1
2	8306	4196.342230436811	0
2	8310	4196.866497821099	1
2	8313	4197.513927313545	0
2	8345	4206.964576533875	1
2	8346	4207.556045975249	0
2	8355	4209.825780432577	1
2	8357	4209.870599387902	2
2	8359	4209.945818711385	3
2	8360	4210.487282464338	2
2	8363	4211.588852439785	1
2	8367	4212.180526824925	2
2	8368	4212.623618266603	1
2	8371	4213.767432954686	0
2	8375	4213.959877530289	1
2	8377	4214.433447454043	2
2	8378	4214.754137171397	1
2	8381	4215.882078817265	0
2	8395	4219.582943939432	1
2	8397	4219.827786050575	2
2	8398	4219.864528409488	1
2	8401	4220.865094596244	0
2	8405	4220.920097343188	1
2	8406	4221.819813088517	0
2	8425	4229.071896510553	1
2	8428	4229.91716109034	0
2	8432	4230.1332849953	1
2	8435	4230.985917083308	0
2	8442	4232.004379133777	1
2	8444	4232.662203361828	2
2	8446	4232.684822475889	3
2	8447	4232.737470804476	2
2	8452	4233.848430075259	1
2	8456	4233.914340021	2
2	8459	4234.722437574291	1
2	8462	4235.872897480936	0
2	8466	4236.331451419912	1
2	8467	4237.011135810283	0
2	8487	4241.688877315641	1
2	8488	4242.101775715636	0
2	8507	4246.444698024001	1
2	8508	4246.50348335574	0
2	8520	4248.601738866524	1
2	8521	4249.683120791285	0
2	8580	4291.20094132551	1
2	8581	4291.743808573185	0
2	8585	4291.867207050973	1
2	8586	4292.656307030635	0
2	8590	4293.378827308675	1
2	8591	4293.794043131338	0
2	8600	4295.307071024327	1
2	8601	4296.223418861067	0
2	8610	4299.086736377952	1
2	8611	4299.759618939098	0
2	8615	4300.192034848215	1
2	8617	4300.409454979211	2
2	8619	4300.550257348363	3
2	8620	4300.752360959176	2
2	8625	4301.936470512405	1
2	8628	4302.958169908274	0
2	8640	4305.512088476414	1
2	8641	4306.455244223961	0
2	8645	4306.738111923724	1
2	8646	4307.603349138798	0
2	8690	4331.119066356368	1
2	8693	4331.748815867629	0
2	8700	4333.118880404062	1
2	8701	4333.919754272279	0
2	8705	4334.27054106488	1
2	8706	4335.08978954791	0
2	8720	4339.973305422061	1
2	8721	4340.969319127779	0
2	8727	4341.955775134873	1
2	8728	4342.058089126739	0
2	8735	4343.351686042555	1
2	8736	4344.148514772672	0
2	8787	4367.093514264262	1
2	8790	4367.993285493675	0
2	8799	4369.608691603144	1
2	8800	4369.982848156552	0
2	8806	4370.451869321073	1
2	8807	4370.809650895308	0
2	8811	4371.331682193843	1
2	8812	4371.706754890765	0
2	8821	4373.232984314505	1
2	8822	4373.386176733515	0
2	8828	4374.345980545501	1
2	8829	4374.390515621221	0
2	8836	4375.865267959783	1
2	8838	4376.145200617831	2
2	8839	4376.498014301555	1
2	8843	4376.644916455072	2
2	8845	4376.661912382347	3
2	8846	4377.560826429659	2
2	8850	4378.100542358539	3
2	8851	4378.394389665806	2
2	8855	4379.31630960478	3
2	8856	4379.559892897335	2
2	8863	4380.522052976702	1
2	8867	4381.233311077263	2
2	8868	4381.397993706193	1
2	8871	4382.418488056891	0
2	8881	4384.764824613074	1
2	8882	4385.424365425695	0
2	8915	4400.295956165751	1
2	8916	4400.904258200405	0
2	8975	4427.909394914646	1
2	8977	4427.967870336605	2
2	8978	4428.796620976243	1
2	8981	4429.632417814031	0
2	8990	4431.022498601791	1
2	8991	4431.720726490922	0
2	9020	4450.448485001319	1
2	9021	4451.172901031207	0
2	9050	4469.933662202993	1
2	9051	4470.152906149658	0
2	9065	4478.986756226443	1
2	9066	4479.752128205507	0
2	9095	4491.730705887048	1
2	9096	4492.036006437297	0
2	9140	4564.149520278178	1
2	9141	4564.815649648472	0
2	9145	4565.606953668859	1
2	9146	4565.895621619835	0
2	9240	4701.923941441537	1
2	9241	4702.243653792328	0
2	9250	4703.883596624869	1
2	9251	4704.028233665506	0
2	9275	4717.485917283803	1
2	9276	4717.889876372915	0
2	9280	4718.155434464583	1
2	9281	4718.859358846199	0
2	9285	4719.001609809536	1
2	9288	4719.957581557043	0
2	9295	4721.54460909336	1
2	9296	4721.907505306405	0
2	9342	4761.422187118229	1
2	9343	4761.98958262615	0
2	9380	4780.680619120179	1
2	9381	4781.07433213652	0
2	9390	4791.169868163302	1
2	9391	4792.254459314565	0
2	9400	4794.600665131253	1
2	9401	4794.798817863542	0
2	9405	4795.508068949011	1
2	9406	4795.651490388478	0
2	9440	4825.783187205041	1
2	9441	4826.700279092102	0
2	9445	4827.258814300661	1
2	9447	4827.30360304761	2
2	9448	4827.776234933047	1
2	9451	4828.656230935792	0
2	9465	4845.896554752608	1
2	9466	4846.819230564947	0
2	9475	4847.786443885442	1
2	9478	4848.864199266939	0
2	9515	4872.832358542373	1
2	9518	4873.219912777339	0
2	9522	4873.637294076563	1
2	9523	4874.374736071342	0
2	9527	4875.103382988498	1
2	9528	4875.487200359778	0
2	9555	4883.857359446772	1
2	9556	4884.51147888813	0
2	9600	4908.380411323428	1
2	9601	4909.129877425161	0
2	9625	4924.625347291448	1
2	9626	4924.946178378738	0
2	9690	4973.511646775145	1
2	9691	4974.239966963723	0
2	9705	4980.366328939019	1
2	9706	4981.46219705682	0
2	9735	4990.496601686345	1
2	9736	4991.070684930601	0
2	9740	4991.790953756072	1
2	9741	4991.912474015553	0
2	9745	4992.10044225096	1
2	9746	4992.900580936123	0
2	9755	4995.763005172319	1
2	9756	4996.050416321368	0
2	9760	4996.449066582516	1
2	9761	4996.965575359915	0
2	9770	4998.548020157581	1
2	9771	4999.167627341909	0
2	9785	5003.29261659038	1
2	9786	5003.433884783878	0
2	9830	5017.125965592483	1
2	9831	5017.547073235118	0
2	9835	5018.021938403381	1
2	9836	5018.688067423028	0
2	9840	5019.182816280889	1
2	9841	5019.497554147651	0
2	9880	5048.904680401925	1
2	9881	5049.713928131349	0
2	9895	5052.308026277507	1
2	9897	5052.330406232924	2
2	9898	5053.177613488984	1
2	9902	5053.300308169134	2
2	9903	5054.302938446522	1
2	9907	5054.414797755842	2
2	9908	5055.187489671007	1
2	9912	5056.298371331492	2
2	9913	5056.317877305791	1
2	9917	5056.363650604368	2
2	9918	5057.475142057732	1
2	9922	5057.5345494493	2
2	9924	5057.587170890254	3
2	9925	5058.485771413826	2
2	9928	5059.381388324153	1
2	9932	5060.199892268102	2
2	9933	5060.348673150063	1
2	9936	5061.365267119397	0
2	9945	5064.563555402417	1
2	9946	5064.741203208119	0
2	9950	5065.537823718866	1
2	9951	5065.629902862516	0
2	9965	5068.269484276333	1
2	9966	5069.083527059628	0
2	10020	5101.738149808955	1
2	10021	5102.349187190737	0
2	10040	5108.462129227296	1
2	10041	5108.877421154997	0
2	10125	5165.296106407134	1
2	10126	5165.594541841238	0
2	10130	5165.761270039496	1
2	10131	5166.475132300756	0
2	10135	5166.668893782181	1
2	10136	5167.419906345527	0
2	10142	5168.094983097273	1
2	10143	5168.425848542019	0
2	10150	5170.426025243429	1
2	10152	5170.471966288436	2
2	10153	5170.567411431628	1
2	10156	5171.412857896234	0
2	10205	5185.949237726273	1
2	10206	5186.836447404261	0
2	10215	5188.216445699876	1
2	10218	5189.14750048428	0
2	10224	5190.056520084872	1
2	10225	5190.126783486951	0
2	10232	5191.298305298012	1
2	10234	5191.465194012451	2
2	10237	5192.309282701678	1
2	10241	5192.408213486142	2
2	10244	5193.109806209925	1
2	10248	5193.553256731128	2
2	10249	5193.912007165171	1
2	10253	5194.241978003754	2
2	10254	5195.048512034148	1
2	10257	5196.012609632436	0
2	10261	5196.82559028259	1
2	10262	5196.90753490816	0
2	10269	5198.349448978249	1
2	10271	5198.898017354095	2
2	10272	5198.95033875446	1
2	10278	5198.983123788613	2
2	10281	5199.92076011303	1
2	10286	5200.849551391538	0
2	10290	5201.689986463207	1
2	10292	5201.748502202921	2
2	10293	5201.880668214831	1
2	10296	5202.917509629607	0
2	10306	5205.897111280021	1
2	10307	5206.326026588801	0
2	10316	5207.806800958358	1
2	10318	5208.371073782732	2
2	10319	5208.496186451178	1
2	10323	5209.140142862888	2
2	10324	5209.482575584326	1
2	10328	5209.492616815141	2
2	10330	5210.301077234554	3
2	10331	5210.306753574528	2
2	10336	5211.483785134305	1
2	10339	5212.563706675016	0
2	10343	5212.747207092104	1
2	10344	5213.603578082037	0
2	10351	5215.157030541037	1
2	10352	5215.610286067922	0
2	10356	5216.198757558169	1
2	10357	5216.755698056829	0
2	10367	5219.274047799777	1
2	10368	5219.415260432412	0
2	10385	5222.910903172161	1
2	10389	5223.450471189175	2
2	10390	5223.582685718716	1
2	10396	5224.359281617159	2
2	10397	5224.708868081246	1
2	10401	5225.249133617782	2
2	10402	5225.862178221282	1
2	10405	5226.92066550174	0
2	10412	5228.165752789173	1
2	10414	5228.325355264668	2
2	10416	5228.36457989987	3
2	10417	5228.987417045731	2
2	10420	5230.163879147947	1
2	10424	5230.588285608548	2
2	10425	5231.338853270684	1
2	10429	5231.361848842004	2
2	10430	5232.154331480183	1
2	10433	5233.230238961924	0
2	10437	5234.078108883311	1
2	10438	5234.094695722342	0
2	10442	5234.405011305056	1
2	10443	5235.03250028047	0
2	10450	5236.218674268053	1
2	10453	5236.980571043615	0
2	10462	5238.423143621504	1
2	10464	5238.682424284746	2
2	10465	5238.967094118179	1
2	10468	5239.823081989524	0
2	10510	5271.816370328103	1
2	10511	5272.449846392992	0
2	10575	5298.422724551464	1
2	10577	5298.646218202505	2
2	10578	5298.809744626022	1
2	10583	5299.921175529826	0
2	10589	5299.973032677215	1
2	10590	5301.008570987097	0
2	10594	5301.233897264531	1
2	10595	5302.181873099244	0
2	10625	5317.019541258221	1
2	10626	5317.953810849325	0
2	10640	5324.219964625736	1
2	10641	5324.525639513421	0
2	10645	5324.68028671954	1
2	10646	5325.483397099103	0
2	10665	5331.380350311002	1
2	10666	5331.72324790445	0
2	10760	5397.258496376679	1
2	10763	5397.855695711033	0
2	10767	5398.220374629996	1
2	10768	5399.012546189924	0
2	10775	5400.225514759463	1
2	10777	5400.379567022286	2
2	10778	5400.928587155466	1
2	10783	5401.745966877931	0
2	10825	5414.052884355281	1
2	10826	5414.659049153069	0
2	10830	5414.951598743524	1
2	10831	5415.465809954537	0
2	10840	5416.686127441978	1
2	10842	5417.226961586171	2
2	10843	5417.714784332385	1
2	10846	5418.632974857671	0
2	10850	5419.356680015221	1
2	10851	5419.68611074567	0
2	10855	5419.771400280155	1
2	10856	5420.525409522393	0
2	10865	5422.197327951834	1
2	10866	5422.782961884781	0
2	10895	5437.112863406866	1
2	10896	5437.366723929717	0
2	10915	5454.894230248052	1
2	10916	5455.039697410304	0
2	10940	5470.146973287027	1
2	10941	5470.631480477549	0
2	10945	5471.417473861636	1
2	10946	5471.812538401767	0
2	10970	5497.141650607921	1
2	10971	5497.440468670536	0
2	11070	5576.480960168612	1
2	11071	5576.596659293644	0
2	11075	5577.291530265091	1
2	11076	5577.69750493864	0
2	11080	5578.242352218423	1
2	11081	5578.732476353985	0
2	11085	5579.009256118171	1
2	11086	5579.801790043865	0
2	11090	5580.167978908538	1
2	11091	5580.653383432575	0
2	11095	5581.093294117796	1
2	11096	5581.503197113019	0
2	11102	5581.852089959949	1
2	11103	5582.315501447082	0
2	11115	5585.054932794717	1
2	11116	5585.589885070107	0
2	11125	5587.376532531526	1
2	11126	5587.940858162942	0
2	11132	5588.514615659595	1
2	11133	5588.816202814228	0
2	11210	5623.788259811522	1
2	11211	5624.606901531498	0
2	11220	5625.525623162189	1
2	11223	5626.248282714671	0
2	11310	5698.114375045604	1
2	11311	5698.626848303083	0
2	11315	5699.127632924878	1
2	11316	5699.568511244397	0
2	11320	5699.611345407312	1
2	11321	5700.429203682787	0
2	11325	5701.280190341935	1
2	11326	5701.562992960329	0
2	11330	5701.733486196551	1
2	11332	5702.245462158666	2
2	11333	5702.623164306882	1
2	11336	5703.633307790498	0
2	11355	5708.350102404109	1
2	11356	5709.284494801426	0
2	11385	5730.92073972074	1
2	11386	5731.786333815453	0
2	11435	5750.668915887515	1
2	11436	5751.345930722299	0
2	11445	5752.497069601821	1
2	11447	5752.52369100491	2
2	11448	5753.343385422638	1
2	11452	5753.425760394718	2
2	11454	5754.288980979691	3
2	11455	5754.398748712743	2
2	11458	5755.210355742963	1
2	11461	5756.159055911599	0
2	11485	5778.684382323166	1
2	11486	5779.372944227831	0
2	11720	5936.062137310733	1
2	11721	5936.790269775333	0
2	11815	5981.94294677701	1
2	11817	5982.362480999851	2
2	11818	5982.568224359124	1
2	11821	5983.611099718983	0
2	11825	5984.378118664436	1
2	11826	5984.643178261636	0
2	11830	5984.915028069858	1
2	11831	5985.834388694918	0
2	11890	6027.037055804121	1
2	11891	6027.896793612587	0
2	11920	6043.450767368744	1
2	11921	6043.652558469272	0
2	11930	6045.124293466792	1
2	11931	6046.082890759052	0
2	11950	6050.459563585406	1
2	11951	6051.237969534892	0
2	11970	6055.463190626392	1
2	11971	6055.67128924387	0
2	12029	6091.359779673479	1
2	12030	6091.547259798373	0
2	12075	6112.468198680886	1
2	12076	6113.307529267848	0
2	12090	6119.676510875707	1
2	12091	6120.282400412442	0
2	12095	6121.04040678539	1
2	12096	6121.280578964626	0
2	12105	6126.659866261558	1
2	12106	6126.721143216803	0
2	12140	6167.858990370693	1
2	12141	6168.435602730082	0
2	12150	6169.573156815774	1
2	12151	6170.3219512693	0
2	12165	6174.152551180552	1
2	12166	6174.965232787438	0
2	12175	6177.78855839979	1
2	12176	6178.048655164917	0
2	12185	6179.758615002596	1
2	12186	6179.977390406143	0
2	12192	6180.192825778429	1
2	12195	6180.891700700998	0
2	12250	6211.277671301732	1
2	12251	6211.958021425839	0
2	12260	6214.366231570443	1
2	12263	6215.175311987278	0
2	12274	6216.394441701345	1
2	12275	6217.06554920067	0
2	12290	6220.560550317022	1
2	12291	6221.330860695699	0
2	12305	6224.536908064971	1
2	12308	6225.442755527157	0
2	12315	6226.732163255099	1
2	12316	6227.625367978323	0
2	12365	6246.176845028189	1
2	12368	6246.367887198276	0
2	12444	6273.776337277508	1
2	12445	6274.673795905933	0
2	12449	6274.746205216593	1
2	12451	6274.795633458479	2
2	12452	6275.716772296969	1
2	12455	6276.8988413148	0
2	12459	6277.160302403837	1
2	12462	6278.092846825663	0
2	12466	6278.788434311664	1
2	12467	6279.245077956039	0
2	12471	6279.810314973376	1
2	12473	6279.928671714939	2
2	12474	6280.144909805096	1
2	12477	6281.322871999293	0
2	12487	6283.381663001585	1
2	12488	6284.123275653123	0
2	12501	6285.434973462172	1
2	12502	6285.997024486623	0
2	12509	6287.927202972362	1
2	12511	6287.977611752181	2
2	12512	6288.123258005678	1
2	12517	6289.310679703894	0
2	12521	6289.882960192035	1
2	12522	6290.352550625744	0
2	12526	6290.459495455034	1
2	12527	6291.34101688912	0
2	12537	6293.831665818474	1
2	12538	6294.518341876137	0
2	12567	6299.297186844508	1
2	12568	6300.130403837504	0
2	12577	6301.588360312319	1
2	12578	6302.4017232302	0
2	12585	6303.352307690916	1
2	12586	6304.490929588338	0
2	12610	6324.600132109032	1
2	12611	6324.939586268398	0
2	12625	6327.597703928045	1
2	12626	6328.189241188426	0
2	12640	6331.307464707519	1
2	12643	6332.32879886432	0
2	12650	6333.847423688314	1
2	12651	6334.334621825446	0
2	12715	6361.584669435157	1
2	12716	6362.398599289507	0
2	12735	6372.815593324042	1
2	12736	6373.49935804804	0
2	12740	6373.88497931398	1
2	12741	6374.630435810919	0
2	12760	6379.915634045051	1
2	12761	6380.538153526662	0
2	12775	6384.623002354928	1
2	12776	6385.344720552147	0
2	12785	6388.208807039103	1
2	12786	6388.333356593368	0
2	12850	6428.484660221457	1
2	12852	6428.655506536015	2
2	12853	6428.661300487224	1
2	12857	6429.182232581702	2
2	12858	6429.699040242065	1
2	12861	6430.643335837558	0
2	12865	6431.331990471331	1
2	12866	6431.446429278575	0
2	12870	6431.777727424629	1
2	12871	6432.438346580569	0
2	12885	6435.827954014305	1
2	12886	6435.946030826821	0
2	12890	6435.964170323424	1
2	12891	6436.874205083913	0
2	12920	6443.147574961644	1
2	12923	6443.881986611503	0
2	12935	6446.017630003923	1
2	12936	6446.854137000142	0
2	12950	6449.391315117856	1
2	12951	6450.076923165262	0
2	12955	6450.567263499686	1
2	12956	6451.200811762899	0
2	13030	6500.4650497105	1
2	13031	6500.871825229231	0
2	13047	6505.519850444427	1
2	13048	6505.795642242046	0
2	13057	6507.255909043312	1
2	13058	6507.564339486906	0
2	13070	6510.341398145181	1
2	13071	6510.355112674111	0
2	13080	6532.693605005088	1
2	13081	6532.884324254184	0
2	13090	6536.391066346221	1
2	13091	6536.624931469338	0
2	13130	6554.608599192628	1
2	13131	6554.885547430416	0
2	13135	6555.463237888768	1
2	13136	6555.741998330945	0
2	13180	6599.825940231519	1
2	13181	6599.888795899432	0
2	13215	6617.781063471753	1
2	13216	6618.116361004644	0
2	13240	6631.672939312214	1
2	13242	6632.348124783583	2
2	13243	6632.821246931151	1
2	13246	6633.734994875182	0
2	13265	6638.310823249578	1
2	13266	6638.915077148739	0
2	13280	6643.577791232409	1
2	13281	6643.690906812814	0
2	13300	6648.459493175693	1
2	13301	6649.499450257421	0
2	13312	6650.707057501385	1
2	13314	6650.879617340973	2
2	13315	6651.722196227778	1
2	13318	6652.77513622595	0
2	13325	6653.994966212325	1
2	13326	6655.155852966756	0
2	13332	6655.601864953684	1
2	13333	6656.33951056432	0
2	13375	6674.60912957223	1
2	13376	6674.849889950244	0
2	13380	6674.956496077738	1
2	13381	6675.857953779469	0
2	13390	6677.48843906354	1
2	13391	6678.049374066175	0
2	13400	6679.627200987672	1
2	13401	6679.982191345562	0
2	13407	6680.197428757987	1
2	13408	6681.143658966199	0
2	13425	6686.724272849189	1
2	13426	6686.982299481732	0
2	13435	6691.212553599766	1
2	13436	6691.691559059042	0
2	13495	6745.957074004502	1
2	13498	6746.858862480744	0
2	13505	6748.284372894616	1
2	13506	6748.521013503372	0
2	13520	6750.770032479888	1
2	13522	6751.350802838649	2
2	13523	6751.538222081344	1
2	13526	6752.430197019725	0
2	13530	6753.480501155677	1
2	13531	6753.506100270095	0
2	13540	6756.462054241795	1
2	13541	6756.550432593471	0
2	13565	6766.195960738798	1
2	13567	6766.221697036225	2
2	13568	6766.422968913456	1
2	13573	6767.348209033748	0
2	13577	6767.463609883191	1
2	13578	6768.535075473906	0
2	13615	6796.032989769662	1
2	13616	6796.516954567523	0
2	13625	6798.41287952014	1
2	13627	6798.770093846987	2
2	13628	6799.045218399421	1
2	13632	6799.866930037675	2
2	13633	6799.954890888159	1
2	13636	6800.9624497839	0
2	13640	6801.617366588737	1
2	13641	6802.003179626608	0
2	13645	6802.068581448017	1
2	13646	6802.964079761946	0
2	13660	6805.381621499821	1
2	13662	6805.468818393796	2
2	13663	6806.169559799912	1
2	13666	6807.258632711633	0
2	13672	6807.897703328281	1
2	13673	6808.299547193418	0
2	13677	6808.831501619747	1
2	13678	6809.246724689132	0
2	13682	6810.419271041732	1
2	13683	6810.424517795662	0
2	13715	6823.180611274968	1
2	13716	6823.229310441334	0
2	13720	6824.046054849146	1
2	13721	6824.163952867445	0
2	13805	6877.989233692411	1
2	13807	6878.393774172452	2
2	13808	6878.866761676459	1
2	13813	6879.974010094213	0
2	13817	6880.559342649936	1
2	13818	6880.836197559866	0
2	13825	6882.699306300883	1
2	13826	6882.874607036314	0
2	13840	6884.95008955783	1
2	13843	6885.753721643618	0
2	13860	6890.722644346591	1
2	13861	6891.518203525571	0
2	13870	6893.116842868309	1
2	13871	6893.875083779626	0
2	13915	6914.165848581951	1
2	13916	6914.406028707994	0
2	13925	6915.801697202943	1
2	13926	6916.541004954843	0
2	13950	6930.598186159139	1
2	13953	6931.172543498929	0
2	13995	6963.039833876219	1
2	13998	6963.92921726614	0
2	14015	6967.279939920964	1
2	14016	6967.750580552002	0
2	14035	6971.710778214908	1
2	14036	6972.317111256467	0
2	14075	6990.511243001034	1
2	14076	6990.584687661566	0
2	14125	7018.616380206369	1
2	14126	7019.681477824838	0
2	14190	7046.591757620295	1
2	14191	7046.916825332016	0
2	14210	7056.129445588232	1
2	14211	7056.839127914083	0
2	14215	7057.577648093026	1
2	14216	7057.959193877351	0
2	14225	7059.53781603233	1
2	14226	7059.992651424125	0
2	14250	7081.877814492159	1
2	14251	7082.675041423625	0
2	14345	7126.278849871291	1
2	14346	7126.901607466502	0
2	14350	7127.223898137732	1
2	14351	7127.726903617488	0
2	14355	7128.211198591553	1
2	14356	7128.773727815518	0
2	14360	7128.827382534066	1
2	14363	7129.953233187752	0
2	14367	7130.628778843036	1
2	14369	7130.642639791032	2
2	14370	7130.955725614647	1
2	14374	7131.394488123908	2
2	14375	7131.757452981094	1
2	14378	7132.565188225465	0
2	14385	7134.381791788325	1
2	14386	7134.401367862815	0
2	14405	7138.535714267087	1
2	14406	7139.083911880357	0
2	14430	7149.266267343736	1
2	14431	7149.735606313527	0
2	14470	7173.51321263746	1
2	14472	7173.788987785352	2
2	14473	7174.236230372326	1
2	14478	7175.213718028241	0
2	14485	7176.668525487475	1
2	14486	7177.427693098379	0
2	14495	7179.937670642779	1
2	14498	7180.206149217808	0
2	14507	7181.549311970997	1
2	14510	7182.332669057087	0
2	14514	7182.58217126341	1
2	14515	7183.14804440117	0
2	14560	7196.63507882459	1
2	14561	7197.617670437779	0
2	14570	7199.121367650627	1
2	14571	7199.51956704314	0
2	14625	7217.519566336077	1
2	14626	7217.759406737969	0
2	14637	7219.015091781331	1
2	14639	7219.647466587184	2
2	14640	7219.909863888644	1
2	14643	7220.9309661229	0
2	14650	7222.405123505559	1
2	14651	7223.05941963958	0
2	14675	7240.87339992686	1
2	14676	7241.16470617845	0
2	14680	7241.859866881826	1
2	14681	7242.039488733348	0
2	14705	7255.458191284174	1
2	14706	7255.756084443943	0
2	14730	7270.388839190409	1
2	14731	7270.970767216523	0
2	14735	7271.39427583048	1
2	14736	7272.156816877936	0
2	14745	7274.865575815684	1
2	14746	7275.34655202108	0
2	14765	7289.7736478378	1
2	14766	7290.80452590971	0
2	14790	7300.310072830316	1
2	14791	7301.187595675955	0
2	14795	7301.38484463308	1
2	14796	7302.299851830466	0
2	14815	7319.830399540973	1
2	14816	7320.251021041905	0
2	14820	7321.022626663086	1
2	14821	7321.25286537688	0
2	14825	7321.783279158622	1
2	14826	7322.39763048738	0
2	14830	7322.819140670292	1
2	14831	7323.47443776326	0
2	14835	7324.24622461601	1
2	14836	7324.359167713297	0
2	14840	7325.09990762732	1
2	14841	7325.489493431149	0
2	14845	7325.498445745966	1
2	14847	7325.628286681666	2
2	14848	7326.469147956742	1
2	14851	7327.6527333552	0
2	14865	7330.583681483974	1
2	14866	7331.053670625946	0
2	14880	7333.547013382206	1
2	14881	7334.573097251915	0
2	14885	7335.170997297915	1
2	14886	7335.724415929057	0
2	14890	7335.909064430625	1
2	14893	7336.60840185564	0
2	14897	7337.29017808022	1
2	14898	7337.477984633762	0
2	14902	7338.245307930518	1
2	14903	7338.326187443826	0
2	14925	7342.912345243849	1
2	14926	7342.912464777472	0
2	14930	7343.238560610875	1
2	14931	7343.74095425261	0
2	14940	7344.786021119648	1
2	14945	7345.826222533824	0
2	14955	7348.118254738001	1
2	14956	7349.088808057084	0
2	15047	7403.910389967988	1
2	15048	7404.267602118573	0
2	15055	7405.236918121188	1
2	15056	7406.078557075004	0
2	15067	7407.824759996938	1
2	15068	7407.970444855469	0
2	15105	7418.595313790092	1
2	15106	7419.387872416323	0
2	15110	7419.572926305202	1
2	15111	7420.297917941103	0
2	15115	7420.343420738364	1
2	15116	7421.429269542063	0
2	15125	7422.59831463732	1
2	15126	7423.089447860124	0
2	15130	7423.563277808323	1
2	15132	7423.756133917227	2
2	15133	7424.270126866254	1
2	15137	7424.522960446147	2
2	15138	7425.339070142231	1
2	15142	7425.588613178108	2
2	15143	7426.237894030831	1
2	15147	7426.963921459774	2
2	15148	7427.13475685472	1
2	15151	7428.230199214149	0
2	15155	7429.005707337321	1
2	15156	7429.270666194971	0
2	15165	7431.820428915475	1
2	15166	7432.099196171299	0
2	15190	7438.857315316766	1
2	15191	7438.997542602442	0
2	15200	7440.114588092336	1
2	15201	7440.762119760331	0
2	15225	7459.901591243139	1
2	15226	7459.905192673247	0
2	15230	7460.218920109633	1
2	15231	7460.859178614005	0
2	15255	7468.210670346533	1
2	15256	7468.588319660095	0
2	15280	7476.991358475331	1
2	15281	7477.955601739775	0
2	15305	7501.180809483034	1
2	15306	7501.368170356194	0
2	15342	7514.655074335869	1
2	15343	7515.009612609428	0
2	15352	7516.49265422717	1
2	15353	7517.185846560896	0
2	15357	7517.963177490187	1
2	15358	7518.248228897881	0
2	15365	7520.165399991541	1
2	15366	7520.43949856868	0
2	15415	7545.044558382565	1
2	15416	7545.87980479889	0
2	15450	7567.704861898574	1
2	15451	7567.989007338774	0
2	15455	7568.554574452705	1
2	15456	7568.789468735815	0
2	15465	7581.436234064866	1
2	15466	7582.201866595693	0
2	15490	7615.097565989608	1
2	15491	7615.341445994415	0
2	15550	7661.978014578564	1
2	15551	7662.388576091344	0
2	15560	7663.832594363063	1
2	15561	7664.267503757759	0
2	15585	7669.667557480398	1
2	15586	7670.231103569426	0
2	15590	7670.802595787335	1
2	15591	7671.185923224938	0
2	15620	7712.35139027214	1
2	15622	7712.724916123282	2
2	15623	7712.831322269366	1
2	15627	7712.833343947632	2
2	15629	7712.964693820622	3
2	15632	7713.997167672721	2
2	15636	7714.881963040932	3
2	15638	7715.049448521746	4
2	15639	7715.155464432427	3
2	15642	7716.34811098626	2
2	15646	7716.919255016978	3
2	15648	7717.15734491776	4
2	15649	7717.540451473502	3
2	15652	7718.48425401006	2
2	15655	7719.578108318654	1
2	15659	7719.805485492398	2
2	15661	7719.838611148812	3
2	15662	7720.497010778767	2
2	15665	7721.450406812263	1
2	15668	7722.619887222854	0
2	15680	7727.740746209302	1
2	15681	7728.302769545316	0
2	15695	7730.689968079954	1
2	15696	7731.69271285487	0
2	15705	7733.389274458762	1
2	15706	7733.669392090101	0
2	15822	7785.699154305137	1
2	15823	7785.85323989686	0
2	15834	7787.904555134799	1
2	15836	7787.98150969961	2
2	15837	7788.078755609099	1
2	15842	7789.218031768002	0
2	15846	7789.297250933121	1
2	15847	7790.360643856846	0
2	15856	7791.516374091614	1
2	15858	7791.534510793819	2
2	15859	7792.459305461183	1
2	15862	7793.350444087725	0
2	15871	7795.109669317783	1
2	15872	7795.429951272499	0
2	15879	7796.921893383899	1
2	15880	7797.214686463647	0
2	15889	7798.593712970663	1
2	15890	7799.252262965836	0
2	15897	7800.320062217808	1
2	15898	7801.161386018027	0
2	15930	7816.16169475425	1
2	15931	7816.804049530448	0
2	15955	7824.193496289896	1
2	15956	7824.416168112928	0
2	15965	7827.813769124895	1
2	15966	7828.643970912364	0
2	15980	7840.198605441926	1
2	15982	7840.499453832919	2
2	15983	7841.109546230551	1
2	15987	7841.576212556059	2
2	15988	7842.269856643401	1
2	15992	7843.102516441901	2
2	15993	7843.301000089202	1
2	15997	7843.475860850611	2
2	15998	7844.451321582686	1
2	16001	7845.304965588361	0
2	16015	7875.04718968483	1
2	16016	7875.936238175628	0
2	16020	7875.996710084559	1
2	16022	7876.704753515246	2
2	16023	7876.831303777543	1
2	16027	7877.513704855638	2
2	16028	7877.909385868159	1
2	16032	7878.354962359207	2
2	16033	7878.949656856616	1
2	16036	7879.936329080534	0
2	16040	7880.432533407878	1
2	16041	7880.805783948392	0
2	16045	7880.975900466171	1
2	16046	7881.883464687221	0
2	16055	7884.319315207272	1
2	16056	7884.84861529045	0
2	16062	7885.301112828373	1
2	16063	7885.853551340794	0
2	16070	7887.895057518445	1
2	16071	7888.090656727219	0
2	16080	7889.944532578207	1
2	16081	7890.289570084563	0
2	16087	7890.678453013477	1
2	16088	7891.129626297554	0
2	16094	7891.25623989164	1
2	16096	7892.034364856579	2
2	16097	7892.233485754369	1
2	16100	7893.257984275906	0
2	16104	7894.216629276412	1
2	16105	7894.36397338442	0
2	16117	7896.346934960533	1
2	16118	7897.106944650761	0
[...]
6	48138	24074.906908970224	2.805744057555
6	48171	24082.016194689357	8.925355748248
6	48221	24092.154403901649	11.070541096764
6	48254	24099.611235858396	14.730363916975
6	48262	24101.633683178656	12.389036354571
6	48270	24103.586489273504	7.957646894033
6	48275	24105.106621274268	23.727218264086
6	48280	24113.537325767036	1.058416031674
6	48310	24122.908337830608	5.219133571538
6	48324	24126.57974890134	12.234910550185
6	48334	24128.772692225302	5.431283389037
6	48342	24130.775874149041	2.370570995298
6	48347	24131.781198953917	3.958128125206
6	48355	24134.065417395415	3.247768432308
6	48360	24141.77923541822	1.192531486135
6	48365	24144.764327538923	1.196247312985
6	48370	24149.583415166212	0.91186683327
6	48410	24164.820307173557	5.975562556877
6	48459	24192.314665030277	2.374815770322
6	48464	24193.157316028102	4.232750928681
6	48475	24196.265296509824	4.275916405516
6	48490	24200.827599815609	22.602866329167
6	48500	24219.420069613006	1.166121018678
6	48522	24228.679102410762	0.826654735673
6	48545	24254.835844907116	1.089211936761
6	48575	24274.620785498182	1.269254539601
6	48580	24275.924768378607	6.664796696507
6	48662	24323.653621469324	2.400374259293
6	48675	24329.716871197995	1.00600745948
6	48690	24338.217744666275	5.797433881567
6	48695	24350.52792128528	1.189307029638
6	48700	24353.875343518803	0.866014451161
6	48765	24370.51052520482	7.274902690859
6	48770	24386.890854417141	1.157668829989
6	48782	24402.748570366133	1.135841309
6	48805	24409.334527197307	6.952406653417
6	48839	24428.423850645022	1.34044397711
6	48845	24430.557662799013	4.492285115954
6	48857	24435.785294274745	1.792807003898
6	48892	24464.794241597489	6.692555827243
6	48935	24475.084341180086	13.337295929836
6	48950	24483.428766757148	4.625707627424
6	48955	24484.536227409442	4.619617400082
6	48965	24486.952843011138	1.031746052578
6	49062	24524.001043133722	0.987057400681
6	49077	24527.178180339006	3.058389105972
6	49080	24528.37598983916	7.664540039087
6	49112	24544.282275441863	2.967803433817
6	49134	24550.959924735792	0.86744671464
6	49142	24552.596364425599	12.681371616462
6	49165	24562.832478758061	0.851298367511
6	49170	24574.899301244807	1.175220726524
6	49195	24590.093062672626	6.034876576556
6	49267	24617.207559135321	5.723376543166
6	49280	24624.099498058454	1.001661813259
6	49335	24649.249640550139	3.249880871371
6	49385	24688.829660288529	0.911161029059
6	49402	24713.806989127424	1.741981559163
6	49410	24715.748928438898	1.052888513654
6	49460	24741.243097901759	1.049591676332
6	49502	24753.748620145086	10.929087915072
6	49522	24768.197055503085	1.01137853032
6	49585	24787.867180573455	0.896704826318
6	49660	24811.333239447762	11.107739757426
6	49665	24814.465255199153	1.083395808656
6	49695	24868.130084115854	5.067325390509
6	49702	24870.724545384842	1.176607077662
6	49712	24873.042285395778	1.881848283667
6	49720	24874.887353176057	14.289465218321
6	49752	24882.00733457763	1.502698646722
6	49770	24895.525810204531	3.455294831168
6	49780	24901.731239162318	0.965683164448
6	49812	24915.630379701906	7.076728013511
6	49817	24916.477183463086	3.850959126192
6	49835	24922.50412748621	9.370381789705
6	49917	24950.490270397345	10.328383172364
6	49932	24960.048301142837	18.275175322827
6	49950	24969.038550750871	15.714711452693
6	50014	24986.497950819203	4.704086929786
6	50029	24989.505023541091	2.421408331995
6	50034	24990.54784676812	16.375499448075
6	50047	24993.862241059425	4.436551102754
6	50090	25003.050093257311	7.159443675332
6	50100	25012.152555877519	2.421354940809
6	50145	25027.975725504598	10.947630504741
6	50155	25035.799935098091	3.695685553345
6	50165	25062.346404525581	1.07078178376
6	50235	25090.284833479517	7.382979283439
6	50252	25099.373856943206	1.072730077896
6	50255	25100.503119939019	5.333299620232
6	50262	25102.604186530374	0.839004554227
6	50270	25105.384816990324	3.430381051875
6	50290	25111.750739184759	1.013980720021
6	50367	25135.858358543347	8.050467631034
6	50380	25142.559522806812	0.849771741591
6	50457	25182.856290677041	3.002931729867
6	50465	25193.226081752911	0.83676989926
6	50490	25210.707960829697	0.930925140716
6	50515	25228.130927430709	1.200350160513
6	50540	25248.378302398349	0.855237195548
6	50689	25305.889755427848	5.484516098644
6	50710	25310.915048094663	16.694858379325
6	50715	25314.402180772267	8.202433050954
6	50762	25323.588934707352	5.800310284759
6	50792	25347.44815204245	0.942897920124
6	50800	25355.831572664382	0.990336840414
6	50835	25375.460762577466	5.818948723351
6	50850	25386.809927043098	0.976613534335
6	50890	25449.988933283192	1.07428958388
6	50965	25494.176326988344	15.279823719611
6	50982	25510.062650545521	1.57706673887
6	51020	25524.86712724397	3.308974515068
6	51106	25549.834022209748	13.633129464603
6	51117	25553.125257669344	13.275965555119
6	51160	25566.786833580517	2.525732788623
6	51172	25569.073587786556	2.250310120965
6	51207	25591.213319044952	5.482242844348
6	51215	25593.034113601428	9.363553583839
6	51220	25594.340650882196	3.707138699471
6	51269	25621.801007244092	3.432563758111
6	51305	25639.30186414525	5.000352073855
6	51340	25661.649539131804	0.971860330645
6	51360	25671.619904924556	0.814103821479
6	51382	25685.725071478508	4.974257666055
6	51385	25686.557855982765	3.475359769455
6	51399	25691.681558773196	0.840663746186
6	51425	25713.391674043624	1.908935134618
6	51457	25749.20209056319	7.747870838324
6	51472	25752.828598999208	6.80861508039
6	51492	25783.4045378309	1.199408727139
6	51525	25797.215395943714	6.468877060997
6	51567	25813.504269106651	1.060253795819
6	51595	25827.303318021925	2.859975504952
6	51600	25830.168339617421	0.905860771425
6	51622	25840.3282478001	3.490518461859
6	51690	25873.457588472241	3.116292784834
6	51710	25887.688278614698	3.969625062889
6	51765	25927.87416494732	3.949919426163
6	51775	25932.640072579516	0.89770017229
6	51792	25951.774341969145	6.176022773252
6	51797	25952.72138746134	0.984339092628
6	51800	25953.583441336127	1.609034460203
6	51810	25961.938908130462	1.097706571314
6	51845	25973.67817684959	4.436862959273
6	51867	25977.841276242539	3.853975279343
6	51872	25978.926453953098	4.41683888277
6	51882	25982.031821596667	1.182103866339
6	51925	25998.599746710326	2.208332207665
6	51930	26000.224691319142	0.985432646703
6	51957	26012.010902035054	1.196805259865
6	51995	26026.220375725382	3.021549384747
6	52032	26035.095674343471	3.656182671716
6	52094	26049.949926884706	9.210349073852
6	52107	26056.063764301683	0.929521136358
6	52110	26057.119466272085	8.607917180066
6	52152	26078.568351084081	16.360147204537
6	52160	26080.744735151824	2.958963570362
6	52187	26095.812096058814	4.956631238048
6	52192	26096.772023932966	5.679061028554
6	52195	26097.706353697232	1.275118563765
6	52260	26135.606458629621	2.068208989046
6	52265	26136.826061728402	1.195124963578
6	52270	26140.629493026752	0.83646149775
6	52275	26154.376038654905	0.873457231466
6	52329	26186.180761568028	3.841835867707
6	52367	26196.534300608513	3.826334349216
6	52415	26207.285039178828	9.702506619819
6	52420	26215.221458284511	1.067284403555
6	52427	26228.588512989154	1.030884671863
6	52452	26233.284165150971	4.524678110961
6	52460	26235.329019971234	4.892772100208
6	52472	26245.366190213764	1.106768396869
6	52480	26254.987375108385	0.942041554581
6	52505	26265.401045032718	1.117154619005
6	52510	26273.047504405078	1.172306665964
6	52515	26280.236772035526	1.00387702845
6	52520	26295.215293861111	1.1588177016
6	52525	26328.57608350244	0.898216620646
6	52542	26334.233113786413	4.685968334159
6	52550	26339.381253889256	0.863402211759
6	52617	26366.017514209171	4.940692584183
6	52634	26369.530886233564	11.714601310271
6	52677	26387.575593103112	1.267479147069
6	52700	26396.226199428377	1.075730393091
6	52725	26405.0057937546	2.626747305035
6	52770	26420.726978713085	1.73234226142
6	52782	26422.973436503856	2.056801972097
6	52820	26435.761690498779	1.068287604954
6	52869	26480.367570861572	1.104767829832
6	52924	26491.875102467512	3.765460885368
6	52937	26494.848784813987	1.875208563037
6	52962	26500.608251883175	1.782820053726
6	52965	26501.683815454498	6.658059455358
6	52979	26504.297747259566	1.332958857117
6	53045	26542.281686207099	3.267581557047
6	53050	26545.729762069142	1.009010971338
6	53065	26552.279214050554	1.118316788878
6	53102	26571.596838051147	1.372257731526
6	53157	26593.445859560664	0.893826164305
6	53260	26642.089664494756	2.978769424528
6	53295	26658.577332265836	1.968855271688
6	53325	26673.776523287286	1.177708592638
6	53330	26683.453406958997	1.102646851353
6	53359	26692.698964203539	8.378241668359
6	53374	26696.070037568844	4.462537118286
6	53395	26701.394715542364	8.3149724006
6	53432	26708.476079604047	6.8918132011
6	53450	26715.404088153579	1.480759308375
6	53505	26740.914322008615	1.03391856486
6	53569	26767.778338335779	10.018771943057
6	53575	26769.625924540543	2.966179521928
6	53580	26775.68159316575	0.848180934042
6	53640	26801.549443335852	2.456403966656
6	53650	26804.116871740449	1.179193239938
6	53662	26810.79260595717	1.151653363463
6	53665	26811.841007730518	13.489362280105
6	53672	26816.024718452154	1.058605243918
6	53694	26820.901270004229	3.252225879981
6	53737	26838.74649898632	1.502124651366
6	53755	26843.732743721271	0.857967660856
6	53797	26860.573607450496	0.957147182617
6	53815	26868.008004226223	0.876057713479
6	53825	26872.779226495045	0.970781218726
6	53889	26887.359171112913	5.996223627836
6	53914	26892.061347201753	4.574375622791
6	53924	26894.058929669119	3.542365319874
6	53927	26894.94288368915	13.701456950379
6	53930	26895.746370802082	13.412722997723
6	53940	26899.976240418153	0.86953864051
6	54047	26923.63065865237	1.052136391352
6	54064	26926.569707608798	16.215063058303
6	54072	26928.370120133569	12.70452966362
6	54095	26936.516380957559	4.511828864329
6	54134	26946.315662490004	0.85748654725
6	54180	26956.607144743284	16.144377353196
6	54185	26957.878551243488	10.106495629449
6	54240	26992.532348503864	4.324001099707
6	54287	27039.846359237364	4.78334437982
6	54300	27048.747308031432	1.114430591837
6	54325	27067.782774477864	2.308696217216
6	54375	27099.378182008639	5.583574242024
6	54405	27113.960205595474	4.239089347681
6	54420	27125.730863747716	0.851280490309
6	54452	27150.047606603012	4.804338665846
6	54489	27160.057573528686	11.177559154647
6	54495	27161.931965966342	6.425427200414
6	54500	27186.804710266119	0.9488870373
6	54505	27192.236033498093	1.034599369764
6	54515	27199.837910934681	1.138262153044
6	54549	27231.466432337366	1.60515612563
6	54575	27247.793277144556	0.865652622003
6	54614	27261.908724979884	2.881166269538
6	54650	27274.652334673657	0.86740182871
6	54782	27314.9798571128	3.340483487394
6	54817	27338.784411839852	1.809173872977
6	54827	27341.147053255825	0.836009534448
6	54855	27349.749092039912	1.512708931874
6	54870	27354.617588199069	3.948069867978
6	54880	27357.553131083042	13.20693311004
6	54930	27373.924994414979	5.128766199735
6	54955	27380.04464178872	15.290439559889
6	54962	27381.30749517197	17.4350530776
6	55000	27407.539937408689	1.026483943406
6	55059	27428.011267216128	3.797470884331
6	55082	27433.679672991679	5.99434906657
6	55087	27434.520091924452	3.861608498081
6	55110	27440.594953092719	8.915034845808
6	55120	27443.554038965174	9.725380129704
6	55130	27446.202269422957	1.180563250929
6	55155	27459.479372887893	1.068610565457
6	55165	27463.479144964404	3.021045878077
6	55230	27529.332139533949	1.007139215805
6	55235	27536.463228629462	1.10591065418
6	55245	27545.126046048305	1.163995872438
6	55269	27562.356148642542	1.049597136304
6	55279	27564.288766589256	5.379821212278
6	55290	27567.088473404905	1.42186363799
6	55305	27571.002459413766	3.831620903415
6	55320	27586.954691503782	0.927590893209
6	55350	27601.501729048024	1.809612321982
6	55380	27612.512769899918	2.00629225591
6	55420	27624.2413681716	10.161745658107
6	55430	27633.491347753007	0.873481376655
6	55450	27639.095173124466	1.057501845247
6	55460	27647.642402245245	1.013090103678
6	55497	27658.111563828058	1.157135247532
6	55507	27660.440020782623	8.494619610156
6	55545	27668.92416699912	2.814601518405
6	55592	27693.317045710489	0.887256141062
6	55644	27702.934315387097	8.784604245871
6	55649	27703.845505043895	2.158495193948
6	55682	27711.65288531603	9.891959499349
6	55700	27715.555778379878	0.805522864498
6	55710	27735.115453629994	1.014048327226
6	55745	27751.409792941311	2.011994150002
6	55750	27753.2093674868	1.152730933018
6	55785	27773.718261759578	0.940605685581
6	55800	27797.487803974199	2.031842923681
6	55852	27815.930708229482	0.81593546588
6	55885	27825.44611752828	2.94069407897
6	55905	27843.683421174389	0.916514673363
6	55955	27856.945672791882	6.451917323272
6	56014	27873.289269951659	10.372412987823
6	56019	27874.468423909063	3.152786334354
6	56025	27876.440053771737	16.197777552196
6	56074	27890.448887596111	9.169886686862
6	56102	27898.299600239084	3.908009526129
6	56110	27900.764178608357	4.799082612373
6	56157	27913.222193988926	8.227767323236
6	56170	27916.696523375316	9.361907014506
6	56202	27947.545730616994	1.599721049026
6	56210	27949.406114942025	1.563658415062
6	56215	27963.78549581595	0.99633593699
6	56220	27964.772741364548	0.93412189465
6	56245	27971.604215741491	1.536442723476
6	56280	27992.67780120368	1.021704457607
6	56289	27993.790484938645	1.057320364844
6	56295	27996.099243867644	2.90687535306
6	56307	28007.170506469064	0.823109830823
6	56330	28012.067551185937	1.336580696316
6	56375	28032.393539755835	1.706969092545
6	56385	28034.790626257316	9.531872975162
6	56395	28037.079871662392	11.11688284856
6	56517	28095.82974632013	6.716004732535
6	56545	28109.543109703003	2.08545337975
6	56555	28113.999872845261	3.152264687268
6	56569	28124.111780370691	1.162732757574
6	56617	28135.047603580033	2.275424106513
6	56630	28138.95782628486	7.151843933735
6	56635	28140.645827726377	9.716462732718
6	56642	28142.120108293609	1.135835271981
6	56652	28144.227235108854	1.453677571947
6	56655	28145.076527141833	2.108541114254
6	56677	28154.277199370779	4.856633339639
6	56685	28156.152120149035	1.825690580983
6	56768	28179.518680639691	9.089429415202
6	56796	28185.888169173465	14.394492315457
6	56807	28188.801650534139	14.056852487171
6	56810	28189.775832154729	16.811025506172
6	56815	28195.24058235545	0.801730836648
6	56847	28217.752734241517	1.023625113815
6	56949	28250.485573451483	18.299318732568
6	56976	28255.34792385947	23.657240765782
6	56979	28256.407214639131	14.97330389656
6	56982	28257.338746711034	14.09110758958
6	56985	28258.252123106625	24.26251632043
6	57074	28304.272284295639	0.804543619603
6	57087	28307.172081399286	2.263792245265
6	57102	28312.732421879604	0.998064169753
6	57105	28313.622688988916	0.933667084392
6	57115	28328.020443217332	0.920522353332
6	57154	28340.915554701299	8.226892191133
6	57165	28344.139832829167	2.274217995203
6	57247	28377.412723049659	12.80639162708
6	57257	28381.889758607031	17.629638739931
6	57290	28389.5686114934	1.570587504245
6	57330	28416.452214938259	0.870010898169
6	57365	28437.205293306457	0.971636765823
6	57370	28443.312331522141	0.80626621386
6	57405	28468.241659990812	2.070247611421
6	57470	28499.848217330301	1.157158403844
6	57505	28532.00221405071	2.690367004779
6	57525	28543.137890777861	0.813925048523
6	57585	28575.363382519302	2.003318306582
6	57627	28609.478285053544	1.718009250817
6	57657	28616.411017954849	7.358305529591
6	57672	28619.713712185188	12.081304327166
6	57680	28621.477744587264	8.633686650515
6	57692	28624.53449240649	1.592965507003
6	57740	28641.761905347541	5.869952887673
6	57747	28643.037658867125	1.199308265932
6	57774	28650.678861207114	1.984325910382
6	57787	28653.641628854973	1.36071479018
6	57790	28654.627846249165	19.702093257555
6	57815	28665.677457899771	4.727535204326
6	57867	28684.247373297854	4.01720998529
6	57875	28687.01470352462	10.369338943634
6	57912	28713.322430620644	0.847591148876
6	57955	28725.03992610056	6.106443835741
6	58024	28760.037537319604	5.258822882494
6	58027	28760.980704498216	5.2335961553
6	58052	28765.960821671337	22.685165191605
6	58095	28782.799974875212	4.126063438176
6	58157	28810.303930570021	10.47561401259
6	58162	28811.263266135774	4.973901336544
6	58195	28824.167276478233	5.836969524087
6	58265	28867.914147294296	2.359570759154
6	58285	28882.003962124549	4.411899156351
6	58377	28909.095037315235	6.713822441113
6	58392	28912.057190325678	13.881321861651
6	58397	28913.135395810482	16.291434779582
6	58407	28915.544146026057	1.133469888661
6	58414	28916.611867006161	3.782808300015
6	58417	28917.528894646038	1.629474569199
6	58432	28920.069541800898	1.568605558246
6	58437	28921.198959498518	4.866967623671
6	58457	28927.813593136811	0.902874374203
6	58460	28928.7309441873	1.724838815016
6	58477	28936.842022953676	3.315116580111
6	58572	28989.259376206589	1.166877377685
6	58624	29010.953463545942	1.55566808681
6	58645	29015.455851026474	4.953625260366
6	58701	29034.154089786433	7.1189153689
6	58704	29035.116093972273	9.245752630474
6	58717	29037.782100430823	4.939226627553
6	58720	29038.94353432352	4.998969684631
6	58735	29050.266953103183	2.234775280177
6	58750	29066.41847587551	1.812511618625
6	58760	29072.008861402291	2.509086798719
6	58777	29079.378128797567	2.254570536116
6	58840	29116.523071368913	0.977079162467
6	58912	29141.884728561219	1.508305751606
6	58915	29142.995135045953	8.630251261854
6	58925	29148.918281347225	0.991889190767
6	58970	29164.441406729249	10.556690980508
6	59025	29188.589330046274	9.031896956142
6	59095	29251.721352794321	5.085692828903
6	59120	29274.603631022987	4.759947598885
6	59145	29286.688111511116	7.83887861582
6	59157	29290.473061150587	8.978683887286
6	59165	29292.586168097178	2.878140978487
6	59180	29300.154931016207	0.856073891278
6	59185	29302.914984623806	5.385506801629
6	59190	29306.775317937045	1.167396503128
6	59210	29317.563771593071	5.184435637567
6	59220	29320.708404560377	2.509418481986
6	59225	29322.134788676427	1.195287655201
6	59230	29326.372288076906	1.104509173986
6	59235	29328.014226213894	1.052757658716
6	59247	29333.621211873306	1.947805126207
6	59257	29336.4498681088	0.924593919143
6	59260	29337.564038583825	4.810049161052
6	59265	29343.992356876551	1.139446744043
6	59270	29348.426384901469	1.041558613908
6	59280	29354.22986630091	4.858764274618
6	59307	29365.175543713172	1.000258535054
6	59347	29404.831156046498	0.953472224809
6	59365	29430.134366210155	1.145556618832
6	59380	29442.860332626534	4.214487633501
6	59412	29460.561624951917	8.694252662066
6	59420	29462.990157391641	1.035505767539
6	59482	29490.020288099592	0.917040693574
6	59525	29530.059427987012	4.451241215523
6	59580	29552.565917020164	4.048989768527
6	59615	29574.861641709216	3.423794780834
6	59629	29578.902991512078	2.117308120773
6	59655	29587.461598504383	2.654173042346
6	59717	29623.443283736389	4.696381372451
6	59720	29624.435627480466	8.258470854884
6	59727	29634.976921343547	0.854201546311
6	59754	29648.629747433638	3.944113406019
6	59797	29670.894983381998	1.169773216732
6	59805	29672.789774203396	2.127547417651
6	59815	29677.384077237886	2.461585639476
6	59880	29711.837119224287	7.370143967076
6	59897	29722.904913697784	5.192831666766
6	59990	29751.965546823744	13.736846041794
6	60005	29773.437771360233	0.813890726678
6	60012	29779.944365323948	1.181322331354
6	60045	29806.841603688173	3.188421404438
6	60080	29820.232869857864	6.044381381714
6	60090	29824.505447609536	1.018917997275
6	60160	29868.488349065148	8.379262809854
6	60201	29884.56120637614	4.870460332922
6	60209	29886.602561321536	11.264140456083
6	60217	29888.836229059434	4.338302208469
6	60290	29909.055995359026	9.657854151138
6	60322	29920.344313942898	6.903189230007
6	60346	29925.335650425803	2.310110505599
6	60374	29931.670362734261	29.991229292585
6	60404	29937.5645658104	2.926963714374
6	60407	29938.404949991616	25.985461798134
6	60415	29941.668307201195	13.957179014099
6	60425	29954.00557159771	2.801629555355
6	60439	29983.922455083573	1.151515690982
6	60455	29989.352573417292	6.001852476871
6	60465	29997.560027791735	1.141139754932

