version 2
run Second_exit_5-13-20191017-13:43:57-1941
attr configname Second_exit_5
attr datetime 20191017-13:43:57
attr experiment Second_exit_5
attr inifile omnetpp.ini
attr iterationvars ""
attr iterationvarsf ""
attr measurement ""
attr network ResponseTimeNetwork
attr processid 1941
attr repetition 13
attr replication #13
attr resultdir results
attr runnumber 13
attr seedset 13
param **.Source.interArrivalTime exponential(5s)
param **.jobPriority bernoulli(0.6)
param **.PS.serviceTimeU1 "uniform(0.8s, 1.2s)"
param **.PS.serviceTimeU2 "uniform(1.8s, 2.2s)"
param **.SS1.serviceTime exponential(1s)
param **.SS2.serviceTime exponential(1.2s)
param **.PS.exitProbability bernoulli(0.5)

vector 0 ResponseTimeNetwork.SS1 queueLength:vector ETV
attr interpolationmode sample-hold
attr title "queue length, vector"
vector 1 ResponseTimeNetwork.SS2 queueLength:vector ETV
attr interpolationmode sample-hold
attr title "queue length, vector"
vector 2 ResponseTimeNetwork.QueueU1 queueLength:vector ETV
attr interpolationmode sample-hold
attr title "queue length, vector"
vector 3 ResponseTimeNetwork.QueueU2 queueLength:vector ETV
attr interpolationmode sample-hold
attr title "queue length, vector"
vector 4 ResponseTimeNetwork.sink lifeTimeU1:vector ETV
attr interpolationmode none
attr title "lifetime of arrived jobs U1, vector"
attr unit s
vector 5 ResponseTimeNetwork.sink lifeTime:vector ETV
attr interpolationmode none
attr title "lifetime of arrived jobs, vector"
attr unit s
vector 6 ResponseTimeNetwork.sink lifeTimeU2:vector ETV
attr interpolationmode none
attr title "lifetime of arrived jobs U2, vector"
attr unit s
0	0	0	0
0	60	55.353585669627	1
0	61	55.410574566507	0
0	70	57.512279179906	1
0	71	57.63081513675	0
0	75	58.451949762218	1
0	76	59.700809048988	0
0	210	120.659153300267	1
0	211	120.810618465525	0
0	224	122.51600536652	1
0	227	123.534207967148	2
0	231	124.897763232358	1
0	234	125.732375997068	0
0	237	125.778416862462	1
0	239	126.32875569575	0
0	312	152.59147185034	1
0	319	153.954265245349	0
0	743	390.775053003612	1
0	751	392.714700783594	0
0	979	458.216039872863	1
0	981	458.582293615717	0
0	987	460.136924382806	1
0	989	460.149355571537	0
0	1030	475.946952662111	1
0	1031	476.722937791139	0
0	1901	1019.767248659928	1
0	1903	1019.900952239134	0
0	2427	1239.648882857199	1
0	2431	1241.153754690226	0
0	3125	1648.383837056298	1
0	3126	1649.142073129553	0
0	3625	1841.675752162805	1
0	3626	1841.957658670676	0
0	3637	1844.162509117761	1
0	3644	1845.424952630493	0
0	3649	1846.424099148085	1
0	3653	1847.262432024031	0
0	3659	1848.685752286969	1
0	3661	1848.848908408521	0
0	3914	1981.801722573799	1
0	3916	1981.867493961398	0
0	3919	1982.867356588163	1
0	3921	1983.075634517994	0
0	3929	1984.896914120607	1
0	3931	1984.959894326119	0
0	3934	1985.733984533448	1
0	3939	1986.951987023263	0
0	3955	1990.735979285028	1
0	3956	1991.380069265911	0
0	4007	2010.262973827768	1
0	4009	2011.028327265849	0
0	4400	2179.598557247733	1
0	4401	2180.883004278029	0
0	4512	2210.521431216826	1
0	4516	2211.854047954142	0
0	5547	2697.024938932669	1
0	5556	2698.994279556573	0
0	5587	2705.452483261519	1
0	5594	2706.672551869796	0
0	5691	2725.348507708495	1
0	5693	2725.853597134122	0
0	6170	2933.837455320551	1
0	6171	2933.843880983282	0
0	6175	2934.924226224356	1
0	6176	2934.975865370232	0
0	6185	2936.876408988621	1
0	6186	2938.6133097238	0
0	6325	2981.084554117893	1
0	6330	2983.554191526276	2
0	6331	2985.287710036435	1
0	6334	2985.695431849108	0
0	6342	2987.397101746598	1
0	6344	2987.782711239303	0
0	6595	3080.057176584189	1
0	6596	3080.237446053136	0
0	6600	3081.342329225685	1
0	6601	3082.492834950915	0
0	6787	3181.810986407774	1
0	6789	3182.492684124394	0
0	7225	3410.159964252599	1
0	7226	3412.297068298425	0
0	7240	3415.697874130685	1
0	7241	3416.78404917524	0
0	7525	3583.448029908387	1
0	7526	3585.203945053175	0
0	7530	3586.107343158957	1
0	7534	3588.608080220163	0
0	7629	3636.295814631733	1
0	7635	3637.030691379638	0
0	8070	3872.429936388368	1
0	8071	3872.643133590137	0
0	8305	4018.937441726836	1
0	8306	4019.872646550424	0
0	8317	4021.626309742554	1
0	8319	4021.766724550814	0
0	8375	4035.175454252952	1
0	8376	4036.37149487701	0
0	8387	4038.490041693437	1
0	8389	4039.10827738803	0
0	8395	4040.428387154124	1
0	8396	4042.633722759014	0
0	8640	4200.970533474721	1
0	8641	4202.177198478646	0
0	8645	4203.273634592231	1
0	8646	4203.463465911293	0
0	8650	4204.286769772557	1
0	8651	4204.975298003416	0
0	9505	4632.978910226976	1
0	9506	4633.718812291597	0
0	9682	4688.916045161738	1
0	9686	4689.719257644569	0
0	9694	4691.202391682501	1
0	9696	4691.54505195564	0
0	10255	4904.08952371607	1
0	10261	4905.930330484235	0
0	10380	5008.431586770257	1
0	10381	5009.691499956139	0
0	11155	5454.732772522772	1
0	11156	5455.582752973686	0
0	11215	5515.034693779591	1
0	11216	5515.284796167284	0
0	11552	5671.630701734589	1
0	11554	5672.04959002412	0
0	11660	5692.506376466245	1
0	11662	5693.473226273004	0
0	11668	5694.535348732859	1
0	11675	5696.110623858446	0
0	11894	5768.663608898383	1
0	11896	5768.804154350604	0
0	12580	6168.210479136935	1
0	12581	6168.635348476179	0
0	12587	6169.507654803701	1
0	12589	6170.091468601781	0
0	12592	6170.355551278953	1
0	12599	6173.015681624517	0
0	13014	6387.646649262701	1
0	13016	6388.475440214076	0
0	13522	6675.0299982842	1
0	13524	6675.116371439865	0
0	14000	6926.884831927478	1
0	14004	6928.518148608365	0
0	14075	6959.216890958571	1
0	14076	6960.932423093463	0
0	14775	7408.855691351166	1
0	14776	7411.594462728946	0
0	15254	7636.633814344375	1
0	15256	7636.740033140575	0
0	15425	7750.075780419924	1
0	15426	7751.229292621948	0
0	15435	7753.406934501902	1
0	15436	7754.050447426034	0
0	15540	7822.411684451441	1
0	15541	7822.611647866704	0
0	15710	7936.678276756419	1
0	15711	7936.855724767236	0
0	17130	8731.080843431303	1
0	17131	8731.489551547261	0
0	17140	8733.355233921761	1
0	17156	8735.964407460412	0
0	18012	9203.719121960512	1
0	18021	9206.266112884299	0
0	18330	9439.775850090088	1
0	18331	9441.320070140282	0
0	18972	9718.927458121106	1
0	18974	9719.920516878736	0
0	18977	9720.053865173776	1
0	18980	9720.858043178488	2
0	18981	9721.217596280243	1
0	18984	9721.390756026944	0
0	21320	10933.286497342479	1
0	21324	10933.374981409834	0
0	21767	11225.761973423692	1
0	21769	11226.224764852979	0
0	21772	11226.907558347652	1
0	21774	11227.377737369265	0
0	22979	11763.272916197411	1
0	22981	11763.870213724107	0
0	23035	11779.534877309917	1
0	23036	11779.731391454871	0
0	23230	11908.412755879825	1
0	23231	11908.656656506219	0
0	23247	11911.67988972769	1
0	23249	11911.951834841099	0
0	23262	11914.761550036193	1
0	23264	11915.082575962842	0
0	23804	12188.854017660958	1
0	23813	12190.280117670138	0
0	23834	12194.540933699259	1
0	23841	12195.973168302034	0
0	24130	12300.877018472878	1
0	24134	12302.286550365899	0
0	24215	12354.536777875752	1
0	24216	12356.375634055232	0
0	24305	12399.861745625032	1
0	24306	12400.48241973952	0
0	24310	12401.67047833013	1
0	24311	12401.760537057371	0
0	25162	12833.184158743272	1
0	25166	12834.20589469715	0
0	25172	12835.396281291423	1
0	25174	12836.207208729241	0
0	25300	12887.292216519488	1
0	25301	12887.328436612503	0
0	25715	13123.170033269794	1
0	25716	13123.432862583336	0
0	25752	13130.766726865594	1
0	25754	13130.815651896757	0
0	26247	13363.897929134821	1
0	26249	13363.942919160667	0
0	26457	13424.005420209975	1
0	26459	13424.26674458724	0
0	26502	13435.012352450202	1
0	26506	13435.749234819175	0
0	26622	13478.087127466375	1
0	26626	13479.649352925744	0
0	26813	13553.023913922842	1
0	26815	13553.102882689479	0
0	26831	13556.801447218034	1
0	26833	13557.550805102271	0
0	26836	13557.915308706864	1
0	26841	13559.061157458078	0
0	26856	13562.086719912506	1
0	26861	13563.404792677484	0
0	27102	13636.324537814296	1
0	27104	13636.405457923912	0
0	27110	13638.444959638901	1
0	27114	13641.605757788831	0
0	27590	13977.585860278526	1
0	27591	13978.364108203067	0
0	27737	14032.505057125125	1
0	27751	14035.550930675788	0
0	27825	14057.322545041984	1
0	27826	14058.754477617745	0
0	28360	14353.673654037188	1
0	28361	14356.474427129927	0
0	28372	14358.422735632437	1
0	28374	14358.549774060782	0
0	28377	14359.545869668147	1
0	28379	14360.131369023942	0
0	28382	14360.377752676925	1
0	28384	14360.94310662477	0
0	28755	14584.983981833608	1
0	28759	14585.755369064645	0
0	28765	14586.804518733741	1
0	28766	14587.97309961207	0
0	29682	15105.764167336585	1
0	29686	15107.812219358348	0
0	29827	15189.255517019127	1
0	29829	15189.409450244526	0
0	29832	15190.133166933507	1
0	29834	15190.235846037914	0
0	30010	15259.082085381906	1
0	30014	15259.537500837634	0
0	30235	15386.753394868953	1
0	30236	15387.672992045124	0
0	30282	15412.872103243936	1
0	30289	15414.153427867197	0
0	30567	15520.506969223452	1
0	30569	15520.561583386522	0
0	30597	15526.472326579969	1
0	30599	15526.600519154561	0
0	31937	16233.275415189148	1
0	31939	16233.423771509945	0
0	31942	16234.224766643395	1
0	31944	16234.578211446567	0
0	31947	16235.081277364542	1
0	31951	16237.303968784147	0
0	32439	16453.676809117392	1
0	32446	16455.682713700441	0
0	33035	16711.229822184189	1
0	33036	16712.240446890338	0
0	33042	16713.144766803837	1
0	33044	16713.358373237927	0
0	33169	16765.305773756502	1
0	33171	16765.83330601514	0
0	33177	16767.278245571663	1
0	33179	16767.875712764253	0
0	35187	17856.856909856252	1
0	35189	17857.130132241661	0
0	35197	17858.897700301982	1
0	35201	17861.327156757497	0
0	35205	17862.416998934773	1
0	35206	17863.721421112029	0
0	35624	18056.324937635129	1
0	35626	18057.002189097106	0
0	36747	18674.755546362552	1
0	36751	18677.006381860983	0
0	36927	18730.411317445055	1
0	36931	18731.183240897763	0
0	36934	18731.255069568843	1
0	36936	18731.863221794528	0
0	36941	18732.404543120597	1
0	36943	18733.15040492887	0
0	36959	18736.528705454708	1
0	36961	18736.896560587785	0
0	37279	18960.910329481119	1
0	37281	18961.480397407487	0
0	37375	18982.643180334768	1
0	37376	18983.684082630916	0
0	38134	19514.093950590221	1
0	38136	19514.487891871453	0
0	38147	19516.844016881483	1
0	38151	19518.380219254874	0
0	38625	19760.750420381883	1
0	38629	19761.743515147784	0
0	38762	19834.565877660145	1
0	38766	19836.171524194891	0
0	39075	19998.700625632242	1
0	39076	19999.699189460615	0
0	39437	20169.529039621281	1
0	39439	20170.072082904156	0
0	40252	20525.905726978124	1
0	40256	20527.08958846036	0
0	40372	20571.140262113628	1
0	40376	20572.270282788267	0
0	40735	20721.705393717696	1
0	40736	20721.967486703003	0
0	40785	20736.680355344785	1
0	40786	20736.833421952403	0
0	41337	21025.861172298005	1
0	41339	21025.948220540333	0
0	41780	21265.54047159125	1
0	41781	21265.858431380951	0
0	41827	21279.168445404053	1
0	41829	21279.54831720831	0
0	41832	21280.173745179542	1
0	41836	21285.07743285432	0
0	41840	21285.889333419814	1
0	41851	21288.646118525644	0
0	41857	21290.126637626297	1
0	41859	21290.397085629068	0
0	42390	21530.636117067992	1
0	42391	21531.378153092116	0
0	42397	21532.382162118405	1
0	42400	21533.580909710731	2
0	42401	21533.701917435557	1
0	42404	21534.178488630713	0
0	42687	21678.430878918172	1
0	42689	21679.166953487518	0
0	42700	21681.252140678951	1
0	42701	21681.777784998881	0
0	44590	22638.047895745033	1
0	44591	22638.139062850511	0
0	44595	22639.316160740385	1
0	44596	22641.232128266045	0
0	44707	22716.453021600276	1
0	44709	22716.64518477441	0
0	44915	22815.131403842058	1
0	44916	22815.905576992709	0
0	44920	22816.837073653772	1
0	44921	22817.388493091012	0
0	44932	22819.603769650175	1
0	44934	22820.166500032749	0
0	45664	23111.610085489741	1
0	45666	23111.806414780237	0
0	45705	23127.417154121338	1
0	45709	23127.868769385157	0
0	45932	23204.302392669481	1
0	45934	23204.331925580198	0
0	45947	23207.508540161319	1
0	45949	23207.645291110236	0
0	45964	23210.467584393166	1
0	45966	23210.881329090267	0
0	46390	23388.831751704546	1
0	46391	23388.913033737788	0
0	46420	23413.799496796298	1
0	46421	23414.704334610951	0
0	46515	23437.113512995659	1
0	46516	23438.281143718261	0
0	46611	23469.411527624425	1
0	46613	23470.373895133083	0
0	46845	23621.414853344907	1
0	46846	23621.440793776777	0
0	48470	24540.281772028941	1
0	48471	24541.443967364689	0
0	48825	24712.339005663213	1
0	48826	24712.359586459914	0
0	49235	24919.677207710025	1
0	49236	24920.050936191479	0
0	49350	25004.031966026952	1
0	49356	25008.247696481439	0
0	49389	25014.113359913583	1
0	49391	25014.115029282649	0
0	49480	25082.019936211871	1
0	49489	25083.836428472652	0
0	50317	25504.300809011404	1
0	50319	25504.580448957932	0
0	50947	25803.271168568059	1
0	50949	25803.51519343393	0
0	50987	25813.327950149531	1
0	50992	25814.48157623153	2
0	50994	25814.930490378709	1
0	50996	25815.14058141695	0
0	51001	25815.387194721809	1
0	51003	25815.560183463861	0
0	51042	25824.326776286063	1
0	51044	25825.266714549974	0
0	51216	25883.598438673045	1
0	51218	25884.090478785251	0
0	51244	25890.335012549486	1
0	51248	25891.12889112082	0
0	51430	25999.195950996664	1
0	51431	25999.857921812646	0
0	51490	26022.454738237704	1
0	51491	26022.700899909492	0
0	51925	26240.173235776967	1
0	51926	26240.6980429215	0
0	51930	26241.796033343265	1
0	51931	26243.033335775799	0
0	52250	26384.639801729847	1
0	52251	26385.010996568873	0
0	52270	26388.704114859663	1
0	52271	26389.735032691824	0
0	52277	26390.892434767837	1
0	52279	26390.892657252867	0
0	52957	26698.780635844864	1
0	52960	26699.666665112082	2
0	52961	26699.812690951162	1
0	52964	26699.973443565995	0
0	52982	26703.937563044344	1
0	52984	26704.230099031571	0
0	52992	26706.107165486877	1
0	52994	26706.139389363481	0
0	53235	26834.349249993235	1
0	53236	26834.38635739348	0
0	53897	27176.337853634323	1
0	53904	27177.552353100516	0
0	53910	27179.236703463304	1
0	53911	27179.896097471997	0
0	54829	27674.036582819715	1
0	54834	27674.974873184476	2
0	54836	27675.097563118665	1
0	54838	27675.132663102999	0
0	55335	28030.345656151591	1
0	55339	28031.248068029595	0
0	55342	28031.917915419619	1
0	55347	28032.739953546263	2
0	55349	28032.866975772202	1
0	55351	28033.501278266439	0
0	55354	28033.756409598551	1
0	55356	28033.908031893997	0
0	55617	28161.508314512572	1
0	55621	28162.572753948832	0
0	55674	28199.952288276355	1
0	55676	28200.369639039009	0
0	55836	28294.424046895777	1
0	55838	28294.639075279679	0
0	56300	28516.3501872745	1
0	56309	28519.226687783722	0
0	56420	28585.576091329703	1
0	56421	28585.986232486683	0
0	56812	28806.682405607998	1
0	56814	28807.187338708802	0
0	56870	28826.835969698119	1
0	56871	28827.06478425641	0
0	56880	28829.163262455207	1
0	56881	28829.590117211072	0
0	56892	28831.57303173597	1
0	56894	28831.881331493001	0
0	56897	28832.520669799941	1
0	56899	28832.600548502416	0
0	57035	28884.129695573853	1
0	57036	28885.353974185193	0
0	57235	29099.680222603821	1
0	57236	29100.037033981029	0
0	57240	29100.868553242311	1
0	57241	29101.032665571111	0
0	57245	29101.934665516584	1
0	57246	29102.129698544181	0
0	57499	29214.448502510724	1
0	57501	29215.018233536959	0
0	57504	29215.377172447586	1
0	57509	29216.94447668878	0
0	57520	29219.248472516178	1
0	57521	29220.763337957756	0
0	57525	29221.800965769672	1
0	57526	29222.139545437093	0
0	58252	29573.628468276712	1
0	58254	29573.751565245214	0
0	58346	29597.474291157559	1
0	58348	29598.488464952631	0
0	58650	29778.566001550447	1
0	58651	29779.060209122589	0
0	58847	29871.483341270798	1
0	58849	29872.389470642903	0
0	58860	29874.547457892933	1
0	58861	29874.790188186643	0
0	58937	29932.069736351834	1
0	58941	29933.471518600385	0
0	58947	29934.325345395997	1
0	58956	29936.526611601184	0
0	58960	29937.581570436056	1
0	58961	29937.782232917419	0
0	59057	29979.539883558142	1
0	59059	29980.309480602084	0
1	0	0	0
1	820	407.960782124655	1
1	821	408.133621988363	0
1	1100	490.79501100443	1
1	1104	491.206006611035	0
1	1857	1012.192631184098	1
1	1859	1012.819615318373	0
1	1867	1014.067708279167	1
1	1876	1015.867760451665	0
1	1879	1016.064000220385	1
1	1890	1017.265257301794	0
1	2255	1154.190825457903	1
1	2256	1154.583878063893	0
1	2560	1347.461805646268	1
1	2564	1348.214463418802	0
1	2900	1515.844654677032	1
1	2901	1516.661080243476	0
1	3240	1694.137529951893	1
1	3241	1694.617896223058	0
1	3355	1735.331904845931	1
1	3361	1736.864379755931	0
1	3367	1737.744036120141	1
1	3371	1740.902754422812	0
1	3380	1742.835296351997	1
1	3381	1742.866399600257	0
1	3480	1770.940066931131	1
1	3486	1773.290635002459	0
1	4560	2236.028471119703	1
1	4561	2236.68648778628	0
1	5055	2495.314917197597	1
1	5056	2495.37887625779	0
1	5275	2578.189025314433	1
1	5276	2581.703642543961	0
1	6235	2948.345124164232	1
1	6236	2950.016004779847	0
1	6475	3039.840683584611	1
1	6476	3040.024709310525	0
1	6495	3044.059266783906	1
1	6496	3044.165291345853	0
1	6805	3186.015190122763	1
1	6809	3187.734098277707	0
1	6817	3189.510313063029	1
1	6831	3193.46408547017	0
1	7455	3516.394928914162	1
1	7456	3519.570224122018	0
1	8025	3861.39530713507	1
1	8026	3861.423496831844	0
1	8040	3864.67396501852	1
1	8044	3866.264806912377	0
1	8062	3870.33857628326	1
1	8076	3873.413017365771	0
1	8490	4109.580873637343	1
1	8491	4109.993469136443	0
1	9575	4649.006389655255	1
1	9576	4649.504774500665	0
1	9580	4650.442487373532	1
1	9581	4650.678079081108	0
1	10844	5249.547125780448	1
1	10846	5250.447108921935	0
1	10852	5251.413173905346	1
1	10854	5251.501756257691	0
1	11717	5704.814285454431	1
1	11719	5705.250073222972	0
1	11775	5716.95713893333	1
1	11776	5721.588528110804	0
1	11785	5723.501167294355	1
1	11786	5724.124906078445	0
1	11790	5725.288125035538	1
1	11791	5725.678469379266	0
1	12517	6139.948891830753	1
1	12521	6141.847990768618	0
1	12530	6143.689649710554	1
1	12531	6144.327544741054	0
1	13102	6411.362556325567	1
1	13104	6411.41493507169	0
1	13480	6657.917481524821	1
1	13484	6666.933761897343	0
1	13730	6821.189360574669	1
1	13731	6823.389563306848	0
1	13735	6824.574003441407	1
1	13741	6828.18099049906	0
1	13812	6845.529867037033	1
1	13814	6845.715714968757	0
1	13820	6847.563275966533	1
1	13821	6847.809344608633	0
1	14315	7080.243505722895	1
1	14316	7081.144236022034	0
1	14505	7166.986369428554	1
1	14506	7169.381841749686	0
1	14575	7254.217209541516	1
1	14576	7254.438820036022	0
1	14582	7255.240963216951	1
1	14586	7260.002500000237	0
1	15840	7993.530992398202	1
1	15841	7995.142836260398	0
1	15845	7996.188283701588	1
1	15846	7996.21590323658	0
1	16317	8266.602233813741	1
1	16321	8268.82778315115	0
1	16335	8272.011618362173	1
1	16336	8272.198819902585	0
1	17370	8823.644374708583	1
1	17371	8824.129557183301	0
1	17375	8825.253037074497	1
1	17376	8827.287146877812	0
1	17527	8930.500357082595	1
1	17529	8931.560698777665	0
1	17540	8933.649449339711	1
1	17541	8933.900106419464	0
1	17550	8935.912508545005	1
1	17551	8935.930774944636	0
1	17950	9179.159454715109	1
1	17956	9180.901717047186	0
1	18040	9210.610282889722	1
1	18041	9211.081406353031	0
1	18045	9212.168205668301	1
1	18049	9213.140547452057	0
1	18430	9462.098328460525	1
1	18431	9462.782919651621	0
1	18730	9613.145505519526	1
1	18731	9614.588618772733	0
1	19095	9763.21771554508	1
1	19101	9766.187244027366	0
1	19755	10076.275280072378	1
1	19756	10076.385629040373	0
1	19890	10149.83064436916	1
1	19891	10150.540135932184	0
1	20035	10243.339688735575	1
1	20036	10246.007474337051	0
1	20042	10246.935576382092	1
1	20044	10247.012935153032	0
1	20586	10536.0743351513	1
1	20589	10536.896419741906	2
1	20594	10537.975989537447	3
1	20596	10538.145233137871	2
1	20605	10541.268048640381	3
1	20606	10542.572778002698	2
1	20611	10543.104666199125	1
1	20621	10544.789515708138	0
1	21854	11250.863466293856	1
1	21856	11251.04175131191	0
1	22572	11604.744385763378	1
1	22574	11605.000077544958	0
1	22805	11700.503327242426	1
1	22806	11700.524326221194	0
1	22832	11708.345356145166	1
1	22834	11708.988339020642	0
1	24080	12289.049773298126	1
1	24081	12289.348303378956	0
1	24547	12534.004201935646	1
1	24549	12534.488649355281	0
1	24552	12534.884159949277	1
1	24556	12535.94452966704	0
1	24575	12540.14634855763	1
1	24576	12540.399288509995	0
1	26392	13409.078643200909	1
1	26396	13409.831541509939	0
1	26399	13409.91431726328	1
1	26405	13411.826806756378	2
1	26406	13413.935748213313	1
1	26411	13415.082796295085	0
1	26432	13418.909216173929	1
1	26436	13420.31494622868	0
1	26625	13478.964348403053	1
1	26636	13481.635008073997	0
1	26915	13574.823601228215	1
1	26916	13575.741585992743	0
1	27615	13985.031481148026	1
1	27616	13985.643894529934	0
1	28190	14285.757522233394	1
1	28191	14287.524595766515	0
1	28580	14460.714935336693	1
1	28581	14460.742365994258	0
1	29590	15058.565752873859	1
1	29591	15058.913082480278	0
1	29595	15059.89311481401	1
1	29596	15062.943081004113	0
1	29600	15063.766978111059	1
1	29601	15065.31020848151	0
1	30935	15669.473789890031	1
1	30939	15670.875892379518	0
1	31570	16052.616923611969	1
1	31571	16053.920250367256	0
1	31577	16054.741690047713	1
1	31579	16055.156366386856	0
1	31732	16127.600712040793	1
1	31734	16127.693002514303	0
1	32490	16480.982866767102	1
1	32491	16481.564858268907	0
1	33262	16784.880118590312	1
1	33265	16786.008993826805	2
1	33266	16787.802830112754	1
1	33271	16789.657689012065	0
1	33445	16871.271751745561	1
1	33449	16872.168601497181	0
1	34445	17471.942596433454	1
1	34446	17472.72342381663	0
1	34855	17689.67294808854	1
1	34856	17690.47582435037	0
1	35677	18068.253991289651	1
1	35681	18069.422350442266	0
1	35685	18070.297612193735	1
1	35686	18071.273524272102	0
1	35935	18199.083879870908	1
1	35936	18200.706986928662	0
1	35947	18202.787823595596	1
1	35951	18204.793560430881	0
1	35955	18205.974355233189	1
1	35961	18210.36139807147	0
1	36690	18634.220583936914	1
1	36691	18636.431809433099	0
1	36695	18637.283224728812	1
1	36696	18639.119053330804	0
1	37749	19330.784209751941	1
1	37751	19330.815717964291	0
1	37754	19331.892578700602	1
1	37756	19332.030155468098	0
1	38067	19499.881175552667	1
1	38069	19500.011145181239	0
1	38077	19501.884928826415	1
1	38079	19501.897493099041	0
1	38100	19506.775126151261	1
1	38104	19507.968130831639	0
1	38110	19509.463987235521	1
1	38114	19510.229725040637	0
1	38240	19553.674414194972	1
1	38241	19557.236241410945	0
1	38264	19561.390552587238	1
1	38266	19561.610966780387	0
1	39152	20020.555472500171	1
1	39156	20022.778707792445	0
1	39167	20024.555833674616	1
1	39169	20024.90790835239	0
1	39175	20026.460888657833	1
1	39176	20026.529329546377	0
1	39950	20409.312969167389	1
1	39951	20409.985153246305	0
1	39980	20416.590506236167	1
1	39981	20416.630671638132	0
1	40060	20451.391777332997	1
1	40061	20451.849438421912	0
1	40130	20477.91639012857	1
1	40134	20478.09543319284	0
1	40195	20515.049028024483	1
1	40196	20515.392060631976	0
1	40202	20516.215815517582	1
1	40209	20517.353355011137	0
1	40875	20762.119032626431	1
1	40876	20763.46986150372	0
1	41122	20932.450690286593	1
1	41125	20933.591158193988	2
1	41126	20934.756428190281	1
1	41131	20936.249088406432	0
1	42025	21375.894578574245	1
1	42026	21376.809691061134	0
1	42290	21485.265110333091	1
1	42291	21488.83750890746	0
1	42310	21495.305698774463	1
1	42311	21495.921494510225	0
1	42315	21496.925111266798	1
1	42316	21496.961419660964	0
1	42327	21499.098835119692	1
1	42329	21499.166852768371	0
1	42337	21501.263325676316	1
1	42339	21501.676849837495	0
1	42760	21707.375378221486	1
1	42761	21707.482878133649	0
1	42765	21708.457856629876	1
1	42766	21709.372881761348	0
1	43182	21962.294694720505	1
1	43184	21962.908167470178	0
1	44540	22621.748555505576	1
1	44541	22622.738711831259	0
1	46087	23251.313915555182	1
1	46089	23251.925808845922	0
1	46455	23421.839253876795	1
1	46469	23425.065476366376	0
1	46485	23429.307420010694	1
1	46486	23430.071643436566	0
1	47595	24056.442400243261	1
1	47599	24057.691763939475	0
1	47622	24061.895015713709	1
1	47626	24063.243859590121	0
1	47632	24064.435420570054	1
1	47635	24065.44041393399	2
1	47636	24066.625878792048	1
1	47639	24066.879356565972	0
1	47810	24156.86546378694	1
1	47811	24157.001026884905	0
1	48970	24788.144857753422	1
1	48974	24789.029565880047	0
1	50180	25464.560928713012	1
1	50185	25467.471722791343	2
1	50186	25468.393691277376	1
1	50189	25468.50129769773	0
1	50250	25487.1897079966	1
1	50251	25487.258389363846	0
1	50625	25682.387588877093	1
1	50629	25682.553576956982	0
1	50637	25684.37016899244	1
1	50644	25685.875292015149	0
1	51107	25853.537113047838	1
1	51109	25854.394882116675	0
1	51660	26110.858216132326	1
1	51661	26112.135830035801	0
1	51665	26113.221478347848	1
1	51666	26114.460490720901	0
1	51670	26115.361647257391	1
1	51674	26116.822271829032	0
1	51810	26190.380299953383	1
1	51811	26195.151753801023	0
1	51870	26224.585907039294	1
1	51871	26224.891228070558	0
1	52195	26347.569148139718	1
1	52196	26348.053778294076	0
1	53807	27147.41216720371	1
1	53809	27147.511163478304	0
1	54320	27465.202855580655	1
1	54326	27466.883253899632	0
1	54330	27467.819204646112	1
1	54331	27467.924443160789	0
1	54745	27655.428481073929	1
1	54746	27656.119343531629	0
1	55000	27808.399716402836	1
1	55001	27808.620923457806	0
1	55562	28148.990520442756	1
1	55564	28149.313917883054	0
1	55590	28155.336238762562	1
1	55591	28156.657184767253	0
1	55787	28285.907279653412	1
1	55794	28286.972142020643	2
1	55796	28287.202315199777	1
1	55806	28288.989093322738	0
1	55824	28292.515138546222	1
1	55826	28292.582789175248	0
1	56635	28702.489421833618	1
1	56636	28705.639314221548	0
1	57382	29161.678549386732	1
1	57386	29162.808062149533	0
1	57677	29304.52446289019	1
1	57679	29304.815259997094	0
1	57687	29306.454335588434	1
1	57689	29306.90750887547	0
1	57810	29354.521563488629	1
1	57811	29354.576683943575	0
1	57840	29360.302041448044	1
1	57841	29360.457041846358	0
1	58070	29495.347568171964	1
1	58071	29496.835438834863	0
1	58075	29497.964617421279	1
1	58076	29499.265533924253	0
2	0	0	0
2	30	37.602320743745	1
2	31	38.303712712334	0
2	55	53.397395787406	1
2	56	54.186476716162	0
2	65	55.442998244787	1
2	66	56.46034757954	0
2	107	71.898128880447	1
2	108	72.205608624447	0
2	112	72.529949636622	1
2	113	73.252853909176	0
2	170	107.239960213385	1
2	171	107.630238533834	0
2	175	108.367256766652	1
2	176	108.610362284699	0
2	180	108.613277187154	1
2	181	109.486730307037	0
2	190	111.727865799228	1
2	191	111.770893015594	0
2	205	119.550310935106	1
2	206	119.699628432397	0
2	215	120.835027085065	1
2	217	120.993279753946	2
2	219	121.039072896452	3
2	220	121.705170531702	2
2	223	122.51600536652	1
2	226	123.534207967148	0
2	235	125.732375997068	1
2	236	125.778416862462	0
2	240	126.32875569575	1
2	242	126.903440985062	2
2	243	126.971306469787	1
2	246	127.907410790987	0
2	260	138.929257452212	1
2	261	139.782178511699	0
2	270	141.184804027142	1
2	275	141.786070192922	0
2	282	143.309733619884	1
2	283	143.635448101945	0
2	305	150.544690497801	1
2	306	151.491677571674	0
2	310	151.682947347171	1
2	311	152.59147185034	0
2	315	152.860181262526	1
2	316	153.441176135399	0
2	320	153.954265245349	1
2	325	154.352959956535	0
2	329	154.398386651305	1
2	330	155.176148253986	0
2	334	155.674926131787	1
2	335	156.162054157191	0
2	425	185.819573914676	1
2	426	185.934823488859	0
2	435	189.320713207756	1
2	436	189.332792510077	0
2	485	237.396179755395	1
2	486	238.286646827148	0
2	545	291.438283585976	1
2	546	292.553345596791	0
2	575	309.4506423122	1
2	576	309.740886011125	0
2	585	311.175170317873	1
2	586	312.286172065316	0
2	605	339.757689453079	1
2	606	339.785072665591	0
2	685	379.294892686889	1
2	686	380.170106112765	0
2	697	381.463212713434	1
2	699	381.537698470106	2
2	701	382.35901200321	3
2	702	382.409594129673	2
2	708	383.128087662252	3
2	709	383.33656821744	2
2	713	383.365628423771	3
2	715	383.42175355607	4
2	716	384.413717845357	3
2	719	385.523728563818	2
2	723	385.64548932013	3
2	725	385.674034262417	4
2	726	386.636679275236	3
2	730	386.702019587107	4
2	731	387.683461157507	3
2	735	387.763880585953	4
2	736	388.870084937843	3
2	739	389.756785310893	2
2	742	390.775053003612	1
2	745	391.636156058214	0
2	752	392.714700783594	1
2	754	392.78546105816	2
2	755	393.656177823148	1
2	761	394.4420319264	2
2	762	394.541424366641	1
2	765	395.692116330094	0
2	769	396.230590378151	1
2	770	396.784259190033	0
2	790	401.366578486645	1
2	793	402.412356689939	0
2	840	411.686557988551	1
2	841	412.423460447668	0
2	860	416.906364938841	1
2	861	417.281098781851	0
2	870	418.502240497211	1
2	871	419.228715561562	0
2	910	436.501348104062	1
2	911	437.484982032848	0
2	917	438.146634246156	1
2	918	438.472662662582	0
2	945	451.841783730841	1
2	947	452.15274812396	2
2	949	452.329474344927	3
2	950	452.65929238493	2
2	953	453.51087446012	1
2	957	454.135439608182	2
2	959	454.368163013884	3
2	960	454.580406756088	2
2	963	455.610202881828	1
2	967	456.399134359481	2
2	968	456.562504178513	1
2	972	456.570816949779	2
2	975	457.371063247644	1
2	978	458.216039872863	0
2	982	458.582293615717	1
2	983	459.178370564752	0
2	990	460.149355571537	1
2	991	460.995042291325	0
2	995	461.643147781164	1
2	996	462.072427704227	0
2	1000	462.2068689205	1
2	1001	462.92882940792	0
2	1025	474.939618192884	1
2	1026	475.144904026163	0
2	1035	477.207995376136	1
2	1036	477.626963403445	0
2	1040	478.445143781289	1
2	1041	478.646780443095	0
2	1045	479.301619267752	1
2	1046	479.653665001408	0
2	1055	481.143768045508	1
2	1057	481.317094207537	2
2	1060	481.66677428465	1
2	1066	482.182275775741	2
2	1067	482.475544266399	1
2	1070	483.363898494836	0
2	1074	483.573941135444	1
2	1075	484.553148120452	0
2	1082	486.654233955827	1
2	1083	486.778139474519	0
2	1130	512.473642255745	1
2	1132	512.526977299896	2
2	1133	512.943684074917	1
2	1138	513.993971356546	0
2	1155	525.665745559092	1
2	1156	526.711892414067	0
2	1220	578.85517069488	1
2	1221	579.259944719389	0
2	1315	628.261916446862	1
2	1316	628.620717724222	0
2	1330	642.785001067265	1
2	1333	643.634986055842	0
2	1355	656.695510137882	1
2	1356	657.255249345136	0
2	1370	660.740879326055	1
2	1371	661.136429758322	0
2	1380	662.556970321796	1
2	1381	663.199506787647	0
2	1400	704.04740904319	1
2	1401	704.667270418748	0
2	1405	705.255067584228	1
2	1406	705.541352257065	0
2	1415	707.361109575249	1
2	1416	707.817440332777	0
2	1435	744.054872038548	1
2	1437	744.369294942293	2
2	1438	744.61216108885	1
2	1441	745.481814425833	0
2	1450	747.942560514149	1
2	1451	748.284538738442	0
2	1455	748.326292239243	1
2	1456	749.377074919467	0
2	1490	781.668230086183	1
2	1491	782.251156004237	0
2	1517	787.625969436534	1
2	1518	787.653466713232	0
2	1525	789.238176878561	1
2	1526	789.507540226252	0
2	1565	805.779413271807	1
2	1566	806.595797427327	0
2	1575	807.536361574614	1
2	1576	808.337215514996	0
2	1620	867.031482923956	1
2	1621	867.412403689788	0
2	1625	867.493831963131	1
2	1626	868.477759177235	0
2	1665	898.582638281277	1
2	1666	898.885916274414	0
2	1710	927.636527622835	1
2	1711	927.833620598505	0
2	1715	927.878153203052	1
2	1716	928.687894009392	0
2	1725	931.571358423906	1
2	1726	932.035319166711	0
2	1750	955.216202524919	1
2	1751	956.012697030483	0
2	1780	979.743952056025	1
2	1781	980.231078631119	0
2	1865	1014.059849788041	1
2	1866	1014.067708279167	0
2	1875	1015.700549191676	1
2	1878	1016.064000220385	0
2	1882	1016.292327586503	1
2	1884	1016.866351928885	2
2	1885	1016.962229325783	1
2	1889	1017.221419729703	2
2	1894	1017.830241516393	1
2	1897	1018.662244134557	0
2	1904	1019.900952239134	1
2	1906	1020.597373758642	2
2	1907	1020.783825263821	1
2	1912	1021.663989587009	0
2	1916	1021.921970018259	1
2	1917	1022.732561475944	0
2	1921	1023.448777647685	1
2	1922	1023.73138602541	0
2	1929	1025.575850691773	1
2	1930	1025.816613463286	0
2	1937	1027.322050059634	1
2	1938	1027.717527561981	0
2	1942	1028.396511892042	1
2	1943	1028.877308015406	0
2	1947	1028.908079070416	1
2	1948	1029.756110513743	0
2	1952	1030.253218856189	1
2	1953	1030.666358481415	0
2	1957	1030.944179990162	1
2	1958	1031.566206929062	0
2	1962	1032.261821615813	1
2	1963	1032.622987600483	0
2	1980	1050.899079864186	1
2	1981	1051.390047433307	0
2	1985	1051.707179572649	1
2	1986	1052.29272332842	0
2	1990	1052.601548170619	1
2	1991	1053.179605034632	0
2	1995	1053.368424885249	1
2	1996	1054.012422933975	0
2	2005	1056.495021235122	1
2	2006	1056.887618980052	0
2	2017	1058.102947118908	1
2	2018	1058.577249333503	0
2	2062	1073.720963955615	1
2	2063	1074.500825700148	0
2	2082	1079.073414544123	1
2	2083	1079.289078287293	0
2	2140	1111.076496713484	1
2	2141	1111.945311037894	0
2	2220	1144.123954543116	1
2	2223	1144.990556619277	0
2	2230	1146.441349682451	1
2	2231	1147.170898008959	0
2	2240	1149.911821893254	1
2	2243	1150.427812727769	0
2	2305	1168.102325542851	1
2	2306	1168.736428046957	0
2	2345	1197.869249332587	1
2	2346	1198.56145203922	0
2	2360	1200.733486554885	1
2	2361	1201.500437351764	0
2	2400	1232.122380074778	1
2	2401	1232.336912113581	0
2	2410	1233.723472932972	1
2	2411	1234.310300826248	0
2	2425	1239.242447578803	1
2	2426	1239.648882857199	0
2	2572	1349.010791385207	1
2	2573	1349.725094549785	0
2	2580	1351.21056588829	1
2	2581	1351.977300448863	0
2	2615	1383.938080347111	1
2	2616	1384.241877620944	0
2	2635	1393.412946264672	1
2	2636	1394.343267918669	0
2	2675	1419.550461663126	1
2	2676	1419.739506387627	0
2	2680	1419.97007129578	1
2	2683	1420.825389063834	0
2	2687	1421.730712986565	1
2	2688	1421.814170437223	0
2	2770	1464.303210890472	1
2	2771	1464.955659191767	0
2	2780	1466.219833076568	1
2	2781	1466.856572046866	0
2	2790	1468.397252000751	1
2	2791	1469.0052174759	0
2	2800	1472.937824197412	1
2	2801	1473.971941216666	0
2	2830	1487.678266512399	1
2	2831	1488.147922953383	0
2	2835	1488.355329609739	1
2	2836	1489.022659253401	0
2	2845	1490.946805029075	1
2	2846	1491.11727129489	0
2	3025	1589.562161114866	1
2	3026	1590.025968545385	0
2	3030	1590.192357675352	1
2	3033	1591.003342480853	0
2	3085	1618.714709811855	1
2	3086	1618.993762350009	0
2	3120	1646.813229480317	1
2	3121	1647.531754342698	0
2	3130	1649.477907339565	1
2	3131	1650.033307102013	0
2	3175	1671.74034650075	1
2	3176	1672.612767215471	0
2	3180	1673.464826524442	1
2	3181	1673.530188436925	0
2	3187	1673.590724745816	1
2	3188	1674.70479430177	0
2	3195	1675.886319877693	1
2	3196	1676.716003182649	0
2	3290	1713.461646345901	1
2	3291	1713.950200146063	0
2	3310	1718.982266876537	1
2	3311	1720.008242595263	0
2	3330	1729.008429688469	1
2	3331	1729.03503959412	0
2	3345	1732.6645353242	1
2	3346	1733.354822267	0
2	3365	1737.62338440043	1
2	3366	1737.744036120141	0
2	3400	1747.585997416905	1
2	3401	1748.256823097086	0
2	3405	1749.099455294481	1
2	3406	1749.318615189018	0
2	3410	1750.092227539619	1
2	3411	1750.415086185197	0
2	3415	1750.99387951676	1
2	3416	1751.613051246582	0
2	3420	1751.678764304386	1
2	3423	1752.790053764182	0
2	3430	1754.157721926209	1
2	3431	1754.749981976125	0
2	3495	1775.197932634579	1
2	3496	1775.407121737263	0
2	3535	1790.800129745179	1
2	3536	1791.714047121424	0
2	3595	1835.285488384339	1
2	3596	1835.574517844601	0
2	3600	1835.942072834346	1
2	3601	1836.529957289791	0
2	3605	1836.800796831737	1
2	3606	1837.507643634158	0
2	3610	1837.894403407068	1
2	3613	1838.501188686474	0
2	3630	1842.447428840773	1
2	3631	1843.156289530565	0
2	3640	1845.310122175391	1
2	3641	1845.327661548668	0
2	3645	1845.424952630493	1
2	3648	1846.424099148085	0
2	3652	1847.091489046172	1
2	3654	1847.262432024031	2
2	3655	1847.619056831507	1
2	3658	1848.685752286969	0
2	3662	1848.848908408521	1
2	3664	1849.01210530947	2
2	3665	1849.546906062795	1
2	3669	1849.950333844241	2
2	3670	1850.558361128086	1
2	3673	1851.404013523573	0
2	3715	1865.246410099916	1
2	3716	1865.416649888988	0
2	3750	1890.550498554268	1
2	3751	1890.563836355283	0
2	3795	1905.922534904917	1
2	3796	1906.358432413325	0
2	3845	1928.531131422727	1
2	3846	1929.223539986383	0
2	3870	1962.375123301584	1
2	3871	1962.560450649935	0
2	3875	1962.885272470059	1
2	3876	1963.646996540505	0
2	3890	1977.08546130618	1
2	3891	1977.705454668341	0
2	3895	1978.66426529743	1
2	3896	1978.864138361377	0
2	3900	1979.420535439709	1
2	3901	1979.939839956195	0
2	3907	1980.026692756256	1
2	3908	1980.980181523909	0
2	3912	1981.252457807713	1
2	3913	1981.801722573799	0
2	3917	1981.867493961398	1
2	3918	1982.867356588163	0
2	3922	1983.075634517994	1
2	3924	1983.227857530826	2
2	3925	1983.789443327703	1
2	3928	1984.896914120607	0
2	3932	1984.959894326119	1
2	3933	1985.733984533448	0
2	3940	1986.951987023263	1
2	3942	1987.100488121767	2
2	3943	1987.761301339448	1
2	3947	1987.926792273707	2
2	3948	1988.563954333153	1
2	3951	1989.619345606521	0
2	3995	2007.840602859808	1
2	3998	2008.572572485443	0
2	4002	2009.292385880398	1
2	4003	2009.422338595141	0
2	4010	2011.028327265849	1
2	4011	2011.110339973487	0
2	4015	2011.404334309358	1
2	4018	2012.170403083686	0
2	4025	2013.981099587983	1
2	4026	2014.083305081997	0
2	4050	2023.023874946451	1
2	4051	2023.239165724285	0
2	4070	2031.110417289377	1
2	4071	2031.834114369073	0
2	4135	2065.246578087832	1
2	4138	2065.976789088962	0
2	4162	2070.747973781504	1
2	4163	2071.294924165168	0
2	4200	2100.072448906616	1
2	4201	2100.992415095351	0
2	4205	2101.564813828317	1
2	4206	2101.871804758671	0
2	4232	2110.570086896289	1
2	4233	2110.765073064275	0
2	4237	2110.915723530321	1
2	4238	2111.624529128548	0
2	4242	2111.765141282412	1
2	4243	2112.682748794955	0
2	4255	2114.879770676775	1
2	4256	2115.728794204191	0
2	4275	2128.889383610996	1
2	4276	2129.63867605566	0
2	4280	2129.988197051753	1
2	4283	2130.778827121993	0
2	4300	2140.963441716242	1
2	4301	2141.631899451908	0
2	4305	2142.071419814608	1
2	4308	2142.604083370209	0
2	4312	2142.751428401716	1
2	4315	2143.649228035823	0
2	4355	2158.837559735175	1
2	4356	2159.025707544222	0
2	4390	2177.022643470829	1
2	4391	2177.698343260632	0
2	4395	2178.106418419049	1
2	4396	2178.519881454808	0
2	4405	2181.094119619876	1
2	4406	2181.704871898788	0
2	4410	2182.030639078247	1
2	4411	2182.577564386177	0
2	4415	2183.243246684217	1
2	4416	2183.65580585831	0
2	4455	2193.096143293218	1
2	4456	2193.6635181639	0
2	4470	2195.896476755129	1
2	4471	2196.447507861019	0
2	4485	2199.478393352326	1
2	4487	2200.339056183884	2
2	4488	2200.417778707874	1
2	4493	2201.59484536212	0
2	4510	2209.711636413406	1
2	4511	2210.521431216826	0
2	4525	2213.424013347714	1
2	4526	2213.929891496639	0
2	4530	2214.848164148321	1
2	4531	2214.964036129157	0
2	4590	2243.443404234528	1
2	4591	2243.508679814582	0
2	4640	2265.240446581271	1
2	4641	2266.145259482507	0
2	4680	2290.306064293065	1
2	4681	2290.368456484768	0
2	4710	2299.969714118742	1
2	4711	2300.554569397246	0
2	4745	2320.426455548139	1
2	4746	2320.891617982393	0
2	4780	2341.934441167108	1
2	4781	2342.093682029028	0
2	4790	2343.318202754961	1
2	4791	2344.399052649387	0
2	4805	2346.412574507421	1
2	4806	2346.998513945934	0
2	4875	2371.716164645605	1
2	4876	2372.165200832213	0
2	4975	2468.27307818706	1
2	4976	2468.475157771499	0
2	4980	2468.821114843365	1
2	4981	2469.490026592889	0
2	5025	2487.373972587448	1
2	5026	2487.511781218832	0
2	5165	2549.854250900462	1
2	5166	2550.037445720571	0
2	5170	2550.215620496953	1
2	5171	2551.18267321224	0
2	5175	2551.777621462581	1
2	5176	2552.357871120988	0
2	5185	2556.105688711261	1
2	5186	2556.697145152084	0
2	5190	2557.614494025362	1
2	5191	2557.719529766861	0
2	5195	2557.913564965213	1
2	5196	2558.906690419085	0
2	5200	2559.242676578308	1
2	5201	2559.82114323768	0
2	5205	2560.441232769787	1
2	5206	2560.819359975859	0
2	5210	2561.205991650704	1
2	5211	2561.621977708294	0
2	5215	2561.665535200416	1
2	5216	2562.729358321513	0
2	5220	2562.902659190873	1
2	5221	2563.804141146867	0
2	5225	2564.123654562779	1
2	5226	2564.84026169003	0
2	5230	2565.300285834799	1
2	5231	2565.996797560891	0
2	5235	2566.538758501716	1
2	5238	2567.113556600911	0
2	5285	2583.730885738197	1
2	5287	2583.794718845159	2
2	5288	2583.818640602656	1
2	5293	2584.743185746108	0
2	5310	2592.091692693437	1
2	5311	2592.579817902451	0
2	5320	2594.903974818527	1
2	5321	2595.904305195206	0
2	5325	2596.179237306681	1
2	5328	2597.066504096569	0
2	5332	2597.111648792309	1
2	5333	2597.966609020115	0
2	5340	2599.062507500641	1
2	5341	2599.839212612019	0
2	5355	2608.197437022425	1
2	5356	2608.423062546026	0
2	5365	2610.701746981941	1
2	5366	2610.966819939447	0
2	5370	2611.044796693004	1
2	5371	2611.977061380224	0
2	5375	2611.996919745191	1
2	5376	2612.841517935471	0
2	5440	2658.850705079452	1
2	5441	2659.207064259995	0
2	5450	2660.317785445984	1
2	5451	2661.073758976546	0
2	5460	2662.217721443592	1
2	5461	2663.256965301757	0
2	5465	2663.471471125571	1
2	5466	2664.367794692063	0
2	5490	2675.290129598164	1
2	5491	2675.510370425721	0
2	5495	2675.653219587915	1
2	5496	2676.562546024964	0
2	5535	2694.762618907911	1
2	5536	2695.15110548693	0
2	5540	2695.521872611181	1
2	5543	2695.966238594197	0
2	5550	2697.291389943438	1
2	5552	2697.617832698621	2
2	5553	2698.080238763106	1
2	5557	2698.994279556573	2
2	5559	2699.163578898003	3
2	5560	2699.218380477515	2
2	5564	2699.247064364619	3
2	5565	2700.361793162537	2
2	5569	2700.859319980807	3
2	5570	2701.452840512854	2
2	5573	2702.484543239654	1
2	5576	2703.535791973353	0
2	5580	2704.371996277732	1
2	5581	2704.579457913388	0
2	5595	2706.672551869796	1
2	5598	2707.414361900646	0
2	5604	2708.174218693216	1
2	5607	2708.597567212485	0
2	5616	2710.093158540824	1
2	5617	2710.437340620156	0
2	5629	2712.565376346059	1
2	5631	2712.612725142004	2
2	5632	2713.38114095749	1
2	5637	2714.258672362004	0
2	5644	2715.445450850938	1
2	5645	2716.499546991099	0
2	5652	2718.000058271468	1
2	5653	2718.384032973644	0
2	5662	2719.738705506495	1
2	5663	2720.657422516306	0
2	5667	2720.839074721517	1
2	5668	2721.700077024193	0
2	5672	2721.937166645372	1
2	5674	2722.312790545979	2
2	5675	2722.653850770553	1
2	5679	2722.67197388988	2
2	5680	2723.457662772385	1
2	5684	2723.999702548367	2
2	5687	2724.370874310562	1
2	5690	2725.348507708495	0
2	5694	2725.853597134122	1
2	5696	2726.149598823418	2
2	5697	2726.264045081565	1
2	5701	2726.399906322609	2
2	5702	2727.080059493983	1
2	5705	2727.935600729937	0
2	5712	2729.322213124664	1
2	5713	2729.717827076184	0
2	5722	2731.297575810029	1
2	5724	2731.758724462942	2
2	5725	2731.807394476513	1
2	5728	2732.687173497862	0
2	5732	2733.503923591035	1
2	5733	2733.806469351332	0
2	5777	2746.831116762782	1
2	5778	2747.033500575107	0
2	5810	2754.793617093579	1
2	5811	2755.617052093786	0
2	5855	2785.843105818517	1
2	5856	2786.944338088617	0
2	5955	2833.346662345631	1
2	5956	2833.555865519805	0
2	5980	2845.226962135056	1
2	5981	2845.755758698588	0
2	6072	2894.316029469266	1
2	6073	2894.521229877588	0
2	6115	2911.009494699411	1
2	6116	2911.839046584622	0
2	6120	2912.323212245432	1
2	6121	2912.801401068916	0
2	6150	2929.305363556421	1
2	6151	2929.467537686515	0
2	6155	2930.051958778932	1
2	6156	2930.54295593566	0
2	6160	2930.999568878015	1
2	6161	2931.721574272315	0
2	6165	2932.038224051313	1
2	6166	2932.734472824826	0
2	6180	2935.469882579548	1
2	6181	2936.055849856801	0
2	6192	2939.285717261031	1
2	6193	2939.548581846626	0
2	6197	2940.15837848156	1
2	6198	2940.444360097972	0
2	6202	2941.359956443115	1
2	6203	2941.445981904966	0
2	6209	2942.189929212618	1
2	6210	2942.592194614661	0
2	6315	2978.343067987612	1
2	6316	2979.201066759204	0
2	6320	2979.682227256216	1
2	6321	2980.113750373454	0
2	6335	2985.695431849108	1
2	6337	2986.179526221923	2
2	6338	2986.442786380933	1
2	6341	2987.397101746598	0
2	6345	2987.782711239303	1
2	6346	2988.557704221369	0
2	6350	2988.765574535315	1
2	6353	2989.375577465915	0
2	6375	3000.248250957713	1
2	6377	3000.907810693702	2
2	6378	3001.085538967596	1
2	6383	3002.072927410984	0
2	6512	3049.135614290062	1
2	6513	3049.267459266032	0
2	6517	3050.166813149832	1
2	6518	3050.437405136651	0
2	6522	3050.797278866396	1
2	6523	3051.465737125049	0
2	6530	3053.177027590096	1
2	6531	3053.470334668415	0
2	6575	3075.490210127865	1
2	6576	3075.848133352117	0
2	6580	3075.98242716456	1
2	6582	3076.473542558453	2
2	6583	3077.037439677117	1
2	6586	3078.227055506965	0
2	6590	3078.52274240491	1
2	6591	3079.084677554199	0
2	6605	3082.750011581181	1
2	6607	3082.97456925226	2
2	6608	3083.300067155553	1
2	6611	3084.161795970449	0
2	6630	3096.194097629543	1
2	6631	3097.083662050871	0
2	6680	3128.119431701364	1
2	6681	3128.595821352542	0
2	6690	3129.98749942107	1
2	6691	3130.770982137003	0
2	6695	3130.945314874984	1
2	6696	3131.931124818471	0
2	6705	3133.584976619601	1
2	6706	3133.67320218315	0
2	6745	3158.718291459974	1
2	6746	3159.593380497695	0
2	6760	3175.810900411619	1
2	6761	3175.945423353655	0
2	6770	3177.814393897683	1
2	6771	3178.589101131282	0
2	6780	3179.765083294421	1
2	6781	3180.789164776842	0
2	6790	3182.492684124394	1
2	6792	3182.821269523103	2
2	6793	3182.887973175219	1
2	6796	3183.960544878731	0
2	6815	3188.850888849494	1
2	6816	3189.510313063029	0
2	6830	3192.725587301274	1
2	6833	3193.653725396124	0
2	6860	3198.84677313036	1
2	6861	3199.62606488957	0
2	6875	3202.030886911587	1
2	6876	3202.840950238453	0
2	6880	3203.124428600928	1
2	6881	3203.900797385284	0
2	6885	3204.085493092981	1
2	6886	3205.099989528143	0
2	6890	3205.831905829187	1
2	6891	3206.170417154701	0
2	6895	3206.803333961487	1
2	6896	3207.090145530393	0
2	6900	3207.092049685852	1
2	6901	3208.153609106624	0
2	6937	3215.897983114146	1
2	6938	3215.992253535319	0
2	6947	3217.524566815773	1
2	6948	3217.739623671476	0
2	7120	3376.117528806356	1
2	7122	3376.376236484058	2
2	7125	3376.498319037668	1
2	7130	3377.494169454034	0
2	7134	3378.534897917632	1
2	7135	3378.540492365174	0
2	7139	3378.550117138615	1
2	7140	3379.440917198025	0
2	7144	3379.499250466289	1
2	7145	3380.370374649149	0
2	7155	3383.221212608667	1
2	7156	3383.47559192082	0
2	7195	3402.079055468969	1
2	7196	3402.762599423896	0
2	7210	3406.986486753103	1
2	7211	3407.06730771232	0
2	7220	3408.539739306668	1
2	7221	3409.129474364184	0
2	7230	3412.782914805799	1
2	7231	3413.421304158218	0
2	7235	3414.104361823276	1
2	7236	3414.515894853886	0
2	7245	3416.841840446414	1
2	7247	3417.055577661081	2
2	7248	3417.759250933237	1
2	7252	3418.13112165932	2
2	7255	3418.884106330786	1
2	7258	3419.877682990886	0
2	7262	3419.892862568718	1
2	7263	3420.967072435122	0
2	7267	3421.11606776531	1
2	7268	3422.057224955529	0
2	7275	3423.324281218616	1
2	7277	3423.863548984737	2
2	7278	3424.119195996251	1
2	7281	3425.055893517312	0
2	7285	3425.190545389772	1
2	7286	3426.027987767317	0
2	7290	3426.170294862397	1
2	7291	3426.894826000769	0
2	7330	3471.220566716486	1
2	7331	3471.982597012895	0
2	7355	3481.568653907945	1
2	7356	3482.002556732218	0
2	7365	3483.198313038208	1
2	7368	3484.103456517416	0
2	7380	3486.801912722028	1
2	7381	3486.807898025549	0
2	7385	3486.82508181459	1
2	7388	3487.659284796155	0
2	7392	3487.697338751478	1
2	7393	3488.709705986789	0
2	7400	3489.611230180488	1
2	7401	3490.594099943674	0
2	7437	3510.993839748065	1
2	7438	3511.489683887018	0
2	7515	3580.80191623836	1
2	7516	3581.572408035712	0
2	7520	3581.920690196221	1
2	7521	3582.551772898005	0
2	7535	3588.608080220163	1
2	7538	3589.261961038852	0
2	7550	3591.657913011208	1
2	7552	3592.031151728137	2
2	7553	3592.17906048845	1
2	7558	3593.229136533267	0
2	7562	3593.282872827488	1
2	7563	3594.040366030089	0
2	7567	3594.085373096105	1
2	7569	3594.917850985997	2
2	7570	3595.230696176249	1
2	7573	3596.241775394301	0
2	7577	3596.734881676123	1
2	7578	3597.366026632744	0
2	7585	3598.426538149049	1
2	7586	3599.166820855136	0
2	7615	3633.221662461391	1
2	7618	3634.300279215577	0
2	7622	3635.205310389911	1
2	7623	3635.463194174825	0
2	7632	3636.752888690489	1
2	7636	3637.030691379638	2
2	7637	3637.261800111963	1
2	7641	3637.686699335418	2
2	7642	3638.328908417972	1
2	7645	3639.369014119303	0
2	7651	3639.788756048492	1
2	7652	3640.329133342711	0
2	7656	3640.345407442355	1
2	7658	3640.857237940439	2
2	7659	3641.402325618213	1
2	7664	3642.486105136054	0
2	7677	3645.226168014966	1
2	7678	3646.173580589557	0
2	7760	3682.737709527062	1
2	7761	3683.393963921489	0
2	7780	3692.009137437993	1
2	7784	3692.623267011925	2
2	7785	3692.940993749354	1
2	7788	3693.967932687238	0
2	7797	3695.57851353312	1
2	7798	3695.793890266963	0
2	7845	3712.226887272908	1
2	7846	3713.322316783848	0
2	7850	3714.322148793901	1
2	7851	3714.466460152804	0
2	7855	3714.470852483077	1
2	7856	3715.370750967502	0
2	8050	3867.744212575098	1
2	8053	3868.166909788876	0
2	8060	3869.493661184628	1
2	8061	3870.33857628326	0
2	8065	3871.520291672713	1
2	8066	3871.528240691638	0
2	8075	3873.377054614128	1
2	8078	3873.554502337565	0
2	8082	3874.055412108978	1
2	8083	3874.427765801595	0
2	8087	3874.694781175905	1
2	8090	3875.487011448433	0
2	8097	3876.47901829578	1
2	8098	3877.528340159123	0
2	8115	3885.242322684833	1
2	8116	3886.323500786591	0
2	8150	3913.86427666829	1
2	8151	3914.720997712793	0
2	8190	3941.267162276757	1
2	8191	3941.346532504974	0
2	8195	3942.014475436282	1
2	8196	3942.149067949565	0
2	8200	3942.28268880478	1
2	8201	3943.309534230238	0
2	8250	3979.226694530413	1
2	8251	3980.111848552897	0
2	8270	3988.415143850706	1
2	8271	3989.29987764883	0
2	8275	3990.140050839042	1
2	8276	3990.469295709516	0
2	8300	4017.694239337847	1
2	8301	4017.843570000368	0
2	8310	4020.008206435606	1
2	8312	4020.766292367917	2
2	8313	4020.821741299759	1
2	8316	4021.626309742554	0
2	8320	4021.766724550814	1
2	8322	4021.977870473836	2
2	8323	4022.632915413155	1
2	8328	4023.761595106366	0
2	8332	4023.790705300932	1
2	8333	4024.90545560602	0
2	8337	4024.943024604652	1
2	8338	4025.984319734069	0
2	8345	4027.284114598964	1
2	8347	4027.292115569474	2
2	8348	4028.248740665017	1
2	8351	4029.325049830562	0
2	8365	4032.448621123458	1
2	8366	4033.272018690028	0
2	8370	4034.247189731187	1
2	8371	4034.351110705261	0
2	8382	4037.185296215674	1
2	8383	4037.345678942136	0
2	8390	4039.10827738803	1
2	8391	4039.37892076126	0
2	8400	4043.171314539534	1
2	8401	4043.464355376991	0
2	8445	4092.450127144479	1
2	8446	4092.688722567275	0
2	8475	4105.876242199873	1
2	8478	4106.73878994675	0
2	8510	4113.95278855427	1
2	8511	4114.454029584007	0
2	8575	4173.765206139929	1
2	8576	4174.795454982633	0
2	8630	4197.99862482273	1
2	8632	4198.712898849611	2
2	8633	4198.829254346248	1
2	8636	4199.789811868221	0
2	8655	4205.109477601701	1
2	8656	4206.136236435763	0
2	8665	4207.503081369533	1
2	8666	4207.938558050782	0
2	8670	4208.959809883754	1
2	8672	4209.075789765097	2
2	8673	4209.089829658416	1
2	8676	4210.072538581655	0
2	8695	4216.842512138718	1
2	8696	4216.91614840419	0
2	8715	4227.884374831447	1
2	8716	4228.043841563233	0
2	8770	4256.071318396182	1
2	8771	4256.393949047111	0
2	8775	4257.384857036789	1
2	8776	4257.415873340432	0
2	8960	4369.563622144926	1
2	8961	4369.75180563876	0
2	8975	4382.916352548781	1
2	8976	4383.294457311792	0
2	8980	4383.471210782749	1
2	8981	4384.325814174259	0
2	8985	4385.464877146032	1
2	8986	4385.464885439308	0
2	9015	4395.174624732679	1
2	9016	4396.121501626565	0
2	9020	4396.77337106045	1
2	9021	4397.316840837083	0
2	9025	4397.68239818358	1
2	9026	4398.435073752913	0
2	9070	4414.851048963205	1
2	9071	4415.035262537147	0
2	9080	4416.76534720635	1
2	9081	4416.822218311443	0
2	9190	4494.856338399794	1
2	9191	4495.612951883626	0
2	9195	4496.287133672322	1
2	9196	4496.647955970046	0
2	9200	4496.850928773641	1
2	9203	4497.450500934337	0
2	9210	4499.404919364061	1
2	9211	4499.64820577898	0
2	9255	4514.276286836449	1
2	9256	4514.630794628046	0
2	9275	4521.658679653112	1
2	9277	4522.017609550918	2
2	9278	4522.069205814745	1
2	9282	4522.81157616827	2
2	9283	4523.259246817842	1
2	9286	4524.256020148523	0
2	9290	4524.881411268856	1
2	9291	4525.114446578506	0
2	9295	4525.454680352896	1
2	9296	4526.281058843486	0
2	9300	4526.761024031861	1
2	9301	4527.356363635655	0
2	9335	4540.648951901658	1
2	9336	4540.794487924814	0
2	9360	4552.021782031929	1
2	9361	4552.625545422957	0
2	9370	4553.622969012011	1
2	9371	4554.348148196135	0
2	9380	4556.34895566051	1
2	9381	4556.496571179167	0
2	9485	4628.322240924775	1
2	9487	4628.56198915781	2
2	9488	4629.015091017769	1
2	9492	4629.520173389367	2
2	9493	4629.81998406299	1
2	9496	4630.976228841344	0
2	9500	4631.105397198449	1
2	9501	4631.923638867909	0
2	9510	4633.95391569138	1
2	9511	4634.756032345251	0
2	9520	4637.189787827008	1
2	9522	4637.560585135784	2
2	9524	4637.738289756573	3
2	9525	4638.207582279656	2
2	9528	4639.069306510676	1
2	9532	4639.7032636927	2
2	9535	4640.031839407038	1
2	9539	4640.844228269022	2
2	9540	4640.95642682704	1
2	9543	4641.938188291051	0
2	9547	4642.41132070679	1
2	9549	4642.725452318711	2
2	9550	4642.96567273707	1
2	9553	4643.868576893572	0
2	9557	4644.092579358969	1
2	9558	4645.03476614476	0
2	9665	4685.732692085114	1
2	9666	4686.059721837314	0
2	9670	4686.071891468698	1
2	9673	4686.956228994234	0
2	9677	4687.173207931641	1
2	9678	4688.084603840607	0
2	9687	4689.719257644569	1
2	9688	4690.109687202918	0
2	9697	4691.54505195564	1
2	9699	4691.601099515229	2
2	9700	4692.276053350727	1
2	9703	4693.185791832796	0
2	9710	4694.170366372153	1
2	9711	4695.021820500801	0
2	9720	4698.681215502332	1
2	9721	4698.804182356131	0
2	9725	4699.293806054786	1
2	9726	4699.790101756249	0
2	9730	4700.280797938213	1
2	9731	4700.820588344336	0
2	9755	4727.215116047433	1
2	9756	4728.154406619877	0
2	9780	4740.718480623099	1
2	9783	4741.382935684842	0
2	9790	4742.445483519628	1
2	9793	4743.264886689108	0
2	9820	4753.905306898503	1
2	9821	4754.589370926082	0
2	9825	4755.537386000499	1
2	9826	4755.591901903026	0
2	9845	4764.294918910872	1
2	9846	4764.481053318524	0
2	9870	4770.122474030145	1
2	9871	4770.608357501794	0
2	9895	4775.345539338676	1
2	9896	4775.958780133184	0
2	9910	4779.074179674368	1
2	9911	4780.196472374717	0
2	9915	4780.335742633312	1
2	9916	4781.187066750875	0
2	9920	4781.583360863793	1
2	9922	4781.818652482194	2
2	9923	4782.166651231045	1
2	9927	4783.142929042808	2
2	9928	4783.211814475427	1
2	9932	4783.361771830761	2
2	9935	4784.171830312996	1
2	9938	4785.321039943672	0
2	9945	4787.036678832504	1
2	9946	4787.475609259954	0
2	9955	4788.775952369632	1
2	9956	4789.791012667486	0
2	10010	4833.289687748631	1
2	10011	4834.140586952039	0
2	10045	4852.25984380144	1
2	10046	4852.734409794389	0
2	10052	4853.664221567489	1
2	10053	4853.810240942697	0
2	10060	4855.664627979643	1
2	10062	4855.735488219063	2
2	10063	4855.825509410064	1
2	10066	4856.709509599201	0
2	10070	4856.956152445077	1
2	10071	4857.857594499729	0
2	10095	4864.604151414574	1
2	10096	4864.655637529926	0
2	10100	4864.715897452606	1
2	10102	4864.996359655721	2
2	10103	4865.773793422399	1
2	10106	4866.645470916448	0
2	10120	4870.370294206093	1
2	10121	4871.010812990037	0
2	10125	4871.68910952206	1
2	10126	4871.831134488662	0
2	10132	4872.490562856689	1
2	10133	4872.825593960048	0
2	10137	4873.511035050267	1
2	10138	4873.731687759091	0
2	10170	4886.671161599704	1
2	10172	4886.834247992703	2
2	10173	4887.387923485864	1
2	10176	4888.516105891936	0
2	10180	4889.055698816511	1
2	10181	4889.477713193544	0
2	10185	4889.827110132013	1
2	10186	4890.333556085438	0
2	10190	4890.387345450118	1
2	10191	4891.326206987057	0
2	10195	4891.711454588201	1
2	10196	4892.223697759476	0
2	10200	4892.325308313825	1
2	10201	4893.273145246491	0
2	10205	4893.372554888772	1
2	10206	4894.350630216193	0
2	10210	4894.564458239326	1
2	10212	4894.594248348108	2
2	10214	4895.375584658162	3
2	10215	4895.511106202085	2
2	10219	4896.133514547451	3
2	10220	4896.707524166335	2
2	10224	4896.772393989447	3
2	10225	4897.57910534766	2
2	10229	4897.96909237549	3
2	10230	4898.608565443367	2
2	10234	4898.736463530788	3
2	10235	4899.714981977348	2
2	10238	4900.529577763551	1
2	10241	4901.380221844171	0
2	10245	4901.722288709253	1
2	10246	4902.284898646255	0
2	10250	4902.595683682816	1
2	10251	4903.111624342934	0
2	10375	5007.240757419992	1
2	10376	5007.362477360023	0
2	10385	5010.712913458529	1
2	10386	5010.853327782918	0
2	10395	5013.032602390382	1
2	10397	5013.143175398003	2
2	10398	5013.50170827731	1
2	10401	5014.468415043405	0
2	10450	5058.224233314721	1
2	10452	5058.62367163827	2
2	10453	5058.891497692086	1
2	10456	5059.915620904036	0
2	10460	5060.115457823334	1
2	10461	5060.814197504699	0
2	10515	5097.602817151742	1
2	10516	5098.00065691744	0
2	10520	5098.708837186402	1
2	10521	5098.87285846754	0
2	10525	5098.899350902631	1
2	10528	5099.887471779185	0
2	10550	5105.639315297919	1
2	10551	5106.712169184232	0
2	10585	5119.547403146511	1
2	10586	5120.299095487121	0
2	10595	5121.619762911513	1
2	10596	5122.254911365655	0
2	10600	5122.432675969676	1
2	10601	5123.353430922997	0
2	10605	5124.217597403336	1
2	10606	5124.261309338563	0
2	10655	5164.595146707897	1
2	10656	5165.48873191548	0
2	10685	5182.32522440641	1
2	10686	5182.866103670441	0
2	10690	5183.513615428923	1
2	10691	5183.677042182602	0
2	10695	5184.077664514075	1
2	10696	5184.80910937411	0
2	10700	5185.188655415474	1
2	10701	5185.652908550829	0
2	10710	5186.732631336728	1
2	10711	5187.712689230007	0
2	10780	5237.325992300367	1
2	10781	5237.923158946902	0
2	10807	5242.695965225606	1
2	10808	5243.042625620082	0
2	10814	5243.881065712695	1
2	10815	5244.166652453836	0
2	10819	5244.897113193719	1
2	10820	5245.024093826633	0
2	10832	5247.346885686498	1
2	10833	5247.733371569827	0
2	10842	5248.951562352921	1
2	10843	5249.547125780448	0
2	10910	5287.079505641753	1
2	10911	5287.489752328957	0
2	10960	5309.593689270643	1
2	10961	5310.1938483715	0
2	10980	5315.501467859153	1
2	10981	5316.32442274888	0
2	11060	5399.137752735289	1
2	11061	5399.936412970585	0
2	11125	5446.377724044844	1
2	11126	5446.396238222647	0
2	11160	5456.231226494922	1
2	11161	5456.548728398706	0
2	11165	5456.56628506299	1
2	11166	5457.490639583494	0
2	11210	5513.33568697147	1
2	11211	5514.213787774071	0
2	11220	5515.776861935641	1
2	11221	5516.382110015236	0
2	11225	5516.967373010222	1
2	11226	5517.503621997617	0
2	11235	5519.087383021609	1
2	11236	5520.149762084173	0
2	11255	5526.073884133504	1
2	11256	5526.322871340719	0
2	11270	5529.251006489594	1
2	11271	5530.112497058514	0
2	11285	5533.037949450516	1
2	11286	5534.037494221736	0
2	11290	5534.591967155015	1
2	11293	5535.164032505766	0
2	11297	5535.353225207156	1
2	11298	5536.079959440452	0
2	11315	5540.247339486142	1
2	11316	5540.966008615474	0
2	11335	5548.35749377814	1
2	11336	5548.382769042578	0
2	11350	5555.326136412797	1
2	11351	5555.62317338332	0
2	11360	5557.202725762351	1
2	11361	5557.560062789482	0
2	11365	5557.578152881472	1
2	11366	5558.692092099258	0
2	11405	5607.794320944981	1
2	11406	5607.904249823685	0
2	11455	5630.064679115752	1
2	11456	5630.749149112569	0
2	11465	5632.673576068955	1
2	11466	5633.27343539743	0
2	11475	5635.019212555772	1
2	11476	5635.268445179223	0
2	11480	5635.392444156948	1
2	11483	5636.317207955646	0
2	11510	5657.420095821151	1
2	11511	5657.883045898202	0
2	11547	5670.041556215719	1
2	11548	5670.435549078507	0
2	11555	5672.04959002412	1
2	11556	5672.60736886272	0
2	11560	5672.626782941536	1
2	11561	5673.618794633539	0
2	11565	5674.541445899066	1
2	11566	5674.728208918867	0
2	11570	5675.431873213729	1
2	11571	5675.77638025563	0
2	11575	5676.133818971187	1
2	11578	5676.910207503101	0
2	11582	5677.18385821535	1
2	11583	5678.071943925785	0
2	11587	5678.147211247913	1
2	11588	5678.892869461885	0
2	11592	5679.758639088002	1
2	11593	5679.918103253188	0
2	11597	5680.784494260991	1
2	11598	5680.861055794729	0
2	11602	5680.867018589862	1
2	11603	5682.020923492869	0
2	11607	5682.266626583163	1
2	11608	5683.091386250684	0
2	11612	5683.170352805884	1
2	11614	5683.738344036604	2
2	11616	5683.839897712534	3
2	11617	5684.14829178117	2
2	11620	5685.185627746207	1
2	11626	5686.334360137378	2
2	11627	5686.345791944486	1
2	11631	5686.378496162413	2
2	11632	5687.483769138154	1
2	11635	5688.617647995424	0
2	11639	5688.675922423656	1
2	11641	5689.055316447489	2
2	11644	5689.678937415403	1
2	11648	5690.144190658572	2
2	11650	5690.292869530838	3
2	11651	5690.616748596352	2
2	11654	5691.699121661295	1
2	11659	5692.506376466245	0
2	11663	5693.473226273004	1
2	11664	5693.641311109156	0
2	11676	5696.110623858446	1
2	11678	5696.149423941436	2
2	11679	5696.554770388916	1
2	11682	5697.396141256016	0
2	11689	5698.853807095606	1
2	11690	5699.580157870796	0
2	11697	5700.684366111475	1
2	11699	5701.088145769569	2
2	11700	5701.353109109864	1
2	11705	5702.199738893655	0
2	11715	5704.486436173209	1
2	11716	5704.814285454431	0
2	11727	5706.168654803629	1
2	11728	5706.815284782086	0
2	11737	5708.052038153409	1
2	11738	5708.673610490464	0
2	11750	5710.673683183238	1
2	11751	5711.52260855408	0
2	11755	5711.721017728278	1
2	11756	5712.516422689237	0
2	11797	5726.653605534194	1
2	11798	5726.750235619509	0
2	11805	5727.793836131431	1
2	11806	5728.634614079559	0
2	11865	5762.962949095907	1
2	11866	5763.5873151588	0
2	11880	5765.955243963037	1
2	11884	5766.413712063945	2
2	11885	5766.697373678044	1
2	11888	5767.751124455568	0
2	11892	5768.011884642497	1
2	11893	5768.663608898383	0
2	11897	5768.804154350604	1
2	11898	5769.517241918363	0
2	11902	5770.562565414148	1
2	11903	5770.70665301054	0
2	11910	5772.101900156326	1
2	11911	5772.529620912645	0
2	11950	5807.589823981157	1
2	11951	5807.681111215479	0
2	11960	5813.595391763732	1
2	11961	5813.71445990013	0
2	11975	5817.12804918182	1
2	11976	5817.779041448044	0
2	12005	5826.738219371539	1
2	12006	5827.513876730554	0
2	12085	5884.515532253403	1
2	12086	5885.507270656746	0
2	12125	5914.776134176532	1
2	12128	5915.714381051939	0
2	12230	5990.230439912904	1
2	12231	5991.242867572225	0
2	12240	5992.404646881626	1
2	12242	5993.103988878794	2
2	12243	5993.231210652567	1
2	12247	5994.217013614667	2
2	12248	5994.250503116302	1
2	12253	5995.324638764296	0
2	12265	6000.190077339904	1
2	12266	6001.233193415525	0
2	12295	6018.743037844207	1
2	12296	6019.057947466369	0
2	12335	6037.235075776997	1
2	12337	6037.288165903297	2
2	12338	6037.348771398647	1
2	12343	6038.167618237289	0
2	12347	6038.427988928792	1
2	12348	6039.131173994432	0
2	12352	6039.152083340783	1
2	12353	6039.965035937953	0
2	12370	6048.222296094738	1
2	12371	6049.014849080114	0
2	12380	6050.450046236411	1
2	12381	6051.02852200965	0
2	12395	6055.782597521318	1
2	12396	6056.449834498039	0
2	12400	6056.508916680868	1
2	12401	6057.508273955921	0
2	12565	6163.638322941447	1
2	12566	6164.312209851088	0
2	12585	6169.433269731648	1
2	12586	6169.507654803701	0
2	12590	6170.091468601781	1
2	12591	6170.355551278953	0
2	12600	6173.015681624517	1
2	12601	6173.18063421147	0
2	12625	6183.664021792478	1
2	12626	6184.044110484279	0
2	12640	6189.58590520707	1
2	12641	6190.403478980492	0
2	12645	6191.310250088526	1
2	12646	6191.531034609917	0
2	12650	6191.588442396648	1
2	12652	6192.315098558723	2
2	12653	6192.483823849316	1
2	12656	6193.627990659754	0
2	12660	6194.15933518605	1
2	12661	6194.576211982555	0
2	12675	6198.563596457956	1
2	12676	6198.872150573659	0
2	12775	6269.277006734401	1
2	12776	6270.062956094455	0
2	12780	6270.313776704552	1
2	12781	6271.09586704801	0
2	12795	6274.524567696482	1
2	12797	6274.951553235879	2
2	12798	6275.197275123949	1
2	12801	6276.126245598047	0
2	12895	6351.759326508219	1
2	12896	6351.859860113723	0
2	12900	6352.056946683955	1
2	12901	6352.903428551363	0
2	12920	6360.5335450777	1
2	12921	6360.859501501418	0
2	12935	6364.827906705362	1
2	12936	6365.134190367683	0
2	12955	6369.102602060426	1
2	12956	6370.218027222453	0
2	12960	6370.504030815877	1
2	12962	6371.067671934659	2
2	12963	6371.343674135132	1
2	12966	6372.197410193568	0
2	12990	6383.677402804101	1
2	12993	6383.834366365263	0
2	13000	6384.929965667282	1
2	13001	6385.509596812465	0
2	13007	6386.39238145194	1
2	13008	6386.65796402257	0
2	13017	6388.475440214076	1
2	13018	6388.597614935805	0
2	13024	6389.381921396248	1
2	13025	6389.713935925179	0
2	13029	6390.07525932297	1
2	13030	6390.712122007199	0
2	13042	6393.574205298338	1
2	13043	6393.886975408644	0
2	13047	6394.131741186468	1
2	13048	6394.75666894272	0
2	13055	6396.537376801798	1
2	13056	6396.798813034333	0
2	13090	6408.071718840445	1
2	13093	6409.061938360536	0
2	13100	6410.511502534055	1
2	13101	6411.362556325567	0
2	13112	6412.684737260495	1
2	13113	6413.116101408207	0
2	13140	6428.864865368692	1
2	13141	6428.881688354616	0
2	13157	6432.426372881348	1
2	13159	6432.628749785084	2
2	13160	6433.239900783716	1
2	13163	6434.155408275021	0
2	13172	6435.241247191635	1
2	13173	6436.124549095692	0
2	13180	6437.410854742664	1
2	13181	6437.754380954323	0
2	13360	6536.110158793087	1
2	13361	6536.404847862325	0
2	13425	6618.049057505659	1
2	13426	6619.166609501047	0
2	13445	6644.493756352756	1
2	13446	6645.201088498862	0
2	13450	6645.37439596216	1
2	13451	6646.067424553403	0
2	13465	6654.40087675267	1
2	13466	6654.785489909955	0
2	13497	6668.326845837123	1
2	13499	6668.397403143612	2
2	13502	6669.343939973128	1
2	13505	6670.501195994013	0
2	13512	6671.876428282315	1
2	13514	6671.96101862561	2
2	13515	6672.790992721909	1
2	13518	6673.860251971142	0
2	13525	6675.116371439865	1
2	13529	6675.37150414395	2
2	13530	6676.034921142174	1
2	13535	6677.122825932032	0
2	13539	6677.655657873906	1
2	13541	6677.686244687102	2
2	13542	6678.099452998018	1
2	13545	6678.929801507754	0
2	13695	6797.064378302307	1
2	13696	6798.082068567312	0
2	13760	6832.416344886362	1
2	13761	6833.246773441343	0
2	13777	6836.304701326534	1
2	13778	6836.376561947298	0
2	13795	6842.029928509984	1
2	13798	6842.270760709998	0
2	13825	6847.859578225344	1
2	13828	6848.811096100805	0
2	13855	6860.263892853214	1
2	13856	6861.283696776891	0
2	13860	6861.637949575829	1
2	13861	6862.418458732014	0
2	13890	6873.565846258798	1
2	13891	6873.878043091343	0
2	13935	6901.043700909999	1
2	13936	6901.074146093818	0
2	13960	6913.403433670295	1
2	13961	6914.402061303136	0
2	13965	6915.1555301946	1
2	13966	6915.260615522591	0
2	13970	6915.611061891311	1
2	13971	6916.126050063585	0
2	13995	6925.544302741572	1
2	13996	6925.789017399069	0
2	14005	6928.518148608365	1
2	14006	6928.941613984976	0
2	14010	6929.337289020336	1
2	14013	6929.976578028064	0
2	14070	6957.844729061225	1
2	14071	6958.341577147846	0
2	14080	6961.657922442801	1
2	14081	6961.952295305128	0
2	14085	6962.135747571564	1
2	14086	6962.941143593113	0
2	14120	6991.801464661895	1
2	14121	6992.0772048231	0
2	14127	6992.736657932456	1
2	14128	6993.25729809513	0
2	14132	6993.421810767292	1
2	14133	6994.381109350805	0
2	14155	7004.591171475577	1
2	14156	7005.583082560594	0
2	14160	7005.760040234308	1
2	14163	7006.404243929363	0
2	14167	7006.999809508955	1
2	14168	7007.318245359748	0
2	14235	7052.780867040958	1
2	14236	7052.872472849423	0
2	14245	7055.801331736481	1
2	14246	7056.354975857659	0
2	14252	7056.796061035954	1
2	14253	7057.340222414098	0
2	14257	7058.136869084742	1
2	14258	7058.521956324931	0
2	14265	7060.009201080897	1
2	14266	7060.862017947975	0
2	14295	7071.614096956402	1
2	14296	7072.255242684313	0
2	14330	7096.782407696604	1
2	14331	7097.14087591369	0
2	14335	7097.735925735923	1
2	14336	7098.14217642194	0
2	14350	7101.124857959644	1
2	14351	7101.796045477425	0
2	14357	7102.238130167264	1
2	14358	7102.824883659852	0
2	14362	7102.844541597339	1
2	14363	7103.90419008482	0
2	14367	7105.026473860274	1
2	14368	7105.102318904565	0
2	14372	7105.14097077853	1
2	14373	7105.965660329645	0
2	14385	7108.119456150864	1
2	14386	7108.848059900007	0
2	14407	7128.095746012457	1
2	14408	7128.205037541943	0
2	14412	7128.531624628594	1
2	14413	7129.175726982648	0
2	14422	7130.72295106354	1
2	14423	7131.160598540003	0
2	14445	7138.508961425108	1
2	14446	7138.900222807786	0
2	14450	7139.471504695494	1
2	14451	7139.810927760264	0
2	14455	7140.517827638883	1
2	14456	7140.94585936995	0
2	14580	7254.786067682452	1
2	14581	7255.240963216951	0
2	14670	7329.211094319573	1
2	14671	7329.429948712156	0
2	14730	7374.930870991251	1
2	14731	7374.968320020921	0
2	14750	7401.217039895654	1
2	14751	7401.992200002494	0
2	14755	7402.246661232319	1
2	14756	7403.000057638484	0
2	14770	7407.644564973775	1
2	14771	7407.674040574936	0
2	14785	7412.666085035731	1
2	14786	7413.745824742955	0
2	14815	7432.538005769592	1
2	14816	7433.559390218269	0
2	14832	7436.598370949048	1
2	14833	7436.826199601729	0
2	14842	7438.458920840951	1
2	14843	7438.613872730312	0
2	14851	7439.360451499223	1
2	14852	7439.670075605576	0
2	14895	7474.8718450802	1
2	14896	7475.631454917968	0
2	14935	7496.332256946894	1
2	14936	7496.523563875783	0
2	14945	7497.802007067865	1
2	14946	7498.477843495798	0
2	14965	7505.239643572309	1
2	14966	7506.121539748583	0
2	14970	7506.573832517508	1
2	14971	7507.165937978059	0
2	14985	7509.70559438346	1
2	14988	7510.083941233375	0
2	14992	7510.092946362812	1
2	14993	7510.919018637885	0
2	15000	7512.213933928939	1
2	15001	7512.796290339374	0
2	15025	7526.079672763096	1
2	15026	7526.641757644956	0
2	15035	7528.484264200788	1
2	15037	7528.752358445814	2
2	15038	7529.406303591704	1
2	15041	7530.287023589438	0
2	15050	7536.143643901315	1
2	15051	7536.556592009452	0
2	15080	7546.528041162188	1
2	15081	7547.350265010287	0
2	15095	7557.054025414329	1
2	15096	7557.359072206956	0
2	15115	7562.204973029152	1
2	15116	7563.044997821313	0
2	15135	7588.01084137837	1
2	15136	7588.102341444338	0
2	15150	7590.681703890999	1
2	15151	7591.274639018101	0
2	15235	7633.09829796228	1
2	15236	7633.708178983728	0
2	15240	7633.718512409134	1
2	15241	7634.638883482671	0
2	15245	7634.804252700903	1
2	15247	7635.614742295241	2
2	15248	7635.718305466982	1
2	15252	7636.019856067314	2
2	15253	7636.633814344375	1
2	15257	7636.740033140575	2
2	15259	7637.0852798712	3
2	15260	7637.44334954769	2
2	15264	7637.584757201918	3
2	15265	7638.462330657808	2
2	15268	7639.555888505844	1
2	15272	7639.882562603551	2
2	15273	7640.686656508227	1
2	15276	7641.651754238648	0
2	15280	7641.653391924562	1
2	15283	7642.621968997834	0
2	15400	7710.074151812843	1
2	15401	7710.783955190814	0
2	15420	7748.220969744867	1
2	15421	7749.100233472709	0
2	15430	7751.556463257323	1
2	15431	7752.416389361043	0
2	15440	7754.141740532812	1
2	15441	7754.993368647197	0
2	15450	7757.803726230441	1
2	15451	7758.519878018458	0
2	15475	7773.936737037057	1
2	15476	7774.871904869989	0
2	15520	7818.172305107478	1
2	15521	7818.451109641234	0
2	15525	7818.730398831121	1
2	15527	7818.837778489953	2
2	15528	7819.367172719913	1
2	15532	7819.62551016817	2
2	15533	7820.430323691948	1
2	15536	7821.244322868439	0
2	15545	7822.818881654557	1
2	15546	7823.660601415243	0
2	15550	7823.868659720779	1
2	15551	7824.605999551751	0
2	15555	7825.052869163436	1
2	15556	7825.676978277825	0
2	15615	7878.907339085702	1
2	15616	7879.303983048125	0
2	15635	7901.345193182478	1
2	15636	7901.939084771055	0
2	15705	7934.77723413184	1
2	15706	7935.48452385982	0
2	15715	7937.028357468176	1
2	15718	7938.022896642065	0
2	15750	7952.545644662297	1
2	15751	7952.851347726382	0
2	15777	7960.501630982175	1
2	15778	7961.002221609457	0
2	15790	7964.826848251741	1
2	15791	7965.585209484835	0
2	15875	8004.943166055391	1
2	15876	8005.494567196218	0
2	15880	8006.289174963757	1
2	15881	8006.504622381141	0
2	15895	8011.480379866368	1
2	15896	8011.629169025556	0
2	15900	8012.440282067329	1
2	15901	8012.70663374579	0
2	15930	8036.893563226982	1
2	15931	8037.039192968482	0
2	15940	8038.945489484206	1
2	15942	8039.172781466642	2
2	15943	8039.538206288226	1
2	15946	8040.467431729853	0
2	15960	8044.411308639072	1
2	15961	8044.463687715661	0
2	16030	8096.648710547168	1
2	16031	8097.813997251707	0
2	16040	8099.528933751607	1
2	16041	8100.134255576501	0
2	16060	8105.555665513335	1
2	16061	8106.317754421079	0
2	16085	8127.615169661144	1
2	16086	8128.308486146952	0
2	16090	8129.32906320962	1
2	16091	8129.361087643362	0
2	16095	8130.354214437526	1
2	16096	8130.404273500859	0
2	16100	8130.879168250636	1
2	16101	8131.400826781157	0
2	16130	8140.101214008728	1
2	16131	8140.422211198705	0
2	16140	8142.027362387355	1
2	16141	8142.448751231945	0
2	16170	8162.149759328792	1
2	16171	8162.934472796622	0
2	16215	8198.77109678187	1
2	16216	8199.767105963378	0
2	16235	8205.636877431195	1
2	16236	8205.749755562808	0
2	16275	8255.80982903786	1
2	16276	8256.30044081961	0
2	16280	8256.475753312255	1
2	16281	8257.448020123273	0
2	16285	8258.295764682858	1
2	16286	8258.469049029287	0
2	16290	8258.534392227099	1
2	16293	8259.287234650508	0
2	16300	8261.4758150317	1
2	16301	8261.549860334818	0
2	16395	8307.968525902542	1
2	16396	8309.056513384725	0
2	16405	8311.440492925916	1
2	16406	8311.56694036169	0
2	16410	8311.614144122367	1
2	16412	8311.877603869695	2
2	16413	8312.692899537049	1
2	16417	8313.083393082317	2
2	16418	8313.825672014765	1
2	16421	8314.644535624198	0
2	16430	8316.928891210585	1
2	16431	8317.032462213173	0
2	16435	8317.134586578465	1
2	16436	8318.020379002843	0
2	16480	8336.682626882458	1
2	16481	8337.554574059089	0
2	16485	8338.118023182786	1
2	16487	8338.392933569523	2
2	16488	8338.432957328529	1
2	16491	8339.29864599998	0
2	16495	8339.544807293745	1
2	16496	8340.186839049076	0
2	16530	8361.554773522208	1
2	16531	8362.546725476025	0
2	16560	8371.162035676413	1
2	16561	8371.415857751281	0
2	16640	8399.350064860375	1
2	16641	8400.097641505145	0
2	16650	8409.474706636444	1
2	16651	8410.411842904322	0
2	16745	8509.67797893116	1
2	16746	8510.017689639086	0
2	16790	8526.012409512962	1
2	16791	8526.366491149557	0
2	16810	8538.00863349327	1
2	16812	8538.113092185699	2
2	16813	8538.649735223748	1
2	16817	8539.540899058027	2
2	16818	8539.592729828473	1
2	16821	8540.734513489868	0
2	16825	8541.310223700948	1
2	16826	8541.545530352428	0
2	16830	8542.535698672397	1
2	16831	8542.54817270391	0
2	16835	8543.357161347628	1
2	16836	8543.671934032779	0
2	16895	8602.871650608441	1
2	16896	8603.149858150381	0
2	16932	8612.119831606733	1
2	16933	8612.493988836229	0
2	17055	8690.642110345455	1
2	17056	8690.803334699695	0
2	17075	8696.805622688524	1
2	17076	8697.109977468551	0
2	17085	8699.337641196115	1
2	17086	8699.387672240642	0
2	17125	8729.325297146215	1
2	17126	8730.071592724869	0
2	17135	8731.491118731163	1
2	17136	8732.476193193903	0
2	17155	8735.8839453636	1
2	17157	8735.964407460412	2
2	17161	8736.636180191918	3
2	17162	8736.642538162129	2
2	17167	8737.506943251839	1
2	17170	8738.454574638879	0
2	17174	8738.804527753306	1
2	17177	8739.522919960128	0
2	17181	8739.662973042335	1
2	17183	8739.723678691198	2
2	17184	8740.45836780527	1
2	17188	8740.944413924054	2
2	17189	8741.646326857613	1
2	17192	8742.498954286234	0
2	17199	8743.554139767531	1
2	17200	8744.389290704945	0
2	17209	8746.234011356003	1
2	17210	8746.44820473445	0
2	17222	8748.449630001969	1
2	17223	8749.448694392102	0
2	17230	8750.840482887596	1
2	17232	8751.019425536792	2
2	17235	8751.638406840427	1
2	17238	8752.516535788117	0
2	17260	8757.376735752163	1
2	17261	8758.125574187262	0
2	17295	8789.537413592181	1
2	17296	8790.32482931708	0
2	17300	8790.335756786936	1
2	17301	8791.435814842498	0
2	17305	8791.481452941769	1
2	17306	8792.481980567528	0
2	17380	8827.883651362487	1
2	17381	8828.145303740108	0
2	17410	8837.528406188601	1
2	17411	8837.756966849215	0
2	17420	8839.733305773842	1
2	17421	8840.003493129576	0
2	17450	8848.361986698639	1
2	17451	8849.079828832966	0
2	17637	9001.111631621316	1
2	17642	9001.303907304733	0
2	17649	9002.856521149003	1
2	17650	9003.312491762928	0
2	17670	9007.321690279976	1
2	17671	9007.867080131836	0
2	17685	9010.498582826945	1
2	17686	9010.933338664669	0
2	17795	9076.171076996412	1
2	17797	9076.615628657184	2
2	17798	9076.970835974988	1
2	17801	9077.99450204688	0
2	17885	9161.688539146672	1
2	17887	9162.186422767934	2
2	17888	9162.494170315524	1
2	17891	9163.447710035702	0
2	17895	9163.95332812318	1
2	17896	9164.438806095587	0
2	17900	9164.444184339764	1
2	17901	9165.460490116997	0
2	17990	9199.408007533779	1
2	17993	9199.756560051962	0
2	17997	9200.008218954696	1
2	17999	9200.776584144632	2
2	18000	9200.839734708945	1
2	18003	9201.833595125152	0
2	18007	9201.967272189632	1
2	18008	9202.713863369039	0
2	18030	9207.919079424063	1
2	18033	9208.646344996213	0
2	18080	9226.806079809554	1
2	18081	9227.549577313957	0
2	18085	9228.246692045467	1
2	18086	9228.359339904987	0
2	18090	9229.125495677252	1
2	18091	9229.26844345994	0
2	18130	9248.131217262392	1
2	18133	9248.90443400079	0
2	18140	9249.908562921848	1
2	18143	9250.879352012832	0
2	18165	9257.404460413983	1
2	18166	9258.255390364263	0
2	18205	9292.435155147904	1
2	18207	9292.489202751867	2
2	18208	9293.219316212622	1
2	18211	9294.240223104203	0
2	18260	9382.854448356514	1
2	18261	9382.93000892733	0
2	18270	9384.686129824229	1
2	18271	9385.258399320656	0
2	18310	9435.579457163638	1
2	18311	9435.787549506017	0
2	18315	9436.248740676295	1
2	18316	9436.979329609015	0
2	18320	9437.487397085408	1
2	18321	9437.987576466595	0
2	18325	9438.320730696013	1
2	18326	9438.91670624789	0
2	18335	9441.408561470832	1
2	18337	9441.668886536457	2
2	18338	9442.419557125526	1
2	18342	9442.447416324711	2
2	18343	9443.409844610593	1
2	18347	9443.436318375583	2
2	18349	9444.29306156667	3
2	18350	9444.352363274744	2
2	18353	9445.269943464486	1
2	18356	9446.086853712829	0
2	18360	9446.338157550964	1
2	18361	9446.889082306376	0
2	18365	9447.790561104057	1
2	18368	9448.012912849741	0
2	18375	9449.683568934763	1
2	18376	9449.94895591413	0
2	18380	9450.025740209441	1
2	18382	9450.176098916317	2
2	18383	9450.871911930138	1
2	18386	9451.691350670004	0
2	18400	9454.30521921868	1
2	18401	9454.986386546132	0
2	18410	9457.165701789868	1
2	18411	9457.368472872926	0
2	18440	9464.247025959866	1
2	18442	9464.494253359284	2
2	18443	9464.695032382455	1
2	18446	9465.659017389246	0
2	18467	9473.037610152646	1
2	18468	9473.906144685007	0
2	18475	9474.829103931617	1
2	18477	9475.056547822563	2
2	18478	9475.670981363568	1
2	18481	9476.713659268606	0
2	18532	9521.815744584446	1
2	18533	9522.634723259154	0
2	18585	9558.938219993919	1
2	18586	9558.945709484232	0
2	18590	9559.334958409505	1
2	18591	9560.096282866479	0
2	18680	9595.043972181416	1
2	18682	9595.274356073031	2
2	18683	9595.608575175979	1
2	18688	9596.766389494386	0
2	18695	9597.985408479445	1
2	18696	9598.757723593895	0
2	18705	9607.313004260536	1
2	18706	9607.452158385836	0
2	18715	9609.481944557438	1
2	18716	9610.068624291615	0
2	18740	9615.570886594756	1
2	18741	9616.525052272039	0
2	18750	9618.020444990098	1
2	18752	9618.655144817596	2
2	18753	9618.779656902676	1
2	18756	9619.634611545385	0
2	18785	9631.261131933061	1
2	18786	9632.226524270433	0
2	18795	9634.423957471114	1
2	18796	9634.674946249705	0
2	18805	9637.029237620574	1
2	18806	9637.107412651703	0
2	18855	9668.553038565405	1
2	18856	9669.182331713292	0
2	18880	9681.716855784922	1
2	18881	9681.903343841466	0
2	18925	9698.943189535959	1
2	18926	9699.146242993267	0
2	18955	9715.443797916751	1
2	18956	9716.011531237177	0
2	18960	9716.050010510783	1
2	18961	9716.924767391793	0
2	18965	9717.727713683753	1
2	18966	9717.818924920484	0
2	18970	9718.378004327406	1
2	18971	9718.927458121106	0
2	18975	9719.920516878736	1
2	18976	9720.053865173776	0
2	18985	9721.390756026944	1
2	18987	9721.591947290971	2
2	18988	9722.410357227869	1
2	18991	9723.269493289891	0
2	19050	9750.698103627833	1
2	19053	9751.561851397308	0
2	19060	9752.703961820472	1
2	19061	9753.660632592778	0
2	19082	9760.103165876562	1
2	19083	9760.425807831704	0
2	19087	9760.503547153401	1
2	19088	9761.518067099887	0
2	19120	9770.681826771992	1
2	19121	9771.33296760052	0
2	19175	9813.247291066525	1
2	19176	9813.445189803485	0
2	19190	9815.194941374856	1
2	19193	9816.145757256795	0
2	19200	9817.351386439199	1
2	19201	9818.14234481172	0
2	19210	9819.93844146717	1
2	19211	9820.152111340123	0
2	19217	9821.000081952889	1
2	19218	9821.119494959428	0
2	19375	9936.149525032217	1
2	19376	9936.618716304373	0
2	19385	9937.821026199585	1
2	19386	9938.675753238278	0
2	19435	9957.391102734937	1
2	19436	9958.181234479191	0
2	19445	9965.63354387333	1
2	19446	9965.737843385185	0
2	19510	10001.798702171543	1
2	19511	10001.868777193757	0
2	19530	10008.028405801675	1
2	19531	10008.35604754142	0
2	19545	10016.705742933262	1
2	19546	10017.776676394773	0
2	19555	10020.066807615858	1
2	19556	10020.8715947837	0
2	19577	10027.812426424807	1
2	19578	10028.07764147495	0
2	19582	10028.589366584123	1
2	19583	10029.065230044658	0
2	19587	10029.62452673293	1
2	19588	10030.230002006731	0
2	19592	10030.883478346779	1
2	19593	10031.388860463287	0
2	19610	10035.107595729561	1
2	19611	10036.06493071544	0
2	19655	10050.751568609092	1
2	19656	10051.473096725524	0
2	19660	10051.525417745467	1
2	19661	10052.321743240573	0
2	19665	10052.743531105839	1
2	19668	10053.406795393762	0
2	19672	10053.47726809924	1
2	19673	10054.316119735961	0
2	19677	10054.51573783842	1
2	19679	10054.533645643917	2
2	19680	10055.448489864444	1
2	19684	10055.578961675029	2
2	19685	10056.344779624411	1
2	19689	10057.136909051389	2
2	19690	10057.171477720042	1
2	19694	10057.724774859073	2
2	19695	10058.223276274738	1
2	19699	10058.487202654353	2
2	19700	10059.143711412785	1
[...]
6	47707	24085.96796769451	4.261611805067
6	47715	24098.956398688958	0.854359992687
6	47747	24119.817802533743	7.911604819473
6	47790	24132.112989019678	1.086175872072
6	47822	24158.679119663193	3.710904337385
6	47827	24159.531897827397	4.64115653101
6	47840	24175.964313219166	1.120900460426
6	47850	24185.437939856699	0.900167913456
6	47870	24195.134293800394	4.55586384953
6	47875	24196.626840707122	1.129527108278
6	47880	24200.373905592754	1.169663615152
6	47900	24208.142119397053	2.235830816959
6	47910	24218.53478434889	0.978433217388
6	47935	24230.830203479134	4.96385908268
6	47940	24236.649160815912	1.05018209815
6	47985	24255.885525858164	4.091798999673
6	48000	24260.852351298334	12.450754965946
6	48020	24267.639699545447	3.828284257558
6	48076	24298.274178656929	6.575445682174
6	48082	24300.192947352577	8.311997824058
6	48090	24302.739593268846	14.314958879553
6	48182	24343.967032004372	1.558987802739
6	48190	24345.986452560259	2.097832262509
6	48200	24370.513785081669	1.978364996948
6	48222	24391.729000588722	0.996367022861
6	48245	24409.896133871216	6.835926907771
6	48255	24421.908433372833	0.900846880116
6	48270	24443.653117707087	0.847116581909
6	48315	24461.417078898402	3.374432312359
6	48322	24471.841325849551	1.021052720491
6	48405	24501.080801769473	6.987084910731
6	48450	24529.309233718238	0.97080033822
6	48521	24550.624729140716	3.416117648945
6	48535	24554.331407026535	10.806521010807
6	48552	24560.827771021397	17.640038177968
6	48555	24561.800679023442	1.2416366855
6	48580	24574.609037123101	1.331201531808
6	48595	24580.250257051864	5.418413990529
6	48622	24589.720747652685	5.849613898186
6	48637	24593.295680151832	1.19306196887
6	48655	24598.481724148061	0.801296856627
6	48662	24599.781431610051	5.416780846555
6	48685	24609.444163117802	0.801466246508
6	48702	24633.066408531817	1.161590660084
6	48775	24689.666718772443	2.675126915036
6	48780	24690.735235420539	1.061664504278
6	48790	24704.358624517868	1.622051442593
6	48802	24707.124524502176	1.911146022722
6	48927	24752.326542181626	1.093996797688
6	48930	24753.31276704549	27.908399579842
6	48982	24790.382694459261	6.387607006735
6	48985	24791.240844995176	4.681058587193
6	49010	24808.671862854786	1.142546722107
6	49020	24813.823886517812	3.353489889012
6	49035	24822.020141852005	4.856588703298
6	49065	24832.692276619357	7.28453108341
6	49070	24837.121262346907	1.049103809055
6	49080	24847.866534729505	1.189297799597
6	49085	24849.964600303207	0.870558051206
6	49090	24852.012423623135	1.165075661056
6	49142	24885.030957442396	7.100836217138
6	49157	24890.012641806529	4.709156187954
6	49199	24904.585008717599	3.411353957238
6	49262	24924.794201824206	4.542398530799
6	49279	24928.503490465509	1.098423440674
6	49305	24964.446350597194	6.452511576912
6	49320	24973.332147916367	1.157473286986
6	49325	24975.468594931272	4.125971598548
6	49330	24982.015566785902	0.833240238391
6	49335	24983.37796385554	0.965818812978
6	49396	25015.280296241007	9.092504854807
6	49415	25020.395382878444	11.968075393007
6	49440	25059.125089646254	5.576994387595
6	49457	25076.72056313846	3.027815646538
6	49565	25103.375280014893	5.912874897975
6	49587	25110.096766433495	6.710403849768
6	49625	25133.964406393528	0.959433699585
6	49652	25144.466478935777	1.130372602027
6	49655	25145.314375830403	4.624661214788
6	49665	25152.182425652158	1.423331549093
6	49697	25178.979244409653	1.838119254391
6	49725	25209.100939706926	2.167470938921
6	49735	25211.746275521457	1.056899712421
6	49762	25246.64779941064	1.10709867822
6	49780	25251.172771684521	0.830305302143
6	49790	25262.109497248105	2.250458948026
6	49800	25266.9755861345	0.936174100451
6	49812	25274.818620290638	1.124985150993
6	49815	25275.709052307283	1.376797050577
6	49827	25279.927450892386	1.063040264147
6	49830	25281.068104137816	2.998329343832
6	49850	25289.688027015648	7.248761379391
6	49855	25304.017065376923	0.88963409178
6	49860	25306.173316720932	0.998739789892
6	49875	25311.926252413933	4.629570629549
6	49922	25333.744668801177	2.465769236055
6	49925	25334.609126790009	1.69860248679
6	49934	25339.139809240955	1.03967717262
6	49952	25343.391924062926	3.395068523828
6	49992	25361.825343188329	2.818025137018
6	50022	25372.577821636354	5.606444317108
6	50030	25374.756328181242	0.845724836271
6	50040	25385.326417878075	2.721704101485
6	50045	25389.698832009507	0.92735058656
6	50072	25400.650552424762	4.00004001021
6	50092	25407.500572314941	1.292133656638
6	50095	25408.458386284009	1.257418589413
6	50115	25423.36681735331	1.173812457826
6	50145	25452.487541179978	0.929947782867
6	50155	25455.258726952512	1.62113628233
6	50177	25463.563083528116	0.965521092527
6	50204	25471.542678221933	4.930907308277
6	50217	25474.169591171633	11.400170440112
6	50222	25475.12568000561	21.631819985486
6	50272	25491.670016694012	5.665967324602
6	50294	25495.264920839424	15.260933374785
6	50307	25502.275960576423	1.029385844059
6	50345	25511.775348668508	1.408371257679
6	50352	25512.997914404336	3.04837842765
6	50355	25513.850983095642	1.775717598543
6	50391	25545.640534767031	9.263963400507
6	50397	25547.787311229191	3.495595233241
6	50417	25551.731784908835	6.102938465165
6	50440	25562.584252480889	3.272485054575
6	50447	25565.46164881053	0.899783137627
6	50450	25566.287074612329	1.280224888583
6	50470	25603.59602909048	0.919615186658
6	50475	25605.31159705082	1.109429958463
6	50535	25625.196414863727	3.78951927791
6	50560	25647.895787001655	3.567442395271
6	50565	25661.35103898666	1.058162769303
6	50582	25669.077789556731	0.849983640667
6	50602	25676.804363872537	6.550237977881
6	50642	25685.321345433528	1.573369837665
6	50660	25689.013389324333	8.043743413536
6	50672	25692.832673810001	16.180969303157
6	50685	25699.108062038399	2.845063389812
6	50710	25705.906861416795	6.701684382247
6	50760	25721.555810882047	8.885156421841
6	50770	25724.038405715842	2.471038568353
6	50802	25736.616847711456	5.03163352944
6	50805	25737.711059590829	1.105150716462
6	50831	25747.115200059633	1.872272500719
6	50849	25751.172523312881	6.836212789174
6	50867	25755.663552128318	8.227594217223
6	50900	25771.017632067716	4.047357214157
6	50907	25774.478009046449	0.910542457737
6	50952	25804.33721217567	1.712638826001
6	51075	25831.445567989909	1.009958971571
6	51095	25851.410452670613	1.706314895248
6	51112	25854.563181087356	1.924324019569
6	51129	25857.626393200531	6.063461727416
6	51137	25859.383890503719	9.81708616239
6	51162	25867.257230787126	0.822763328347
6	51172	25869.220481807605	1.351385392222
6	51251	25891.397305832196	11.443097997006
6	51292	25900.581141712563	7.961112289003
6	51307	25905.693966870189	1.199664539564
6	51330	25911.940443975992	27.099133338094
6	51360	25949.726334057436	2.809591405288
6	51400	25988.257690481074	0.935452145524
6	51482	26020.237180293998	3.100796601593
6	51565	26053.670306199434	0.900978348125
6	51584	26075.057925745967	6.597481062118
6	51592	26077.207396078139	2.860680130931
6	51595	26078.124144416611	1.470965691736
6	51600	26091.205288960365	0.923551426176
6	51625	26103.159767666543	10.853075762905
6	51642	26106.994760462186	2.648404273678
6	51687	26119.820459031187	11.611451579107
6	51712	26128.397927334007	0.878343590908
6	51717	26129.47047808034	21.582468980847
6	51725	26140.332437963727	1.027789370716
6	51730	26153.044362480364	1.099185729772
6	51737	26162.486630385016	1.192907726113
6	51802	26187.387496781834	1.257368425978
6	51815	26196.262467327723	20.034070853537
6	51822	26198.59360919824	9.32182767284
6	51835	26201.819761250411	3.50325864186
6	51855	26211.138947760421	3.356696137296
6	51887	26228.205491260328	5.412674053772
6	51900	26232.268256414584	8.686876707779
6	51957	26252.857071942309	1.57739977997
6	51970	26256.684333241036	2.294567561193
6	52035	26286.936085471972	8.55872047121
6	52107	26321.421513174819	6.627114526597
6	52184	26344.761121074266	5.432642477624
6	52204	26349.04766532087	11.269660375161
6	52216	26351.118497067571	6.741515919333
6	52222	26353.327624998868	3.649101540045
6	52225	26354.316413418923	3.497559231302
6	52332	26413.396008821303	4.7254169436
6	52355	26423.803884881952	9.8905980718
6	52360	26435.116110058857	1.133414321952
6	52377	26444.832096077534	2.169012887529
6	52395	26448.867192811674	3.538095483159
6	52415	26457.796592674884	3.532617296682
6	52474	26485.96346059747	10.271947469668
6	52490	26489.990343235601	2.952837957842
6	52500	26492.284035126646	2.043475554714
6	52505	26493.505555281036	9.102972432063
6	52534	26506.557719957274	1.519678430989
6	52544	26508.647278557349	7.744801430407
6	52547	26509.505380370751	2.84088060434
6	52557	26512.080192104442	1.164425191749
6	52565	26514.677983144337	9.467200623232
6	52570	26518.718384143877	0.80653198706
6	52634	26537.902594367015	1.02553127259
6	52665	26544.914814619412	12.346048291115
6	52670	26551.152699665681	1.125010559801
6	52700	26569.484003840775	8.29279324981
6	52729	26583.976469234862	5.493661160093
6	52767	26596.7448148161	13.365625895276
6	52802	26617.151408157283	1.012172956672
6	52805	26618.227810531454	1.9690510524
6	52820	26627.117399930636	1.050845082104
6	52830	26629.737123149872	1.052989913058
6	52850	26645.803430312356	0.922139588837
6	52870	26657.727786435634	1.345398112293
6	52917	26676.098575217894	1.667398462407
6	52925	26679.264997702921	10.544898287217
6	52987	26705.00658272081	4.067700980018
6	53034	26714.781353078736	9.430709035192
6	53037	26715.787822733587	7.582416917686
6	53040	26716.588496582909	2.842025066564
6	53045	26724.47964903891	1.177543562371
6	53077	26742.871701732252	4.005282049428
6	53140	26787.943883015866	1.979968969811
6	53192	26813.5369517097	5.779466035293
6	53195	26814.415689916139	8.633781168375
6	53200	26817.496784825118	1.155859913025
6	53210	26824.077368244685	2.772191515338
6	53282	26845.399372911596	9.271217787961
6	53302	26852.581237480628	1.634471646726
6	53312	26854.44573126624	1.307307023014
6	53335	26862.922416128435	1.191687190253
6	53385	26905.07157264816	9.260839936791
6	53395	26909.161448170086	3.932129424957
6	53400	26920.477860704524	0.989721989539
6	53470	26953.388682270254	5.707424915663
6	53485	26978.536209367386	2.905512430074
6	53522	26994.312628558845	7.541956437122
6	53527	26995.170220943362	4.645982062119
6	53545	27016.855300962871	0.968938371725
6	53557	27037.655288098645	0.974015688058
6	53560	27038.624241295815	3.10108837255
6	53599	27058.875525331699	1.12367667146
6	53607	27060.958802610745	9.821602032173
6	53630	27067.298118650716	5.714425331699
6	53670	27091.58209077547	1.132400274184
6	53715	27111.593723339655	8.094765099894
6	53767	27127.09261993304	1.058797957734
6	53770	27127.954556078781	12.050874117634
6	53785	27141.829632343308	3.719817068126
6	53814	27148.239342358619	2.447385215997
6	53817	27149.242162232198	4.623605754212
6	53832	27152.354184507675	1.673978676178
6	53837	27153.503645603362	10.008437999802
6	53862	27163.645195993817	0.965135030169
6	53900	27177.363273972332	4.737943580654
6	53907	27178.423956086426	9.433807519862
6	53960	27214.870072184656	1.02188649904
6	53967	27218.919840390068	1.142152680922
6	54000	27236.901393249219	1.862115709198
6	54035	27268.210497904396	5.069125335869
6	54040	27283.301796019732	0.937020608783
6	54085	27303.493551594112	4.08411039342
6	54110	27321.046410963907	1.030129301734
6	54125	27334.64208500751	2.357715885298
6	54170	27367.536127966973	1.128391337022
6	54175	27370.791424338865	6.788055567763
6	54205	27397.204517032437	4.45705420396
6	54220	27402.4099953944	3.852404033736
6	54227	27405.646709777334	1.053730070312
6	54250	27420.412941857816	3.527021180421
6	54255	27422.188864866708	1.068879355583
6	54295	27449.363561533606	0.804132741783
6	54325	27466.780600901095	0.831655777991
6	54335	27469.022404845478	4.905742321693
6	54382	27484.514119691604	25.001889480369
6	54402	27491.389881285124	7.313942973888
6	54457	27519.013291621874	7.993008936864
6	54460	27520.16896089233	1.650184590142
6	54492	27534.883111695169	1.391691329754
6	54502	27537.287118835273	0.801244240813
6	54505	27538.121195529858	4.192495305154
6	54525	27563.117747774648	7.621591855645
6	54530	27564.142602559749	0.950340533257
6	54540	27567.506216255431	6.692817326935
6	54550	27573.094818066632	2.123531365236
6	54615	27591.834463322198	7.406800931001
6	54690	27625.413707716124	4.872832158742
6	54695	27628.003807310296	0.836399046611
6	54707	27633.462079344086	4.194539565226
6	54710	27634.529338781118	1.67208383777
6	54725	27643.717558889407	5.275603605842
6	54757	27658.407050686454	5.905901036192
6	54795	27666.791690812764	13.581784082895
6	54841	27676.066243295807	7.185938274115
6	54857	27679.805491740879	5.535480399079
6	54875	27699.844080591781	2.449946978184
6	54900	27711.789114331832	1.892841886229
6	54920	27729.437663499823	0.921176013071
6	54945	27773.328782303579	1.701166663682
6	54950	27776.050080252169	6.087124154407
6	54994	27806.633580110747	4.23544798661
6	55007	27809.431301904515	6.439156367774
6	55017	27813.993086282921	20.175398751637
6	55030	27817.391154016353	4.360915482325
6	55040	27822.240189673235	1.922545620895
6	55060	27830.713622841219	2.404814063976
6	55065	27839.067605030522	0.878583547287
6	55070	27848.614582804896	1.180896528065
6	55080	27854.494708703908	4.950652733494
6	55095	27864.661786067905	4.781059923765
6	55110	27872.578807254801	5.841063803241
6	55130	27884.826585591415	2.703280494176
6	55135	27886.889577929628	4.444822575869
6	55150	27897.294267248259	1.064642167185
6	55155	27898.974997495708	0.916618684027
6	55165	27921.287959504161	0.972391464468
6	55200	27955.333178571941	0.977513303049
6	55205	27963.783761960865	1.159638204426
6	55217	27967.998975047034	1.260989109602
6	55240	27983.756636194861	0.805051765218
6	55250	27994.797769183706	1.120710840925
6	55275	28006.909733743173	1.108219231479
6	55300	28015.692099487921	1.034190991335
6	55312	28024.423510303639	1.136441517044
6	55320	28026.443918955151	1.852772792573
6	55407	28047.493805877117	12.490923759581
6	55427	28063.100847119123	0.958572725486
6	55435	28066.529110315479	0.983264593966
6	55460	28095.718856324876	1.052907832246
6	55475	28109.587648072969	3.973523582509
6	55497	28118.847904937779	5.08011641169
6	55510	28130.783907875663	1.08635080345
6	55520	28134.315853139234	2.199432542413
6	55525	28136.760928082339	0.926130249258
6	55554	28147.223956066663	5.434114902336
6	55576	28151.140788104584	4.472929346318
6	55601	28157.50808264771	10.79848514829
6	55642	28166.953477009127	19.117378658186
6	55655	28188.319595274357	1.009608441032
6	55696	28204.006361461643	4.549886047195
6	55702	28206.120486400861	5.100497698148
6	55705	28207.00660418228	9.03256980452
6	55710	28241.689047673602	0.988554360718
6	55745	28263.52840340278	1.455765637901
6	55811	28289.645472046763	6.684483638218
6	55841	28295.265057450564	12.130704892781
6	55860	28300.443866936987	6.370640786126
6	55877	28305.732005596169	1.55081226961
6	55887	28307.664617811803	28.016585076681
6	55910	28322.375945518051	1.124829648528
6	55987	28341.956886978494	15.404894255076
6	55995	28344.366721905837	2.911921439652
6	56000	28348.16163028916	0.880146057718
6	56010	28356.122080038396	2.304521320509
6	56020	28358.569246579879	2.035162211894
6	56049	28383.483847962473	9.671718234723
6	56060	28388.700169057506	7.587936396385
6	56077	28400.118373098892	1.067545614392
6	56085	28402.384391223265	2.589058593424
6	56115	28436.964466785782	2.318247279838
6	56140	28451.117040808992	1.218756464924
6	56162	28461.04525302443	1.360861500157
6	56190	28469.023793930483	9.875247049633
6	56209	28474.340122736438	0.884596884809
6	56245	28491.218652245115	1.247562758158
6	56250	28493.23338769725	1.088825320546
6	56270	28501.684328573483	6.703063476083
6	56355	28537.87966536701	3.280580531386
6	56360	28539.279391496956	0.846909184474
6	56400	28579.795427333973	6.220919975354
6	56405	28580.938410382812	0.901522232406
6	56435	28591.360740548376	1.035429747216
6	56447	28601.535269395243	1.040572780184
6	56485	28638.830112191197	7.17309111227
6	56564	28662.687248720802	3.33932520492
6	56567	28663.84912076566	4.533301702515
6	56575	28666.112728280875	3.543487334896
6	56587	28670.591463499693	0.982306458801
6	56620	28679.161479785938	6.935632548
6	56642	28706.681324003687	6.184242679942
6	56659	28709.518805983061	8.509412892693
6	56662	28710.600937721742	2.703819362544
6	56670	28712.67550914532	5.588124137407
6	56692	28730.861078337995	1.469785130407
6	56700	28733.223223401941	4.514436453221
6	56732	28749.990157228593	4.832239607333
6	56740	28758.735242361874	1.05466264775
6	56747	28763.112914015269	0.997144153621
6	56755	28767.698160147756	5.294933947559
6	56760	28769.536564452663	1.040533119254
6	56775	28790.801714115857	3.102386734999
6	56850	28814.58860535128	1.805809243654
6	56857	28816.395888108649	12.724126085585
6	56945	28845.273633548267	3.820874073244
6	56962	28856.314137050732	0.91484362036
6	56965	28857.308087709582	3.19670150974
6	57000	28871.084642288856	8.184217496663
6	57005	28872.812365077012	1.006327816006
6	57085	28924.048426003517	0.980354989693
6	57130	28947.722571901059	3.066499997489
6	57162	28999.524209423388	1.711319870267
6	57290	29131.29534406698	1.896367051041
6	57342	29152.118286053805	8.430156796263
6	57369	29158.530418364316	7.354658991018
6	57390	29163.838988693287	6.115303921458
6	57407	29168.540829736189	1.570331983684
6	57410	29169.671434905202	9.339276406709
6	57512	29217.301672523221	4.140577268895
6	57540	29226.006546873442	1.043764728773
6	57545	29232.164613240405	0.976240092982
6	57550	29233.837115539697	0.803354367614
6	57594	29258.399852128146	1.279572601307
6	57602	29260.367503093747	4.883009201195
6	57625	29269.573110802399	2.759044051366
6	57642	29296.659451811799	1.692493489115
6	57662	29301.393240796991	6.792918739366
6	57682	29305.483813206882	1.097380313267
6	57697	29308.306589784783	5.208985906357
6	57700	29309.162372803532	7.465011238711
6	57710	29314.511364275641	8.614410294583
6	57785	29340.92148458168	1.927825220413
6	57850	29362.2072847039	12.428357300182
6	57855	29364.534912521007	11.117066323081
6	57880	29379.806938929708	1.040963428654
6	57912	29404.579589713149	2.841889137309
6	57932	29412.701660265887	1.103707884531
6	57940	29415.547996317353	0.965129700769
6	57965	29433.404583338364	0.88687396599
6	57970	29439.522545135734	1.139703971241
6	58017	29460.852680327749	2.074363514948
6	58087	29501.440391842426	8.41731338391
6	58090	29502.330901110509	10.12085916254
6	58117	29518.885735681327	0.852136025298
6	58125	29521.58002288342	0.979915508069
6	58162	29535.604081507993	9.899362727819
6	58165	29536.458300632366	1.350556439887
6	58180	29544.02623028269	2.665357117846
6	58210	29558.875099510724	2.441494828694
6	58257	29574.591763799789	10.0517458775
6	58329	29594.568243460939	8.157367127632
6	58351	29598.592138392408	8.969743058074
6	58376	29603.616649510548	6.880804711376
6	58382	29605.701914858841	9.373272036549
6	58385	29606.636659582075	4.809010011584
6	58475	29646.816060248045	6.713491760966
6	58495	29669.712794173858	1.001682074554
6	58512	29680.14538123847	3.044843345613
6	58530	29685.700656363631	2.250807844289
6	58545	29691.130853639933	3.493134923696
6	58550	29692.603823353876	3.667565836055
6	58560	29699.451634812355	1.179951107875
6	58577	29706.212218450759	3.327937618212
6	58585	29709.203945124097	0.959290765319
6	58600	29736.263327888707	1.00789817702
6	58617	29757.967005862931	2.566063345781
6	58620	29758.972687183956	2.145399316137
6	58687	29794.466064555092	1.138225275185
6	58712	29799.996846056488	3.517161835005
6	58750	29810.243657679046	10.079089173517
6	58775	29844.087324178436	3.540131864557
6	58800	29859.721362056367	1.08617095314
6	58822	29865.41689061421	3.438560892708
6	58825	29866.365939356117	1.812143031948
6	58852	29872.525629789122	10.985948867732
6	58880	29892.880782825813	0.870575376693
6	58892	29903.434072905525	2.350310569877
6	58932	29931.10494245935	4.77398665003
6	58990	29944.112965279537	12.231273227653
6	59030	29964.370602059975	4.792556866099
6	59045	29976.901438813027	3.242981663548
6	59090	29987.283134837495	8.396703086683
6	59095	29989.455534840606	0.86094488604

