version 2
run Second_exit_2-0-20191017-13:43:44-1904
attr configname Second_exit_2
attr datetime 20191017-13:43:44
attr experiment Second_exit_2
attr inifile omnetpp.ini
attr iterationvars ""
attr iterationvarsf ""
attr measurement ""
attr network ResponseTimeNetwork
attr processid 1904
attr repetition 0
attr replication #0
attr resultdir results
attr runnumber 0
attr seedset 0
param **.Source.interArrivalTime exponential(5s)
param **.jobPriority bernoulli(0.6)
param **.PS.serviceTimeU1 "uniform(0.8s, 1.2s)"
param **.PS.serviceTimeU2 "uniform(1.8s, 2.2s)"
param **.SS1.serviceTime exponential(1s)
param **.SS2.serviceTime exponential(1.2s)
param **.PS.exitProbability bernoulli(0.2)

vector 0 ResponseTimeNetwork.SS1 queueLength:vector ETV
attr interpolationmode sample-hold
attr title "queue length, vector"
vector 1 ResponseTimeNetwork.SS2 queueLength:vector ETV
attr interpolationmode sample-hold
attr title "queue length, vector"
vector 2 ResponseTimeNetwork.QueueU1 queueLength:vector ETV
attr interpolationmode sample-hold
attr title "queue length, vector"
vector 3 ResponseTimeNetwork.QueueU2 queueLength:vector ETV
attr interpolationmode sample-hold
attr title "queue length, vector"
vector 4 ResponseTimeNetwork.sink lifeTimeU2:vector ETV
attr interpolationmode none
attr title "lifetime of arrived jobs U2, vector"
attr unit s
vector 5 ResponseTimeNetwork.sink lifeTime:vector ETV
attr interpolationmode none
attr title "lifetime of arrived jobs, vector"
attr unit s
vector 6 ResponseTimeNetwork.sink lifeTimeU1:vector ETV
attr interpolationmode none
attr title "lifetime of arrived jobs U1, vector"
attr unit s
0	0	0	0
0	2665	2058.088859077819	1
0	2666	2058.218046783123	0
0	5250	4029.505851403613	1
0	5251	4030.262958787569	0
0	6832	5371.397255446174	1
0	6834	5371.57815996319	0
0	7725	6127.098850731403	1
0	7726	6130.648099331987	0
0	8740	6906.962604924576	1
0	8741	6909.781320415264	0
0	8895	7076.316272120303	1
0	8896	7077.519517173688	0
0	12975	10180.105883715868	1
0	12976	10180.954622852035	0
0	12980	10182.049214756839	1
0	12981	10182.775967183442	0
0	17765	13932.895890045272	1
0	17766	13933.853213696035	0
0	18740	14735.477634203197	1
0	18741	14735.773378614852	0
0	19680	15490.21518198657	1
0	19681	15490.697860251528	0
0	19685	15491.855619189397	1
0	19686	15491.887980104471	0
0	28475	21931.713624636849	1
0	28476	21931.881199899744	0
0	34240	26709.916909353054	1
0	34244	26710.663018734554	0
0	36912	28711.383070623987	1
0	36919	28712.460190884532	0
0	38085	29607.500836283563	1
0	38086	29607.516764706554	0
0	38090	29608.360410663853	1
0	38091	29609.155852944112	0
1	0	0	0
1	2059	1689.588809931198	1
1	2071	1692.989222245887	0
1	4580	3541.490860777288	1
1	4581	3544.357364813906	0
1	7685	6100.814866478773	1
1	7686	6100.838404295996	0
1	7690	6101.945913187165	1
1	7694	6104.473120524414	0
1	9385	7462.26499927575	1
1	9386	7463.839539483603	0
1	9570	7623.714887447744	1
1	9571	7624.177129137526	0
1	16930	13334.830090013029	1
1	16931	13334.859368376218	0
1	20315	15996.663649243786	1
1	20316	15997.040743460737	0
1	21315	16778.551596270044	1
1	21316	16778.912516883694	0
1	21320	16779.948015171502	1
1	21321	16781.236441285828	0
1	30005	23194.517981039116	1
1	30006	23196.033362227751	0
1	32535	25296.32679784434	1
1	32539	25297.260930051401	0
1	32630	25333.280927881121	1
1	32631	25333.333845158634	0
2	0	0	0
2	90	89.010352337045	1
2	91	89.213618602233	0
2	125	117.123658642056	1
2	126	117.359686539776	0
2	215	224.461740492363	1
2	216	225.207242332692	0
2	240	239.243685668597	1
2	241	239.623562979933	0
2	260	252.865743235828	1
2	261	253.201273478913	0
2	345	349.994242615408	1
2	346	350.185685654301	0
2	350	350.478856388292	1
2	351	351.222034759484	0
2	355	352.281044144865	1
2	356	352.40961946588	0
2	370	356.253626866237	1
2	371	356.935640686141	0
2	395	381.910374413513	1
2	396	382.722286029201	0
2	425	393.49553693475	1
2	426	394.182172613712	0
2	705	645.591896709388	1
2	706	645.594643120158	0
2	765	690.339301853522	1
2	766	691.421363983768	0
2	770	692.107284729837	1
2	771	692.425891576706	0
2	795	719.415441086653	1
2	796	719.955440094937	0
2	805	727.15313877037	1
2	808	727.968839654841	0
2	820	731.504862884069	1
2	821	732.104309268834	0
2	840	751.091851042019	1
2	841	751.209161346692	0
2	885	787.009653411477	1
2	886	788.117796229509	0
2	895	789.554793796655	1
2	897	789.628257830733	2
2	898	790.446521902474	1
2	901	791.454055961518	0
2	920	797.671531293327	1
2	921	798.241892865186	0
2	925	799.010146207053	1
2	926	799.099424612129	0
2	930	800.052012132983	1
2	931	800.159209824799	0
2	935	800.553267396746	1
2	936	801.116280097308	0
2	940	801.677866485426	1
2	941	801.98022812398	0
2	945	802.713792396682	1
2	946	803.011797078958	0
2	965	815.185235103387	1
2	966	815.665159841433	0
2	1010	861.716115138409	1
2	1011	862.628434029071	0
2	1025	870.49111837615	1
2	1026	871.136902812927	0
2	1035	873.625885638988	1
2	1037	874.263753507974	2
2	1038	874.640119451351	1
2	1041	875.446650853261	0
2	1057	880.805250420371	1
2	1058	880.940353113897	0
2	1062	881.287956815509	1
2	1065	881.774966109842	0
2	1069	882.612631503696	1
2	1071	882.780801108297	2
2	1074	882.910771298241	1
2	1078	883.697330390133	2
2	1079	883.811547694653	1
2	1083	884.061498511303	2
2	1084	884.843608382456	1
2	1088	885.659488593826	2
2	1089	885.952044003289	1
2	1095	886.627399873461	2
2	1096	886.79823772043	1
2	1099	887.987940207236	0
2	1106	889.71010900544	1
2	1107	890.108105267231	0
2	1165	935.149018515704	1
2	1166	935.806572956686	0
2	1205	986.500015670229	1
2	1206	986.948308907061	0
2	1265	1039.643772669547	1
2	1266	1039.784302156625	0
2	1375	1123.963389632232	1
2	1378	1124.872884529512	0
2	1445	1193.342187647632	1
2	1446	1193.807492994722	0
2	1455	1217.4505860463	1
2	1456	1217.865267431859	0
2	1495	1256.854429574631	1
2	1496	1257.079953982092	0
2	1500	1257.814907455374	1
2	1501	1257.978567898895	0
2	1520	1276.842218316291	1
2	1521	1277.033526340009	0
2	1535	1285.050175061202	1
2	1536	1285.67204489237	0
2	1545	1288.695208668107	1
2	1546	1289.155669619221	0
2	1605	1337.4170513572	1
2	1606	1337.539656580691	0
2	1640	1379.354562966596	1
2	1641	1379.661163373501	0
2	1650	1381.398151237766	1
2	1653	1381.61806054189	0
2	1695	1414.204368712142	1
2	1696	1414.316050116531	0
2	1805	1492.101462443564	1
2	1806	1492.703169988211	0
2	1840	1517.560127802893	1
2	1841	1517.974451973483	0
2	1845	1518.079828114113	1
2	1846	1518.784429865245	0
2	1850	1519.165116092358	1
2	1852	1519.507310469274	2
2	1853	1519.642144304708	1
2	1857	1519.846589859514	2
2	1858	1520.589940182221	1
2	1863	1521.754419046183	0
2	1870	1523.317082784082	1
2	1871	1523.793168332436	0
2	1895	1534.369152422481	1
2	1896	1534.45118175592	0
2	1910	1540.378660432684	1
2	1911	1541.004402860566	0
2	1925	1544.818305538233	1
2	1926	1544.991251417353	0
2	1950	1578.730323323703	1
2	1951	1578.791866583159	0
2	1985	1620.189445699303	1
2	1986	1621.081598143564	0
2	2055	1688.72469069525	1
2	2057	1689.517415898421	2
2	2058	1689.588809931198	1
2	2061	1690.558675133636	0
2	2065	1690.936166411121	1
2	2066	1691.401722215967	0
2	2180	1752.210515001553	1
2	2181	1752.213054091163	0
2	2247	1804.564443303747	1
2	2248	1804.571172218677	0
2	2475	1957.324313537283	1
2	2476	1957.613387196943	0
2	2530	1987.798227751783	1
2	2531	1988.190734718132	0
2	2535	1988.571264428226	1
2	2536	1989.376770472664	0
2	2570	2013.251467197292	1
2	2571	2014.109467834767	0
2	2645	2053.477142474613	1
2	2646	2054.404092729275	0
2	2650	2054.435233662725	1
2	2652	2054.461084805216	2
2	2653	2055.301843158618	1
2	2657	2055.731764369519	2
2	2658	2056.191159826048	1
2	2661	2057.106177626826	0
2	2670	2058.239219414979	1
2	2671	2059.297469747186	0
2	2710	2097.39995021373	1
2	2711	2097.651255071645	0
2	2715	2097.726791532554	1
2	2716	2098.828795412665	0
2	2735	2109.09053429048	1
2	2737	2109.315606694622	2
2	2738	2109.420075006954	1
2	2741	2110.470757597856	0
2	2755	2114.388465223577	1
2	2756	2115.266171096495	0
2	2765	2116.574927595122	1
2	2767	2116.762599215255	2
2	2768	2117.669779956509	1
2	2771	2118.740597769786	0
2	2780	2121.000480817968	1
2	2781	2121.052566089181	0
2	2885	2193.710095600746	1
2	2886	2194.715143312547	0
2	2940	2239.665731238112	1
2	2941	2239.736666215999	0
2	2945	2239.844696530195	1
2	2946	2240.619091629093	0
2	2980	2259.318109290161	1
2	2981	2259.968792622089	0
2	3035	2284.522147084042	1
2	3036	2284.711881450919	0
2	3055	2305.087413617965	1
2	3057	2305.935296818266	2
2	3058	2305.935529435526	1
2	3061	2306.877457889456	0
2	3065	2306.911812896614	1
2	3066	2307.684696432583	0
2	3070	2308.577723322154	1
2	3073	2308.791029424693	0
2	3205	2429.070600178728	1
2	3208	2429.376835792027	0
2	3240	2447.689509363051	1
2	3242	2448.242693143068	2
2	3243	2448.606721311604	1
2	3249	2448.885673316566	2
2	3250	2449.687297613436	1
2	3253	2450.642565246934	0
2	3257	2451.651329422164	1
2	3258	2451.664836862853	0
2	3262	2452.099829472535	1
2	3263	2452.576083469095	0
2	3267	2452.663744632763	1
2	3268	2453.762121458894	0
2	3275	2455.204731779452	1
2	3276	2455.744798526337	0
2	3320	2497.319113069152	1
2	3321	2497.437549703356	0
2	3350	2526.09664645786	1
2	3351	2526.485883535891	0
2	3360	2534.648431716235	1
2	3361	2534.786287972042	0
2	3380	2545.216005032177	1
2	3381	2545.776789625202	0
2	3407	2570.499179527297	1
2	3408	2571.416544954358	0
2	3485	2644.737312690545	1
2	3486	2645.287863755242	0
2	3495	2654.386119818228	1
2	3496	2655.323458543331	0
2	3505	2656.858226961195	1
2	3507	2657.230693761774	2
2	3508	2657.351927391258	1
2	3511	2658.244853990343	0
2	3530	2669.800539438958	1
2	3531	2670.496952683191	0
2	3555	2697.155967423115	1
2	3556	2697.497955885956	0
2	3575	2707.787980981336	1
2	3576	2708.866450146701	0
2	3620	2761.142274339939	1
2	3621	2761.711167988208	0
2	3630	2764.415960488539	1
2	3632	2764.56925030044	2
2	3633	2764.646701836755	1
2	3636	2765.659179884457	0
2	3675	2816.487639815191	1
2	3676	2816.699630490207	0
2	3710	2845.745860647569	1
2	3711	2846.162882224727	0
2	3810	2910.91331320538	1
2	3811	2911.54525622269	0
2	3820	2920.169411734688	1
2	3821	2920.946901467052	0
2	3835	2926.026946944847	1
2	3836	2926.407195299138	0
2	3880	2987.70318863629	1
2	3881	2987.727338483058	0
2	3885	2988.459859074183	1
2	3886	2988.598112675235	0
2	3890	2989.454105765729	1
2	3891	2989.514668202367	0
2	3930	3056.99389702994	1
2	3932	3057.665597318648	2
2	3933	3057.716851302763	1
2	3938	3058.796665668735	0
2	3985	3093.845236723461	1
2	3986	3094.643653829236	0
2	4000	3108.410341182681	1
2	4001	3108.93321266874	0
2	4135	3256.531503882047	1
2	4136	3257.248413287679	0
2	4165	3272.623048642309	1
2	4168	3273.371127328955	0
2	4172	3273.925935395527	1
2	4173	3274.467266208239	0
2	4180	3276.062567997151	1
2	4181	3276.533053812038	0
2	4200	3308.953615153225	1
2	4201	3309.222761586922	0
2	4250	3355.470279730188	1
2	4251	3356.067850652402	0
2	4255	3356.36151105993	1
2	4256	3356.94518451008	0
2	4325	3407.830206546925	1
2	4326	3408.433621692412	0
2	4420	3489.382681422812	1
2	4421	3489.505010491593	0
2	4425	3489.54930675608	1
2	4426	3490.447732525395	0
2	4430	3491.258280150428	1
2	4431	3491.568922674546	0
2	4435	3491.620029514495	1
2	4438	3492.675908982364	0
2	4452	3495.566925011483	1
2	4453	3495.754671070074	0
2	4457	3495.832640603358	1
2	4458	3496.597488108279	0
2	4464	3496.989461169128	1
2	4465	3497.595393994173	0
2	4505	3522.028659944484	1
2	4507	3522.650058132928	2
2	4508	3522.814647670679	1
2	4511	3523.716753476422	0
2	4542	3531.776587302644	1
2	4543	3532.379529802468	0
2	4547	3532.688644609195	1
2	4548	3533.372151146423	0
2	4552	3533.614127962656	1
2	4553	3534.300830195345	0
2	4565	3536.632472651556	1
2	4566	3536.90363168294	0
2	4587	3544.953850436083	1
2	4588	3545.172992497698	0
2	4610	3553.360322278681	1
2	4612	3553.995510154945	2
2	4613	3554.198936908536	1
2	4616	3555.004896912381	0
2	4815	3747.362960473478	1
2	4816	3747.714024898378	0
2	4870	3788.398054125872	1
2	4871	3789.073383777224	0
2	4900	3801.811453557073	1
2	4901	3802.131002036908	0
2	4910	3805.3578467227	1
2	4911	3805.978677103971	0
2	4980	3877.284486612	1
2	4981	3878.420188993884	0
2	5000	3883.525941742936	1
2	5001	3884.584907450009	0
2	5085	3929.829279318334	1
2	5088	3930.459204161832	0
2	5130	3942.663540413025	1
2	5131	3943.052224861556	0
2	5155	3955.988314202638	1
2	5156	3956.005245801854	0
2	5215	4007.982221059876	1
2	5216	4008.57405901777	0
2	5220	4008.952165287551	1
2	5221	4009.706438275449	0
2	5245	4028.108458853187	1
2	5246	4028.441715963267	0
2	5255	4030.798143485717	1
2	5256	4031.444719138929	0
2	5270	4040.170060998361	1
2	5271	4040.388149001876	0
2	5290	4051.861661509132	1
2	5291	4052.546713455448	0
2	5305	4058.890255401334	1
2	5306	4059.000443546173	0
2	5405	4147.282750862392	1
2	5406	4148.03852309976	0
2	5410	4149.079468700609	1
2	5411	4149.211905454474	0
2	5422	4161.23546953747	1
2	5423	4161.404708086087	0
2	5435	4164.390531291083	1
2	5436	4164.649725448313	0
2	5465	4193.135888811287	1
2	5467	4193.273761329992	2
2	5468	4193.843012086603	1
2	5471	4194.70957256595	0
2	5475	4195.183752209794	1
2	5476	4195.51067576839	0
2	5485	4201.854105929139	1
2	5486	4202.228532900719	0
2	5500	4216.102104829643	1
2	5501	4216.311093032004	0
2	5560	4251.90622825829	1
2	5562	4252.563167737201	2
2	5563	4252.747195536582	1
2	5566	4253.849109094622	0
2	5675	4369.552028894315	1
2	5676	4370.328853557329	0
2	5710	4399.847652517987	1
2	5711	4400.388584954434	0
2	5720	4401.845527563445	1
2	5721	4402.541302562181	0
2	5780	4460.983996611782	1
2	5781	4461.762029623901	0
2	5825	4492.721831412197	1
2	5826	4493.551378870831	0
2	5830	4493.9819333187	1
2	5831	4494.67188823864	0
2	5855	4514.202433071177	1
2	5856	4514.745366812899	0
2	5910	4564.856190252928	1
2	5911	4565.739139505959	0
2	5980	4632.084555369527	1
2	5981	4632.977165058215	0
2	6025	4669.151957685545	1
2	6028	4669.686940135639	0
2	6145	4773.956566674471	1
2	6146	4774.681434930054	0
2	6180	4843.308484975672	1
2	6181	4843.446557419879	0
2	6190	4848.579531379316	1
2	6191	4849.108272667145	0
2	6260	4927.894316996246	1
2	6261	4927.926247156168	0
2	6350	4994.72661860854	1
2	6351	4994.939625961106	0
2	6410	5052.129866703495	1
2	6411	5052.794181595336	0
2	6490	5115.669153855352	1
2	6491	5116.694893469216	0
2	6530	5137.722026307393	1
2	6532	5137.807964207848	2
2	6533	5138.366566068315	1
2	6536	5139.532672675335	0
2	6575	5159.510141306231	1
2	6576	5160.362835083427	0
2	6600	5179.298083701153	1
2	6601	5179.458860291188	0
2	6605	5180.426388508232	1
2	6606	5180.493549537492	0
2	6610	5180.872866145794	1
2	6611	5181.641032804661	0
2	6660	5213.360313874254	1
2	6661	5214.238257312914	0
2	6665	5214.421345521082	1
2	6666	5215.296785636665	0
2	6710	5259.416101906094	1
2	6711	5259.931980507757	0
2	6752	5313.669605598768	1
2	6754	5314.139194971045	2
2	6755	5314.178736945898	1
2	6758	5315.115694033731	0
2	6765	5316.87241556197	1
2	6766	5317.03349452848	0
2	6810	5366.102701040131	1
2	6811	5366.302769554404	0
2	6820	5368.6610848603	1
2	6821	5369.373045078077	0
2	6825	5370.061854470009	1
2	6826	5370.305107539211	0
2	6835	5371.57815996319	1
2	6838	5372.239588174381	0
2	6845	5373.109881062935	1
2	6846	5374.151073586725	0
2	6890	5416.917406856943	1
2	6891	5417.598066881309	0
2	6900	5418.51020278503	1
2	6903	5419.546314900379	0
2	6910	5421.633556083898	1
2	6911	5421.805403576522	0
2	6965	5479.83208008793	1
2	6966	5480.422978044005	0
2	7170	5691.019118637694	1
2	7171	5691.338767399071	0
2	7180	5692.38459943596	1
2	7181	5693.241414224999	0
2	7190	5695.415169699118	1
2	7191	5695.532163617192	0
2	7230	5728.542982837553	1
2	7231	5728.827591516977	0
2	7245	5781.657041076545	1
2	7246	5781.975571570618	0
2	7255	5797.571376659482	1
2	7256	5797.68729593395	0
2	7265	5799.871729078401	1
2	7266	5800.285367018648	0
2	7270	5800.68789284912	1
2	7271	5801.334360967588	0
2	7280	5804.544770201458	1
2	7281	5804.600680996755	0
2	7310	5819.767551335851	1
2	7311	5820.157684035265	0
2	7320	5821.762602440255	1
2	7321	5822.024237498027	0
2	7362	5858.675955823335	1
2	7363	5859.597133074524	0
2	7420	5893.211642675527	1
2	7421	5893.614113542867	0
2	7475	5931.275607251856	1
2	7476	5931.683824698128	0
2	7480	5932.527044028136	1
2	7483	5932.666898606777	0
2	7545	5998.361068794037	1
2	7546	5998.650059338724	0
2	7580	6024.800181127501	1
2	7581	6025.32799875421	0
2	7595	6027.647749983497	1
2	7596	6028.297804815616	0
2	7605	6029.682095254871	1
2	7606	6030.523975269231	0
2	7625	6036.693592584105	1
2	7626	6037.452098157106	0
2	7720	6125.92251981389	1
2	7721	6126.066108082459	0
2	7732	6131.348879779319	1
2	7733	6131.568561411706	0
2	7930	6275.942990042458	1
2	7931	6276.166274278956	0
2	7935	6276.389631208791	1
2	7936	6277.002245814791	0
2	8010	6327.585778183088	1
2	8011	6327.817315865538	0
2	8045	6354.080312400268	1
2	8046	6354.235426831522	0
2	8130	6459.092256231157	1
2	8131	6459.203875450543	0
2	8185	6488.925906905196	1
2	8186	6489.226896568543	0
2	8265	6557.870598003197	1
2	8266	6558.561369353874	0
2	8280	6567.176054635237	1
2	8283	6567.977788144646	0
2	8287	6568.120920072162	1
2	8288	6568.855617952736	0
2	8340	6636.325719622978	1
2	8341	6636.42844678391	0
2	8350	6638.111531950502	1
2	8351	6638.322770902554	0
2	8390	6673.909330156074	1
2	8393	6674.796600263102	0
2	8405	6678.295765186386	1
2	8406	6678.843382596276	0
2	8480	6744.53501367916	1
2	8481	6744.781250105059	0
2	8495	6747.235253161098	1
2	8496	6748.014617388274	0
2	8555	6773.862036745377	1
2	8556	6774.851701166547	0
2	8570	6793.288311715038	1
2	8571	6794.342857671886	0
2	8575	6794.769068870595	1
2	8576	6795.536578362885	0
2	8590	6801.103252566167	1
2	8591	6801.216640584528	0
2	8595	6801.337038433363	1
2	8596	6802.362263661328	0
2	8605	6807.662510409341	1
2	8606	6807.80811325424	0
2	8610	6808.464479232561	1
2	8611	6808.990426074347	0
2	8622	6830.126076062612	1
2	8623	6830.586850406806	0
2	8725	6900.72128635031	1
2	8726	6901.63580574966	0
2	8735	6904.817213074575	1
2	8736	6905.885938685393	0
2	8745	6910.606457198564	1
2	8746	6910.774829833968	0
2	8750	6910.81918852772	1
2	8751	6911.641171295396	0
2	8765	6918.268015224295	1
2	8766	6918.54006239591	0
2	8780	6929.172627029813	1
2	8781	6929.936747689321	0
2	8800	6946.892854750402	1
2	8801	6947.433123052966	0
2	8890	7074.386732419386	1
2	8891	7075.367102081733	0
2	8900	7078.301508340347	1
2	8901	7078.581794895674	0
2	8950	7142.240001224942	1
2	8951	7142.784347462383	0
2	8997	7170.672334662511	1
2	8999	7170.789334896077	2
2	9001	7170.926140985642	3
2	9002	7170.958439943884	2
2	9006	7171.309194720044	3
2	9007	7171.854153295272	2
2	9010	7172.676935805232	1
2	9014	7172.79208633156	2
2	9015	7173.487064421308	1
2	9020	7174.585590238348	0
2	9065	7214.131258195711	1
2	9066	7215.058862796704	0
2	9095	7225.529111800062	1
2	9096	7225.838140426016	0
2	9315	7422.666574439025	1
2	9316	7422.738819160968	0
2	9350	7446.792073087753	1
2	9351	7447.767562079006	0
2	9355	7448.142425897098	1
2	9356	7448.580819777814	0
2	9395	7465.113785988318	1
2	9396	7465.960317785986	0
2	9460	7533.342172524902	1
2	9461	7533.453258662066	0
2	9475	7539.079465800566	1
2	9476	7539.453582405009	0
2	9480	7539.510773855888	1
2	9481	7540.388270940621	0
2	9530	7604.520804929409	1
2	9531	7604.904653376789	0
2	9600	7638.786161146439	1
2	9601	7638.829991432805	0
2	9615	7642.291697874931	1
2	9616	7642.855731733193	0
2	9690	7715.563942768734	1
2	9692	7715.573048523754	2
2	9693	7716.59561234846	1
2	9696	7717.644807886921	0
2	9720	7732.366254530307	1
2	9723	7732.933041815057	0
2	9750	7755.258643165576	1
2	9751	7755.557494829581	0
2	9802	7787.447781657999	1
2	9803	7787.484505807066	0
2	9810	7788.956849222917	1
2	9811	7789.304166835469	0
2	9815	7789.416904526947	1
2	9816	7790.203983534702	0
2	9825	7791.83075187233	1
2	9826	7792.366173596998	0
2	9855	7803.257050095252	1
2	9858	7804.34826848574	0
2	9870	7817.766782291566	1
2	9871	7818.794293828329	0
2	9905	7849.347197032043	1
2	9906	7849.726268186183	0
2	9950	7902.866155656573	1
2	9951	7902.946553941075	0
2	10030	8015.459842688282	1
2	10031	8015.708590951504	0
2	10045	8022.65626702864	1
2	10046	8022.845723889063	0
2	10140	8092.859895993497	1
2	10141	8093.587600703404	0
2	10170	8107.380679573155	1
2	10171	8107.642902917076	0
2	10250	8163.676471254114	1
2	10251	8163.744404726232	0
2	10255	8163.801984054857	1
2	10256	8164.719518825541	0
2	10260	8165.453993854207	1
2	10261	8165.85931292571	0
2	10265	8165.914355407256	1
2	10266	8166.929525966047	0
2	10275	8170.576475455118	1
2	10276	8170.823105441883	0
2	10280	8171.002779007327	1
2	10281	8171.848035964474	0
2	10345	8221.473213024066	1
2	10346	8222.540357889975	0
2	10407	8270.587320659982	1
2	10408	8270.777147234624	0
2	10415	8272.667130289825	1
2	10416	8272.689269491678	0
2	10445	8290.972760054649	1
2	10446	8291.303186206176	0
2	10455	8293.106107181946	1
2	10456	8293.791306686909	0
2	10460	8293.817739576333	1
2	10461	8294.988657884714	0
2	10465	8295.177172552648	1
2	10467	8296.035579515788	2
2	10468	8296.169557334152	1
2	10471	8297.170763487411	0
2	10490	8319.651732228673	1
2	10491	8319.658637281101	0
2	10520	8329.786999112094	1
2	10521	8330.422337830886	0
2	10550	8348.674932325728	1
2	10553	8349.641867710641	0
2	10557	8350.342034977775	1
2	10558	8350.593494969691	0
2	10562	8350.714704133948	1
2	10563	8351.501934336956	0
2	10567	8351.565738033736	1
2	10568	8352.535201758511	0
2	10635	8410.941599380305	1
2	10636	8411.227592899332	0
2	10640	8411.350288327175	1
2	10641	8412.130727019588	0
2	10665	8423.94678710009	1
2	10666	8424.280210207794	0
2	10690	8449.001649871515	1
2	10691	8449.329878021529	0
2	10720	8482.210868131302	1
2	10721	8483.107786353819	0
2	10775	8530.578131573584	1
2	10776	8530.863294809854	0
2	10780	8531.914236841715	1
2	10781	8531.950539357664	0
2	10790	8534.726120081562	1
2	10791	8535.394469312316	0
2	10905	8611.446151263458	1
2	10906	8612.456596163384	0
2	10915	8619.69449635632	1
2	10916	8620.077549201435	0
2	10960	8659.737726018831	1
2	10961	8659.966711965707	0
2	11060	8736.260421365546	1
2	11061	8736.656826169449	0
2	11095	8758.559703865614	1
2	11096	8759.567006819072	0
2	11105	8775.642310016319	1
2	11106	8775.904721336275	0
2	11135	8812.918200188761	1
2	11136	8813.742560403496	0
2	11170	8833.554526074328	1
2	11171	8833.945491198082	0
2	11192	8861.640153716109	1
2	11193	8861.784335431044	0
2	11240	8912.748216181777	1
2	11241	8913.510731518088	0
2	11245	8913.766384920044	1
2	11246	8914.557292597095	0
2	11250	8915.240934208183	1
2	11251	8915.751115277136	0
2	11330	8960.142119876593	1
2	11331	8960.429280392677	0
2	11340	8962.707268272019	1
2	11341	8963.782242789197	0
2	11390	9007.01524991607	1
2	11391	9007.567994506671	0
2	11395	9008.109111108697	1
2	11396	9008.684207842233	0
2	11400	9009.142315981686	1
2	11401	9009.844805962419	0
2	11405	9010.365250275565	1
2	11406	9011.017024590274	0
2	11495	9094.200282133794	1
2	11496	9095.114320400394	0
2	11515	9115.253173238586	1
2	11517	9115.808400717403	2
2	11518	9116.080950356968	1
2	11522	9116.08098452509	2
2	11525	9117.069862351142	1
2	11528	9118.080460896291	0
2	11550	9135.868445480793	1
2	11552	9135.997476179642	2
2	11553	9136.675318046095	1
2	11556	9137.703319577029	0
2	11560	9138.468929547824	1
2	11561	9138.542588439206	0
2	11585	9152.757789326151	1
2	11586	9153.735399476583	0
2	11610	9175.71212730403	1
2	11611	9176.678042137888	0
2	11615	9176.693873140348	1
2	11616	9177.643069356852	0
2	11620	9178.426834541682	1
2	11621	9178.777627212168	0
2	11635	9186.745520267807	1
2	11636	9187.163224419015	0
2	11640	9187.21744430097	1
2	11641	9188.217631817325	0
2	11655	9191.664081652638	1
2	11656	9191.812381115673	0
2	11695	9220.655253300155	1
2	11696	9221.62701236761	0
2	11760	9281.003294239016	1
2	11762	9281.696124681811	2
2	11763	9281.866762087352	1
2	11766	9282.933463902722	0
2	11865	9354.023709830478	1
2	11866	9355.04190151972	0
2	11895	9378.210993270009	1
2	11897	9378.847167726606	2
2	11898	9378.863500924567	1
2	11901	9379.728093577894	0
2	11940	9430.743500945833	1
2	11941	9431.073691539888	0
2	11955	9433.798352398738	1
2	11956	9434.712436584423	0
2	11975	9442.082636095698	1
2	11976	9442.916498717145	0
2	12105	9547.222665861373	1
2	12106	9547.575475172835	0
2	12140	9578.932646193784	1
2	12141	9579.902146554935	0
2	12165	9601.753913442785	1
2	12167	9602.170548088658	2
2	12168	9602.535249530057	1
2	12171	9603.695163782778	0
2	12190	9643.530615063841	1
2	12191	9644.508757192232	0
2	12270	9704.057650046316	1
2	12271	9705.001079193447	0
2	12295	9725.756985930693	1
2	12296	9726.694562867141	0
2	12335	9751.635172129987	1
2	12338	9751.898512723209	0
2	12350	9753.951826759198	1
2	12353	9754.697477108338	0
2	12395	9830.812317628859	1
2	12396	9830.874822939239	0
2	12505	9916.016653722238	1
2	12507	9916.143189951704	2
2	12508	9916.797888721352	1
2	12512	9917.652264160179	2
2	12513	9917.858016311949	1
2	12516	9918.739729478782	0
2	12545	9948.180916209913	1
2	12546	9948.58227161874	0
2	12595	9977.321207455394	1
2	12598	9977.462300942875	0
2	12604	9977.666331486049	1
2	12606	9978.098063048473	2
2	12607	9978.34187454706	1
2	12611	9978.62279914627	2
2	12612	9979.474760233182	1
2	12615	9980.524700849168	0
2	12619	9980.640579152691	1
2	12620	9981.718520542737	0
2	12660	10015.852209361461	1
2	12661	10015.890482238215	0
2	12700	10030.715457772385	1
2	12701	10031.259923049139	0
2	12705	10031.642804628058	1
2	12706	10032.424359598553	0
2	12715	10033.825448325422	1
2	12717	10034.234746622857	2
2	12718	10034.904611442143	1
2	12722	10035.251087968324	2
2	12723	10035.820340373086	1
2	12726	10036.761808737273	0
2	12760	10052.89857440335	1
2	12761	10053.526060528974	0
2	12845	10104.185146983721	1
2	12846	10104.892606133988	0
2	12872	10111.308856300799	1
2	12873	10111.667051346877	0
2	12880	10113.856520751078	1
2	12881	10113.914895773397	0
2	12900	10128.875314470908	1
2	12902	10129.633878094513	2
2	12903	10129.661087602056	1
2	12906	10130.583003778435	0
2	12970	10178.376101033316	1
2	12971	10178.927543034039	0
2	12985	10182.956429638411	1
2	12986	10183.630660245394	0
2	13045	10233.026373342557	1
2	13046	10233.585699941485	0
2	13080	10241.511927863669	1
2	13081	10242.113723308263	0
2	13095	10254.309857839483	1
2	13096	10255.046094673012	0
2	13105	10258.469044536439	1
2	13108	10258.997638264289	0
2	13155	10314.634510124832	1
2	13156	10314.665527733406	0
2	13160	10314.848378989569	1
2	13163	10315.559698782759	0
2	13167	10316.320273990284	1
2	13168	10316.44696108223	0
2	13175	10317.834556424187	1
2	13176	10318.449748089715	0
2	13200	10335.751286439637	1
2	13202	10335.790268482739	2
2	13203	10336.016933654639	1
2	13206	10337.155455627031	0
2	13240	10366.205476921548	1
2	13241	10366.706452868496	0
2	13270	10376.737393779254	1
2	13271	10377.508177938846	0
2	13285	10381.964831129814	1
2	13286	10382.612922766687	0
2	13295	10384.262753444559	1
2	13296	10384.439361185463	0
2	13315	10403.063021552937	1
2	13316	10404.009143019631	0
2	13330	10425.465839896568	1
2	13331	10426.294053032539	0
2	13360	10445.008235162653	1
2	13361	10445.040716841753	0
2	13455	10523.630926113836	1
2	13457	10523.675656397266	2
2	13458	10524.327223482335	1
2	13463	10525.284481740722	0
2	13550	10576.134423465105	1
2	13551	10576.609339950819	0
2	13560	10577.935616837884	1
2	13561	10578.327600196403	0
2	13575	10589.290771842366	1
2	13576	10590.232943815363	0
2	13595	10615.900641609575	1
2	13596	10616.492271439022	0
2	13735	10734.879606756306	1
2	13736	10735.340845516864	0
2	13740	10735.506871222435	1
2	13741	10736.399288531653	0
2	13745	10736.772539548414	1
2	13746	10737.373541381843	0
2	13830	10847.177943215517	1
2	13832	10847.23492802141	2
2	13833	10847.946252681186	1
2	13836	10849.058794899994	0
2	13840	10849.076430986276	1
2	13841	10850.125077166559	0
2	13845	10850.649082282792	1
2	13846	10851.259295423945	0
2	14040	11058.551407585603	1
2	14041	11058.944326722596	0
2	14050	11061.173752854074	1
2	14051	11061.328006505195	0
2	14100	11084.031068909181	1
2	14101	11084.814579866934	0
2	14115	11089.074000021283	1
2	14116	11090.04850846696	0
2	14175	11131.066322233325	1
2	14176	11131.115876322069	0
2	14185	11136.817599609823	1
2	14186	11137.881945772326	0
2	14265	11175.092878385541	1
2	14266	11175.329896162233	0
2	14275	11177.03505060005	1
2	14276	11177.467169585938	0
2	14350	11243.986866142007	1
2	14351	11244.092159626658	0
2	14387	11265.653777644655	1
2	14388	11266.015657631077	0
2	14402	11269.13606350093	1
2	14403	11269.274410491485	0
2	14410	11270.356655419324	1
2	14411	11271.095836964577	0
2	14430	11281.169421151414	1
2	14431	11281.897744463289	0
2	14495	11326.77797657713	1
2	14496	11327.048998602985	0
2	14500	11327.338883836448	1
2	14501	11327.868160938046	0
2	14530	11336.359786369984	1
2	14532	11336.48856184292	2
2	14533	11336.978924536235	1
2	14537	11337.888581842457	2
2	14538	11338.131277118153	1
2	14543	11339.158205035883	0
2	14547	11339.474925241208	1
2	14549	11339.941164181893	2
2	14550	11340.070757460217	1
2	14553	11341.115949015594	0
2	14575	11354.980512969489	1
2	14576	11355.663454162133	0
2	14585	11357.482087869375	1
2	14586	11357.582013118723	0
2	14665	11431.888763050534	1
2	14666	11432.763708593809	0
2	14700	11465.949174423952	1
2	14701	11466.712027287222	0
2	14715	11484.161611037394	1
2	14716	11484.92216077799	0
2	14790	11568.146759595208	1
2	14791	11568.297028249653	0
2	14840	11603.395507589496	1
2	14841	11603.901739019983	0
2	14855	11615.003677443191	1
2	14856	11615.809669039126	0
2	14880	11626.675477175965	1
2	14881	11627.861235248813	0
2	14985	11776.618320040843	1
2	14986	11777.312890304785	0
2	15015	11802.89011308551	1
2	15016	11803.203537516682	0
2	15045	11811.050298019099	1
2	15046	11811.182837785182	0
2	15060	11815.999961559378	1
2	15061	11816.172822959829	0
2	15065	11816.954852287619	1
2	15066	11817.217442312293	0
2	15070	11817.9989699844	1
2	15071	11818.190015869417	0
2	15080	11838.823899542952	1
2	15081	11838.929460126195	0
2	15125	11863.362848250394	1
2	15126	11864.013426141767	0
2	15140	11877.333810981522	1
2	15141	11877.699762557284	0
2	15177	11900.265616044814	1
2	15178	11900.415515779281	0
2	15255	11981.194575442525	1
2	15256	11981.375994988958	0
2	15295	12016.874674520111	1
2	15296	12017.174278267324	0
2	15325	12068.915385110575	1
2	15326	12069.397928411881	0
2	15350	12084.582594156998	1
2	15351	12084.808877320977	0
2	15355	12084.990308996228	1
2	15356	12085.798732289223	0
2	15395	12119.578174627482	1
2	15396	12120.28518491202	0
2	15450	12162.827183104075	1
2	15451	12163.147190004148	0
2	15455	12163.912614772936	1
2	15456	12164.340986818102	0
2	15510	12216.076470705479	1
2	15511	12217.029160807986	0
2	15555	12255.768898314996	1
2	15558	12256.405531238153	0
2	15595	12313.087461020792	1
2	15596	12313.489556881459	0
2	15610	12318.705427830835	1
2	15611	12318.992084467431	0
2	15625	12325.877491032886	1
2	15626	12326.378636251777	0
2	15665	12350.519025602424	1
2	15666	12351.320703314868	0
2	15690	12386.582664853091	1
2	15691	12386.966904482763	0
2	15700	12388.846022459982	1
2	15701	12389.540553298716	0
2	15730	12409.994272517792	1
2	15731	12410.475995265275	0
2	15735	12410.652879449358	1
2	15736	12411.39309983845	0
2	15740	12411.395945589684	1
2	15741	12412.404871560215	0
2	15755	12420.854958846582	1
2	15756	12421.840620733267	0
2	15845	12478.375629013314	1
2	15846	12479.235378825033	0
2	15977	12592.124473257226	1
2	15978	12592.250515569822	0
2	15982	12592.330116075619	1
2	15983	12593.210018586629	0
2	16130	12707.126936784748	1
2	16131	12707.469637350373	0
2	16165	12737.646743074469	1
2	16166	12738.205748004831	0
2	16230	12799.665752749692	1
2	16231	12800.319176773686	0
2	16310	12886.901364436053	1
2	16311	12886.938480115183	0
2	16320	12890.883755728229	1
2	16321	12890.912653505962	0
2	16325	12891.238018994174	1
2	16326	12891.879719583012	0
2	16345	12911.058021747175	1
2	16346	12911.874108898839	0
2	16380	12923.185241878946	1
2	16383	12923.367342184971	0
2	16387	12923.498774789129	1
2	16388	12924.487524594947	0
2	16400	12927.525036387733	1
2	16401	12927.967003631611	0
2	16455	12973.621627830803	1
2	16456	12974.330281339709	0
2	16460	12974.545642726367	1
2	16461	12975.449183629018	0
2	16485	12990.526818393648	1
2	16486	12991.263368100283	0
2	16490	12991.501647948054	1
2	16491	12992.263565575128	0
2	16500	12993.965052080369	1
2	16501	12994.906021003701	0
2	16515	12998.366447584036	1
2	16516	12999.260461120415	0
2	16555	13018.304254416625	1
2	16556	13018.710435732879	0
2	16590	13054.010884316639	1
2	16591	13054.432928589401	0
2	16595	13054.71560481924	1
2	16597	13055.072675979296	2
2	16599	13055.300514859244	3
2	16600	13055.571428342392	2
2	16603	13056.527769890563	1
2	16607	13057.520634475847	2
2	16608	13057.582388629993	1
2	16611	13058.635943353219	0
2	16700	13140.902329319378	1
2	16701	13141.541875999089	0
2	16760	13217.492385738632	1
2	16761	13217.539095193038	0
2	16765	13217.694591449095	1
2	16766	13218.531826337876	0
2	16790	13238.585766679041	1
2	16791	13239.026625551541	0
2	16860	13291.2021604484	1
2	16861	13291.906552044087	0
2	16890	13318.837783618047	1
2	16891	13319.211246308673	0
2	17020	13391.54711046183	1
2	17021	13391.831593173055	0
2	17085	13484.314657042095	1
2	17086	13484.393685507393	0
2	17130	13508.056164316858	1
2	17131	13508.699304698214	0
2	17150	13513.48047447886	1
2	17151	13513.80132657777	0
2	17165	13521.378228357475	1
2	17166	13521.727868323473	0
2	17170	13522.402918399298	1
2	17171	13522.747101683056	0
2	17175	13523.426742496398	1
2	17177	13523.626027351823	2
2	17178	13523.796450939382	1
2	17182	13523.801017319467	2
2	17183	13524.613022572155	1
2	17187	13524.983308085197	2
2	17188	13525.714314682203	1
2	17191	13526.743860001563	0
2	17210	13558.028441974722	1
2	17211	13558.0883841228	0
2	17240	13578.083844853148	1
2	17243	13578.53393711433	0
2	17275	13614.329763904508	1
2	17276	13614.602286903414	0
2	17340	13643.105898935997	1
2	17341	13643.352596901302	0
2	17345	13644.331592870185	1
2	17346	13644.49100838475	0
2	17400	13682.080400473746	1
2	17401	13682.085602263845	0
2	17420	13713.323840410755	1
2	17421	13713.440973346122	0
2	17425	13713.972699592661	1
2	17426	13714.506773073133	0
2	17435	13720.436519895004	1
2	17436	13721.283708045134	0
2	17445	13723.160838955393	1
2	17447	13723.570895194276	2
2	17448	13723.70032178254	1
2	17452	13724.559980533648	2
2	17453	13724.732868802521	1
2	17456	13725.684019769888	0
2	17460	13726.173978544297	1
2	17462	13726.704704991599	2
2	17463	13726.872987535104	1
2	17467	13727.605974680725	2
2	17468	13727.82597900347	1
2	17471	13729.017089075662	0
2	17475	13729.019401339558	1
2	17476	13730.11120008479	0
2	17492	13735.124385943365	1
2	17493	13735.991269878697	0
2	17515	13760.998714646313	1
2	17516	13761.034265100344	0
2	17530	13767.817059679789	1
2	17531	13768.916956003473	0
2	17590	13801.823707395704	1
2	17591	13802.31874165439	0
2	17595	13802.449828057849	1
2	17597	13803.285817798135	2
2	17598	13803.289615350095	1
2	17601	13804.448326844787	0
2	17615	13808.65927566696	1
2	17616	13808.921663729183	0
2	17620	13809.166885827357	1
2	17621	13809.961117266386	0
2	17662	13849.466622059909	1
2	17663	13849.844216990355	0
2	17700	13869.964153745069	1
2	17701	13870.676219495288	0
2	17710	13879.397249548637	1
2	17711	13879.48058634848	0
2	17720	13880.957622851336	1
2	17721	13881.493756877357	0
2	17770	13933.855272571752	1
2	17771	13934.728701537049	0
2	17775	13934.984395747794	1
2	17776	13935.807890649925	0
2	17785	13937.227200476532	1
2	17786	13937.543050810799	0
2	17795	13943.642841238119	1
2	17796	13943.947674587056	0
2	17905	14029.804851280404	1
2	17906	14030.322422536259	0
2	17910	14031.141048697474	1
2	17911	14031.448914602568	0
2	17915	14031.955315055392	1
2	17916	14032.277314238513	0
2	17950	14081.085906577926	1
2	17953	14081.248214085597	0
2	17957	14081.391868866611	1
2	17958	14082.083797505509	0
2	18005	14120.656072172565	1
2	18006	14121.27807111826	0
2	18045	14188.474431912631	1
2	18046	14189.023908409552	0
2	18085	14215.658755471946	1
2	18086	14216.539619551531	0
2	18100	14220.453449631489	1
2	18102	14220.54829690443	2
2	18103	14220.795037534684	1
2	18106	14221.765638294015	0
2	18190	14298.775761477937	1
2	18191	14299.047419913117	0
2	18220	14318.598981523195	1
2	18221	14319.232925181985	0
2	18235	14325.817995590001	1
2	18236	14326.501989530658	0
2	18240	14326.837004706261	1
2	18241	14327.532039202356	0
2	18250	14333.685528419793	1
2	18251	14333.834070381563	0
2	18275	14344.678068150235	1
2	18276	14345.323811130758	0
2	18282	14345.662581108833	1
2	18283	14346.136068518713	0
2	18287	14346.282437369536	1
2	18288	14347.144942584142	0
2	18292	14348.215992416368	1
2	18293	14348.246213660084	0
2	18385	14400.684072900347	1
2	18386	14401.474056028288	0
2	18460	14457.217616174965	1
2	18461	14457.950453039169	0
2	18480	14477.795621975031	1
2	18481	14478.395782942874	0
2	18510	14500.179382204769	1
2	18511	14500.810359744798	0
2	18535	14536.769896154907	1
2	18536	14537.514521576672	0
2	18550	14566.762412392404	1
2	18551	14567.008232823201	0
2	18570	14585.890573535808	1
2	18571	14586.229761376193	0
2	18640	14653.908602485573	1
2	18641	14654.237967181094	0
2	18670	14678.85848666707	1
2	18671	14679.415726415112	0
2	18722	14726.848556411379	1
2	18723	14727.422807139227	0
2	18735	14733.899864959565	1
2	18736	14734.599924995699	0
2	18745	14736.749704485579	1
2	18746	14736.848341216942	0
2	18750	14737.295433276901	1
2	18751	14737.70552270492	0
2	18780	14768.5341784421	1
2	18781	14769.272080845936	0
2	18805	14805.431696312506	1
2	18806	14806.052726038096	0
2	18825	14825.703591497488	1
2	18826	14825.875241328367	0
2	18835	14827.281841557999	1
2	18836	14827.990599728898	0
2	18865	14860.288825981468	1
2	18866	14860.540119711366	0
2	18875	14862.881946865097	1
2	18877	14863.051257810949	2
2	18878	14863.125196692583	1
2	18883	14864.091665135466	0
2	18950	14897.658035388901	1
2	18951	14898.175893533158	0
2	18955	14898.250263234039	1
2	18956	14899.374108385782	0
2	19010	14945.743632065972	1
2	19011	14946.754205753445	0
2	19160	15103.06636560066	1
2	19161	15103.125505418139	0
2	19307	15258.709730583859	1
2	19308	15258.821737807386	0
2	19360	15289.403103281995	1
2	19361	15289.585097086807	0
2	19380	15297.442132830171	1
2	19381	15298.218261257312	0
2	19425	15351.909634442615	1
2	19428	15352.211031705902	0
2	19450	15363.358247967861	1
2	19451	15364.104104335648	0
2	19465	15368.004027032128	1
2	19466	15368.026393890451	0
2	19510	15398.328827988002	1
2	19511	15398.545750474845	0
2	19555	15427.507842095994	1
2	19556	15428.126320072766	0
2	19565	15429.791237729467	1
2	19566	15430.054336125533	0
2	19575	15433.032256496227	1
2	19576	15433.439224434387	0
2	19580	15433.999766800192	1
2	19581	15434.520901428465	0
2	19590	15435.97818091596	1
2	19592	15436.661728237013	2
2	19593	15436.824988577072	1
2	19596	15437.90078464786	0
2	19650	15478.307280893065	1
2	19651	15479.135266666775	0
2	19670	15487.477552693006	1
2	19672	15487.783045731887	2
2	19673	15488.334631124932	1
2	19676	15489.245408461012	0
2	19690	15492.135143587755	1
2	19691	15492.767832487962	0
2	19710	15515.544351483058	1
2	19711	15515.739409708857	0
2	19715	15516.540417388352	1
2	19716	15516.68289952024	0
2	19755	15538.991515708805	1
2	19756	15539.150603131362	0
2	19765	15544.584790877119	1
2	19766	15545.505306250477	0
2	19775	15551.796057795415	1
2	19776	15552.335330064078	0
2	19820	15637.389529356225	1
2	19821	15638.271415463896	0
2	19825	15638.644051435195	1
2	19829	15638.88575890523	2
2	19830	15639.101906311666	1
2	19834	15639.453525128786	2
2	19835	15640.189485908361	1
2	19838	15640.992632669551	0
2	19842	15641.540580146599	1
2	19843	15642.005846940322	0
2	19910	15737.18628713841	1
2	19911	15737.761912827612	0
2	19937	15754.157308922063	1
2	19938	15754.240166032778	0
2	19945	15755.58392827773	1
2	19948	15756.317278398944	0
2	19985	15803.885215554606	1
2	19987	15804.428540347547	2
2	19988	15805.0114414129	1
2	19993	15806.035186146438	0
2	20055	15845.121529073394	1
2	20056	15846.1647155321	0
2	20080	15853.548219287478	1
2	20081	15854.377207926168	0
2	20125	15879.169712887832	1
2	20127	15879.2515427446	2
2	20128	15879.651437226999	1
2	20131	15880.569479991253	0
2	20175	15922.775055883286	1
2	20176	15923.111396356585	0
2	20180	15923.124762340169	1
2	20181	15924.244899508363	0
2	20190	15926.118081207434	1
2	20192	15926.464637885976	2
2	20193	15926.822860071089	1
2	20196	15927.678161037926	0
2	20220	15937.546671000239	1
2	20221	15937.857973838382	0
2	20335	16004.306921618934	1
2	20336	16005.034760464521	0
2	20430	16090.250913321998	1
2	20431	16090.739662759942	0
2	20505	16165.951315884747	1
2	20506	16167.029171762647	0
2	20515	16168.244558861723	1
2	20518	16168.91432294924	0
2	20535	16172.833958798991	1
2	20536	16172.889171138166	0
2	20545	16174.368825020803	1
2	20548	16175.111474872514	0
2	20555	16176.388594200012	1
2	20556	16177.104631962388	0
2	20590	16204.989031073109	1
2	20591	16205.5451795453	0
2	20600	16208.407931122506	1
2	20603	16208.726991446478	0
2	20607	16209.021637376251	1
2	20610	16209.813725479016	0
2	20630	16216.17817411097	1
2	20631	16216.661419895673	0
2	20800	16374.236553655799	1
2	20801	16375.14676603229	0
2	20825	16400.482884129023	1
2	20826	16401.259994206675	0
2	20830	16401.887382733974	1
2	20831	16402.214583047391	0
2	20845	16419.432932454306	1
2	20846	16419.59927465693	0
2	20850	16419.801569477251	1
2	20855	16420.610695380167	0
2	20905	16466.663824009972	1
2	20906	16466.874994984072	0
2	20935	16487.128871365165	1
2	20937	16487.873418978791	2
2	20938	16488.18660597404	1
2	20942	16488.694518939961	2
2	20943	16489.252142092339	1
2	20946	16490.055136788949	0
2	21005	16523.754885213667	1
2	21006	16524.036562581382	0
2	21080	16595.426235108903	1
2	21081	16595.530777560118	0
2	21085	16595.569131064908	1
2	21086	16596.608150463681	0
2	21120	16632.836274337334	1
2	21122	16632.891513134225	2
2	21125	16633.396770136291	1
2	21128	16634.464029252017	0
2	21132	16634.490158842552	1
2	21134	16634.795240903599	2
2	21135	16635.410447834944	1
2	21139	16635.783849479966	2
2	21140	16636.414935890445	1
2	21143	16637.523436915734	0
2	21150	16638.679619444541	1
2	21151	16639.52740431833	0
2	21155	16640.338794990212	1
2	21156	16640.558446661708	0
2	21160	16641.30798073647	1
2	21161	16641.425259446212	0
2	21200	16683.538691488149	1
2	21201	16684.433736100307	0
2	21205	16684.665975453007	1
2	21206	16685.468729955217	0
2	21325	16782.366195380035	1
2	21326	16782.374561222935	0
2	21360	16799.732948935207	1
2	21361	16800.039422673507	0
2	21377	16820.232761805067	1
2	21378	16820.356637148386	0
2	21382	16821.13184859284	1
2	21383	16821.478685958976	0
2	21455	16899.42176729814	1
2	21456	16899.868318236024	0
2	21495	16927.214829762125	1
2	21496	16928.028339801998	0
2	21510	16935.64739492104	1
2	21511	16936.502439986299	0
2	21515	16937.236511940086	1
2	21516	16937.598655126187	0
2	21550	16956.675249726688	1
2	21551	16956.954886917977	0
2	21615	16984.324755642325	1
2	21616	16985.152283060889	0
2	21630	16990.832794391635	1
2	21631	16991.259631821789	0
2	21655	17022.172804455584	1
2	21656	17022.426828288211	0
2	21675	17034.822276342196	1
2	21676	17035.176143492356	0
2	21685	17036.40381343607	1
2	21686	17037.358075066999	0
2	21705	17049.731256248564	1
2	21706	17050.211479691028	0
2	21710	17050.625251609104	1
2	21711	17051.070608147963	0
2	21715	17051.798622599452	1
2	21716	17052.172189937609	0
2	21745	17069.380000073633	1
2	21746	17069.95955965813	0
2	21770	17093.576290358067	1
2	21771	17094.182326148659	0
2	21780	17096.29040567515	1
2	21781	17096.637806807411	0
2	21905	17209.095965151665	1
2	21906	17209.821954457635	0
2	21910	17210.630314044854	1
2	21911	17210.773199413983	0
2	21917	17211.55634391928	1
2	21918	17211.602341124868	0
2	21925	17213.574122556784	1
2	21926	17213.801541754125	0
2	21990	17257.544609691124	1
2	21991	17257.912800182115	0
2	22042	17291.664571506679	1
2	22043	17292.007279123018	0
2	22047	17292.520239196704	1
2	22048	17293.134732148728	0
2	22052	17293.986187865293	1
2	22053	17294.135898823782	0
2	22065	17296.479640238987	1
2	22068	17297.128209491006	0
2	22092	17303.378218250878	1
2	22093	17303.757562457467	0
2	22097	17304.246836295294	1
2	22098	17304.928063176735	0
2	22195	17381.058360572572	1
2	22196	17381.086522670354	0
2	22215	17396.047056398234	1
2	22216	17396.773855420587	0
2	22220	17396.794324646186	1
2	22223	17397.762818071445	0
2	22227	17398.477406417028	1
2	22228	17398.823195197539	0
2	22240	17401.876481122711	1
2	22241	17402.066997435981	0
2	22260	17414.194474991899	1
2	22261	17414.632413666248	0
2	22295	17444.510513327663	1
2	22296	17444.658213707972	0
2	22305	17445.754062340808	1
2	22306	17446.535931421704	0
2	22340	17489.862342834671	1
2	22341	17490.366327172137	0
2	22355	17493.650337206741	1
2	22356	17494.637316666848	0
2	22375	17512.005738775622	1
2	22376	17512.954218328666	0
2	22455	17556.126958166618	1
2	22456	17556.151773144785	0
2	22475	17564.529500748641	1
2	22476	17565.199729815641	0
2	22480	17566.120812064269	1
2	22481	17566.203851862674	0
2	22487	17566.59722805091	1
2	22488	17567.208738655088	0
2	22495	17568.761795481068	1
2	22497	17568.837160522488	2
2	22498	17569.063780419113	1
2	22503	17570.205071548516	0
2	22510	17571.626502630362	1
2	22511	17571.940001886575	0
2	22515	17572.089681511944	1
2	22516	17572.799659000295	0
2	22545	17589.684504647213	1
2	22546	17590.174513912127	0
2	22565	17600.105802139738	1
2	22566	17600.545428278228	0
2	22575	17602.664761174778	1
2	22576	17602.802867544107	0
2	22680	17674.834043537241	1
2	22681	17675.318864152565	0
2	22695	17694.312015649993	1
2	22696	17694.588401580009	0
2	22735	17720.830101715789	1
2	22737	17721.385246711186	2
2	22738	17721.452770767259	1
2	22741	17722.56681153317	0
2	22745	17723.143943181181	1
2	22746	17723.761811614214	0
2	22750	17724.565713669783	1
2	22751	17724.852692053272	0
2	22755	17725.042063751052	1
2	22756	17725.849859145927	0
2	22760	17725.879913806106	1
2	22761	17726.759934551633	0
2	22775	17729.839149518796	1
2	22776	17730.833213152849	0
2	22795	17740.244167987466	1
2	22796	17741.066073708867	0
2	22885	17785.735505901427	1
2	22886	17786.091660260248	0
2	22985	17882.113968083771	1
2	22986	17882.931927287994	0
2	23020	17911.84362006892	1
2	23021	17912.272971912234	0
2	23025	17912.439190842865	1
2	23028	17913.251783140882	0
2	23050	17929.21078358763	1
2	23053	17930.214848951142	0
2	23060	17931.577244931082	1
2	23061	17932.184624205049	0
2	23095	17945.843218450131	1
2	23096	17946.778520732942	0
2	23102	17947.157502200846	1
2	23103	17947.745829054351	0
2	23107	17948.328618107388	1
2	23108	17948.799393504123	0
2	23112	17949.032183159465	1
2	23113	17949.967425723291	0
2	23117	17950.955343468713	1
2	23118	17951.024218467913	0
2	23125	17952.256655905943	1
2	23126	17952.914853645406	0
2	23155	17967.949532053534	1
2	23156	17968.117337746538	0
2	23165	17969.608537167589	1
2	23168	17970.256483399395	0
2	23195	17983.697429423815	1
2	23197	17983.989370022661	2
2	23198	17984.28733112708	1
2	23201	17985.269883532527	0
2	23205	17985.757907805665	1
2	23206	17986.317116378977	0
2	23240	18011.648268535352	1
2	23241	18012.21062865597	0
2	23257	18015.908397683105	1
2	23258	18016.589213578611	0
2	23320	18053.897829389879	1
2	23321	18054.626158999864	0
2	23335	18064.767862199725	1
2	23336	18064.984436109698	0
2	23420	18149.334632201888	1
2	23421	18150.073459114113	0
2	23435	18153.540188080493	1
2	23436	18154.000762013728	0
2	23490	18192.122842008123	1
2	23491	18192.634154218598	0
2	23520	18206.003894893221	1
2	23521	18206.154620155338	0
2	23525	18206.753382077587	1
2	23526	18207.262352512236	0
2	23535	18215.646000026102	1
2	23536	18216.220068395197	0
2	23540	18216.414495786847	1
2	23542	18216.486481819162	2
2	23543	18217.294271118253	1
2	23546	18218.34889897887	0
2	23710	18380.075227184316	1
2	23711	18380.429090330539	0
2	23765	18420.24948484401	1
2	23766	18420.406363856121	0
2	23785	18431.877992289732	1
2	23786	18432.0483304808	0
2	23790	18432.140716259463	1
2	23791	18433.054549732626	0
2	23815	18450.247807325781	1
2	23816	18450.764503075829	0
2	23820	18451.097276414542	1
2	23821	18451.915280434577	0
2	23835	18468.762208150762	1
2	23836	18469.38217814613	0
2	23852	18486.06267914283	1
2	23853	18486.109384067268	0
2	23859	18486.806121857538	1
2	23860	18486.93798357612	0
2	23915	18523.106559976768	1
2	23916	18523.320530294652	0
2	23945	18532.576588266519	1
2	23946	18532.826412702264	0
2	23960	18538.572517421731	1
2	23961	18539.531418053826	0
2	23980	18548.549430540215	1
2	23981	18549.366878440456	0
2	24000	18557.04471280721	1
2	24001	18557.558261053502	0
2	24025	18582.585916119399	1
2	24027	18582.728194089206	2
2	24029	18582.996426543194	3
2	24030	18583.46576087264	2
2	24033	18584.287066688795	1
2	24036	18585.393227512051	0
2	24085	18612.422507934324	1
2	24086	18612.619781475247	0
2	24110	18629.476856202585	1
2	24111	18629.61540943604	0
2	24130	18642.22451112592	1
2	24131	18643.316376899926	0
2	24175	18664.097130114731	1
2	24176	18664.903753405446	0
2	24195	18676.309998664383	1
2	24196	18677.120608987607	0
2	24245	18717.447912682154	1
2	24246	18718.03358081037	0
2	24260	18734.611402038082	1
2	24261	18735.337016036351	0
2	24270	18737.047870129585	1
2	24271	18737.106040315134	0
2	24285	18747.690941770827	1
2	24287	18747.796890269971	2
2	24288	18748.234585577406	1
2	24291	18749.426429359864	0
2	24295	18749.699360667952	1
2	24296	18750.420954076916	0
2	24337	18776.601501204457	1
2	24339	18776.699071031645	2
2	24340	18777.371293114249	1
2	24343	18778.478679438059	0
2	24395	18799.570335941873	1
2	24397	18799.623562937726	2
2	24398	18800.747536902713	1
2	24401	18801.588015663276	0
2	24455	18858.129897739397	1
2	24457	18858.723249436742	2
2	24458	18858.898661397034	1
2	24461	18860.048106602309	0
2	24465	18861.014892118687	1
2	24466	18861.045426077498	0
2	24490	18889.136731302397	1
2	24491	18889.505132043882	0
2	24515	18912.348121387038	1
2	24516	18912.92851880541	0
2	24535	18942.568776136433	1
2	24536	18943.245066856655	0
2	24555	18957.370665576927	1
2	24556	18958.102194680346	0
2	24565	18960.27764573126	1
2	24566	18960.514868394712	0
2	24642	19036.296104783758	1
2	24643	19037.08212303443	0
2	24665	19043.326191926729	1
2	24666	19043.674594082397	0
2	24690	19056.022668562616	1
2	24691	19056.897711373411	0
2	24712	19061.587827632702	1
2	24714	19061.679720400942	2
2	24715	19062.105114389358	1
2	24718	19063.231678240893	0
2	24722	19063.344381669447	1
2	24723	19064.25253503598	0
2	24727	19064.498180447456	1
2	24729	19064.504919432889	2
2	24730	19065.077460374736	1
2	24733	19065.966184078489	0
2	24795	19098.545074356782	1
2	24796	19098.681353341765	0
2	24865	19144.927497907461	1
2	24866	19145.536018174752	0
2	24875	19146.619645459355	1
2	24876	19147.468390461854	0
2	24885	19150.488613100289	1
2	24887	19150.71884194809	2
2	24888	19151.255304180502	1
2	24891	19152.288176428198	0
2	24930	19185.588199083462	1
2	24931	19185.830163585092	0
2	24960	19203.951984854713	1
2	24961	19204.711134508437	0
2	24965	19204.9684980602	1
2	24966	19205.706815693619	0
2	24970	19205.818714213628	1
2	24971	19206.857724815699	0
2	25010	19256.353773468981	1
2	25011	19257.17960691457	0
2	25015	19257.425848647453	1
2	25017	19257.906655299041	2
2	25018	19258.129247847063	1
2	25022	19258.170915756902	2
2	25025	19259.214401525868	1
2	25028	19260.113096880684	0
2	25032	19260.641913107105	1
2	25033	19261.078419948886	0
2	25095	19297.577624747337	1
2	25096	19298.366702573518	0
2	25160	19350.470688800233	1
2	25161	19350.786906675795	0
2	25205	19391.160574920184	1
2	25207	19391.289631368411	2
2	25208	19392.078529657963	1
2	25212	19392.371260295767	2
2	25213	19392.995743777863	1
2	25216	19393.813835460021	0
2	25230	19410.592028804768	1
2	25231	19410.662088754452	0
2	25240	19413.261253241636	1
2	25241	19413.372593840091	0
2	25360	19495.352932469342	1
2	25361	19496.273444227257	0
2	25380	19502.830653199913	1
2	25381	19502.83668289811	0
2	25395	19508.860114461199	1
2	25396	19509.379601288619	0
2	25440	19553.614062324914	1
2	25441	19554.349318532176	0
2	25480	19597.465622899883	1
2	25482	19597.711276947511	2
2	25483	19598.045803610742	1
2	25486	19599.068700507138	0
2	25490	19599.735910919249	1
2	25491	19600.00538203264	0
2	25505	19604.861055644235	1
2	25506	19605.692609012306	0
2	25535	19621.489042432798	1
2	25536	19621.954343478521	0
2	25545	19625.88665297991	1
2	25548	19626.593452496437	0
2	25615	19667.693990854454	1
2	25616	19667.72961865837	0
2	25625	19676.140588214649	1
2	25626	19676.5785635442	0
2	25630	19677.601363836109	1
2	25631	19677.647789401607	0
2	25650	19700.936535031499	1
2	25651	19701.083189918681	0
2	25705	19758.684330245225	1
2	25706	19758.788133519916	0
2	25715	19768.649978905879	1
2	25716	19769.611528935947	0
2	25735	19795.596570994932	1
2	25738	19796.063681674158	0
2	25765	19810.452142007512	1
2	25766	19810.775432580943	0
2	25860	19887.617746062123	1
2	25861	19888.269972532469	0
2	25880	19909.253455222784	1
2	25881	19909.391599163984	0
2	25935	19954.627642785621	1
2	25936	19955.134284298559	0
2	26060	20063.266672669912	1
2	26061	20063.83576374642	0
2	26075	20081.21844844467	1
2	26076	20082.019511326573	0
2	26095	20098.669685218124	1
2	26096	20098.711891254487	0
2	26140	20136.495315237346	1
2	26141	20137.519400857296	0
2	26185	20162.303371503446	1
2	26186	20162.550809185231	0
2	26235	20226.527393350619	1
2	26236	20226.636069291243	0
2	26242	20227.243583564675	1
2	26243	20227.779162030825	0
2	26250	20228.871927995323	1
2	26251	20229.721063383454	0
2	26272	20234.526887002531	1
2	26273	20234.64479061282	0
2	26284	20236.253788775917	1
2	26285	20236.619206550538	0
2	26300	20240.337366716067	1
2	26301	20240.586362002239	0
2	26330	20264.567027939072	1
2	26331	20265.193742322518	0
2	26455	20356.724128356316	1
2	26456	20357.021728662847	0
2	26465	20359.021969870615	1
2	26466	20359.168703146631	0
2	26485	20371.180094064964	1
2	26486	20371.984813377462	0
2	26490	20372.612700979804	1
2	26491	20372.896783649843	0
2	26580	20476.854493982336	1
2	26581	20477.103971927576	0
2	26585	20477.458170357517	1
2	26586	20478.123016371355	0
2	26590	20478.44643719188	1
2	26591	20479.063743688688	0
2	26610	20495.229892835641	1
2	26611	20495.585623571172	0
2	26615	20496.092404667452	1
2	26616	20496.476179411251	0
2	26625	20498.136366745122	1
2	26626	20498.219667302713	0
2	26630	20498.41501932958	1
2	26631	20499.118899698079	0
2	26675	20528.345969895363	1
2	26676	20528.939835493626	0
2	26730	20550.845849569197	1
2	26731	20551.703356085651	0
2	26750	20564.074713689865	1
2	26751	20564.576189991045	0
2	26780	20591.908651951036	1
2	26783	20592.987740383508	0
2	26805	20597.749411204182	1
2	26806	20598.343198498716	0
2	26825	20612.332329235762	1
2	26826	20612.5771799445	0
2	27030	20839.219268647912	1
2	27031	20839.250722570053	0
2	27040	20848.30949607004	1
2	27041	20848.431932533463	0
2	27082	20872.193099174484	1
2	27083	20872.791592250039	0
2	27230	20982.053634178941	1
2	27231	20982.503510581174	0
2	27255	21000.523125616512	1
2	27256	21000.62175082674	0
2	27265	21002.880672898311	1
2	27266	21003.503469354184	0
2	27270	21004.292734233472	1
2	27271	21004.353787572765	0
2	27300	21038.88467045541	1
2	27302	21039.163196548476	2
2	27303	21039.55764552117	1
2	27306	21040.541006134028	0
2	27325	21074.643385802335	1
2	27326	21074.885204245855	0
2	27335	21076.717337847727	1
2	27336	21076.770927188903	0
2	27365	21096.984252992177	1
2	27366	21097.681299964032	0
2	27430	21133.337454408237	1
2	27431	21133.913379624496	0
2	27440	21135.456990447522	1
2	27441	21135.852431184157	0
2	27520	21236.984804913765	1
2	27521	21237.373756941177	0
2	27545	21246.742132255422	1
2	27546	21247.243252855673	0
2	27555	21249.070381726053	1
2	27556	21249.411548191555	0
2	27600	21293.265925096129	1
2	27601	21294.152239707773	0
2	27650	21331.915716797397	1
2	27651	21332.651567109402	0
2	27740	21420.504379257195	1
2	27741	21420.776356625289	0
2	27750	21423.369988113306	1
2	27752	21423.739256594948	2
2	27753	21424.435298163466	1
2	27756	21425.253579344343	0
2	27765	21428.871009573286	1
2	27766	21429.07410917855	0
2	27770	21429.942592799733	1
2	27771	21430.128805424787	0
2	27785	21434.189471244127	1
2	27786	21434.950499093596	0
2	27807	21448.022404872819	1
2	27809	21448.039135058834	2
2	27810	21448.082599222118	1
2	27813	21448.894202964304	0
2	27817	21449.391766606449	1
2	27818	21449.822189951705	0
2	27840	21458.425920738503	1
2	27841	21458.679424824916	0
2	27860	21472.237432948788	1
2	27861	21473.013791708154	0
2	27895	21485.834599339572	1
2	27896	21486.146080469834	0
2	27900	21486.781654896293	1
2	27901	21487.176324765319	0
2	27905	21487.407483658211	1
2	27906	21488.025526508996	0
2	27950	21516.288747125226	1
2	27951	21517.045918808063	0
2	28145	21678.909982396851	1
2	28146	21678.979514825613	0
2	28155	21680.896254342608	1
2	28156	21681.238778995081	0
2	28215	21737.4444072084	1
2	28216	21738.016670624256	0
2	28225	21743.863913784493	1
2	28226	21744.065310336478	0
2	28305	21799.846217930867	1
2	28306	21800.047960618787	0
2	28340	21824.205582999938	1
2	28341	21824.351615428353	0
2	28455	21923.300860756071	1
2	28456	21923.449299974878	0
2	28480	21932.258242133741	1
2	28481	21932.794584830627	0
2	28525	21976.16436422675	1
2	28526	21977.011779137142	0
2	28585	22036.168771141649	1
2	28586	22036.38865387258	0
2	28635	22073.779051984411	1
2	28636	22074.666163939607	0
2	28640	22075.05842114395	1
2	28641	22075.671921291851	0
2	28680	22110.55151361214	1
2	28681	22110.877019576184	0
2	28715	22135.512564620133	1
2	28716	22135.694920723787	0
2	28720	22135.954778338539	1
2	28721	22136.513669851603	0
2	28730	22140.552394729503	1
2	28731	22140.559788203528	0
2	28745	22144.188396567297	1
2	28746	22144.422051406713	0
2	28780	22183.833425550882	1
2	28781	22184.380002483453	0
2	28865	22241.859931999615	1
2	28866	22242.334402419235	0
2	28930	22282.208702679221	1
2	28931	22282.587687808064	0
2	28980	22329.92138745307	1
2	28981	22330.625641496747	0
2	29005	22350.059187551211	1
2	29006	22350.980743926194	0
2	29025	22354.711597607058	1
2	29026	22355.288644557974	0
2	29072	22380.409896247399	1
2	29073	22381.204822256114	0
2	29085	22406.016301321279	1
2	29087	22406.689515007143	2
2	29088	22406.760048428395	1
2	29091	22407.812832948224	0
2	29095	22408.01541257037	1
2	29096	22408.999550161542	0
2	29145	22455.518410338192	1
2	29146	22456.41751380791	0
2	29160	22499.728712094816	1
2	29161	22500.04814755781	0
2	29175	22505.794174690398	1
2	29176	22506.685596088104	0
2	29185	22509.893445662487	1
2	29186	22509.896036606253	0
2	29200	22518.617101158232	1
2	29201	22519.567279335503	0
2	29260	22591.425531897515	1
2	29261	22591.625891057092	0
2	29315	22668.772409471763	1
2	29316	22669.256025828285	0
2	29320	22669.434868555194	1
2	29321	22670.1401140885	0
2	29340	22686.568890713564	1
2	29341	22686.678240367138	0
2	29375	22714.003470919247	1
2	29376	22714.640321642614	0
2	29525	22839.36075612515	1
2	29526	22839.86619534899	0
2	29530	22840.421530095309	1
2	29531	22840.828477308494	0
2	29535	22841.689394040871	1
2	29536	22841.826347249155	0
2	29550	22853.770760395948	1
2	29551	22854.448087701684	0
2	29575	22863.793702848487	1
2	29576	22864.15774187051	0
2	29670	22987.535055593029	1
2	29672	22988.07468683526	2
2	29673	22988.172218801582	1
2	29676	22989.017674573546	0
2	29680	22989.42270948699	1
2	29681	22989.947900528962	0
2	29685	22990.248963816426	1
2	29688	22991.097793343513	0
2	29692	22991.153915564339	1
2	29693	22991.988201025444	0
2	29755	23022.189696297211	1
2	29758	23023.239721447149	0
2	29780	23055.55071659785	1
2	29781	23055.607915884212	0
2	29785	23056.102628080536	1
2	29786	23056.448965443068	0
2	29800	23060.938962004398	1
2	29801	23061.788290195522	0
2	29840	23082.620317694591	1
2	29841	23083.21529447698	0
2	29860	23090.594296391088	1
2	29861	23091.479658337129	0
2	29890	23115.256678199076	1
2	29892	23115.509319599883	2
2	29893	23115.524314964712	1
2	29897	23115.631778927861	2
2	29898	23116.354484483563	1
2	29901	23117.259418057334	0
2	29970	23156.576251178472	1
2	29971	23157.068675343086	0
2	30020	23202.722848987623	1
2	30023	23203.082105651289	0
2	30055	23235.772218578272	1
2	30056	23235.797521237581	0
2	30065	23238.746255701631	1
2	30067	23239.340973947636	2
2	30068	23239.74318682585	1
2	30071	23240.725399185494	0
2	30100	23275.094285805241	1
2	30101	23275.382352173928	0
2	30105	23276.084723069625	1
2	30106	23276.290747234639	0
2	30160	23306.050061769937	1
2	30161	23306.785664692246	0
2	30255	23364.429331278005	1
2	30256	23365.273990203527	0
2	30260	23365.372193450699	1
2	30261	23366.117072621168	0
2	30270	23371.392470374899	1
2	30271	23371.587475222365	0
2	30295	23401.279447952847	1
2	30296	23401.524026847088	0
2	30405	23498.323904543894	1
2	30406	23498.585921053008	0
2	30430	23516.452332752522	1
2	30431	23517.244886730176	0
2	30480	23552.91199573259	1
2	30481	23553.636220997628	0
2	30500	23560.803476950801	1
2	30501	23560.832884565759	0
2	30525	23583.105043823736	1
2	30526	23583.735310749463	0
2	30540	23591.759448192719	1
2	30541	23592.320590749787	0
2	30545	23592.804692616663	1
2	30546	23593.496887671513	0
2	30550	23594.210025249191	1
2	30551	23594.637114634023	0
2	30595	23613.300829825116	1
2	30596	23613.31118488122	0
2	30650	23661.252809928562	1
2	30651	23661.823361768318	0
2	30665	23670.653432337787	1
2	30666	23671.052822161604	0
2	30690	23685.455594268228	1
2	30692	23686.197771120745	2
2	30693	23686.291842377209	1
2	30696	23687.093932418735	0
2	30700	23687.986418098097	1
2	30701	23688.003613728588	0
2	30705	23688.837613101937	1
2	30706	23688.88232444909	0
2	30755	23709.826340188659	1
2	30757	23710.740562950033	2
2	30758	23710.946438013113	1
2	30761	23711.834724134582	0
2	30765	23712.172203550054	1
2	30766	23712.691662812794	0
2	30800	23727.29079656272	1
2	30801	23728.116183927435	0
2	30945	23866.403370970798	1
2	30946	23866.823071817068	0
2	31055	23988.171157006727	1
2	31056	23988.719368684327	0
2	31095	24014.877211137903	1
2	31096	24015.163386395803	0
2	31100	24015.190156598434	1
2	31103	24016.003320636178	0
2	31150	24067.609325700445	1
2	31151	24067.66663959205	0
2	31165	24087.300353137077	1
2	31166	24087.666904135148	0
2	31245	24198.876168188503	1
2	31246	24198.944720066931	0
2	31295	24264.809956444884	1
2	31296	24265.627761139476	0
2	31325	24303.736784192951	1
2	31326	24303.917795908365	0
2	31340	24317.777633398613	1
2	31341	24318.279001860768	0
2	31345	24318.597533481631	1
2	31346	24319.338167078775	0
2	31365	24336.202488357512	1
2	31366	24336.42748362846	0
2	31395	24373.532660115439	1
2	31396	24374.235067514347	0
2	31430	24410.344003755529	1
2	31431	24411.119211006316	0
2	31475	24450.524792114789	1
2	31476	24450.852464690379	0
2	31485	24452.290203881394	1
2	31486	24452.848642972293	0
2	31652	24589.515462605948	1
2	31653	24589.717389867053	0
2	31715	24661.228082828583	1
2	31716	24661.347827449126	0
2	31720	24661.847680595898	1
2	31721	24662.412384544464	0
2	31750	24685.979523095289	1
2	31751	24686.763630632451	0
2	31755	24687.140348733497	1
2	31756	24687.892592770653	0
2	31760	24688.228386026845	1
2	31761	24688.777442415385	0
2	31795	24703.770221525553	1
2	31796	24704.688404562134	0
2	31820	24713.752656734596	1
2	31821	24714.206854777567	0
2	31895	24785.257344100445	1
2	31896	24785.45781495004	0
2	31985	24861.991100201438	1
2	31986	24862.164832538034	0
2	32020	24872.822820530868	1
2	32021	24873.143100812826	0
2	32120	24958.804850273381	1
2	32121	24959.083224848259	0
2	32135	24974.579644717565	1
2	32136	24974.958499803836	0
2	32150	24983.036456795665	1
2	32151	24983.164024590611	0
2	32185	25002.384065625717	1
2	32186	25002.980162049755	0
2	32252	25079.750729783449	1
2	32253	25079.872038504873	0
2	32265	25083.834330443719	1
2	32266	25084.552183387781	0
2	32287	25093.297275054907	1
2	32288	25093.546291563755	0
2	32360	25163.993927653642	1
2	32361	25164.339946319021	0
2	32380	25169.946979025661	1
2	32381	25170.729596167115	0
2	32385	25171.088278281048	1
2	32388	25171.903776122221	0
2	32470	25247.34503775825	1
2	32471	25247.907958530875	0
2	32545	25297.882392248577	1
2	32546	25298.659567409909	0
2	32595	25323.764836728464	1
2	32596	25323.919432114991	0
2	32600	25324.155270698596	1
2	32601	25325.05422759186	0
2	32677	25359.13440790662	1
2	32678	25360.154226168411	0
2	32825	25468.683687065291	1
2	32826	25469.57546483868	0
2	32845	25491.838403271458	1
2	32846	25492.028553822973	0
2	32880	25550.966487057456	1
2	32881	25551.642556624908	0
2	32920	25576.655332945176	1
2	32921	25577.65421107554	0
2	32945	25605.995776131434	1
2	32946	25606.964405754364	0
2	32965	25617.335810125546	1
2	32967	25617.38563222138	2
2	32968	25618.272770098842	1
2	32971	25619.181898536871	0
2	33100	25766.201157870046	1
2	33101	25766.597103942298	0
2	33130	25795.022514997364	1
2	33131	25795.087171641125	0
2	33142	25796.589700467226	1
2	33143	25797.076233385823	0
2	33147	25797.227352018057	1
2	33150	25798.128691586427	0
2	33154	25798.488514504539	1
2	33157	25799.067836331803	0
2	33164	25801.113858275591	1
2	33165	25801.140308432415	0
2	33180	25804.375247109219	1
2	33182	25804.631834900491	2
2	33183	25805.517943945009	1
2	33186	25806.713334123738	0
2	33205	25821.752643718213	1
2	33206	25822.535338676155	0
2	33245	25866.391584497719	1
2	33246	25867.17148940578	0
2	33250	25867.460734854099	1
2	33251	25868.184769533909	0
2	33255	25868.317759529879	1
2	33256	25869.204417574554	0
2	33340	25927.416000633873	1
2	33341	25928.108174492521	0
2	33350	25929.921789319607	1
2	33351	25930.054740914379	0
2	33405	25966.51465858816	1
2	33406	25966.878814035265	0
2	33410	25967.259468815195	1
2	33411	25967.799597734662	0
2	33470	26013.912989416452	1
2	33471	26014.296631986557	0
2	33477	26014.779614144657	1
2	33478	26015.245460198729	0
2	33505	26027.479362142777	1
2	33506	26027.600222771155	0
2	33515	26031.660179634753	1
2	33516	26031.946553929929	0
2	33555	26084.726981062153	1
2	33556	26085.388929305036	0
2	33600	26131.042650019826	1
2	33601	26131.415824695142	0
2	33625	26145.362231891824	1
2	33626	26145.435719749475	0
2	33630	26146.172575663554	1
2	33631	26146.257020069616	0
2	33650	26151.427100851744	1
2	33651	26152.121462360565	0
2	33665	26171.044409082516	1
2	33666	26171.622024407693	0
2	33725	26216.189255627778	1
2	33726	26216.933421788611	0
2	33755	26248.619291859531	1
2	33756	26249.101608820849	0
2	33805	26294.143548401009	1
2	33806	26295.016130968119	0
2	33830	26315.484359236336	1
2	33831	26315.728758590883	0
2	33905	26383.793319913984	1
2	33906	26383.959408166754	0
2	33960	26410.219677580409	1
2	33961	26410.715358873145	0
2	34030	26496.031550982834	1
2	34031	26496.773983878913	0
2	34070	26548.59117896049	1
2	34071	26549.497456923464	0
2	34135	26646.308605785467	1
2	34136	26646.513895997288	0
2	34190	26696.186761756583	1
2	34191	26696.264454641378	0
2	34200	26698.217614612206	1
2	34201	26699.032541736144	0
2	34205	26699.644305172658	1
2	34207	26700.035372585238	2
2	34208	26700.19800226048	1
2	34211	26701.224875716329	0
2	34220	26704.213259813105	1
2	34221	26704.833590307161	0
2	34225	26705.079119006577	1
2	34226	26705.927932226918	0
2	34235	26709.011794140829	1
2	34236	26709.081895471821	0
2	34245	26710.663018734554	1
2	34247	26710.682123158	2
2	34248	26711.66280578106	1
2	34252	26712.196096870663	2
2	34253	26712.620839491126	1
2	34256	26713.488009949227	0
2	34275	26732.103592195793	1
2	34276	26732.374932557343	0
2	34295	26741.544298597352	1
2	34296	26741.908630856193	0
2	34305	26744.001877373536	1
2	34306	26744.070588191902	0
2	34310	26744.799415869175	1
2	34311	26744.946388307983	0
2	34325	26757.386851219059	1
2	34326	26758.286138021656	0
2	34345	26778.904433293554	1
2	34346	26780.00293823242	0
2	34355	26781.577453647541	1
2	34356	26782.233746786796	0
2	34360	26782.899355317254	1
2	34362	26782.936563028747	2
2	34363	26783.164466842737	1
2	34366	26784.275931288775	0
2	34370	26784.285818841526	1
2	34371	26785.076100715164	0
2	34405	26807.458032239593	1
2	34407	26808.063592627147	2
2	34408	26808.267860719922	1
2	34411	26809.345218191097	0
2	34430	26823.710828034173	1
2	34431	26824.144436084761	0
2	34510	26888.661546503026	1
2	34511	26889.231709426591	0
2	34555	26921.337786586311	1
2	34557	26922.057167935311	2
2	34558	26922.0812068772	1
2	34561	26923.187872382948	0
2	34570	26931.453892704627	1
2	34571	26932.102074372443	0
2	34670	27024.94175892622	1
2	34671	27025.26791336441	0
2	34680	27035.459997928623	1
2	34682	27035.772471232134	2
2	34683	27036.438429544321	1
2	34686	27037.467766360487	0
2	34705	27055.245688060527	1
2	34706	27055.352706347919	0
2	34730	27071.80951390833	1
2	34731	27071.995242495683	0
2	34755	27082.412672772552	1
2	34756	27082.560587845264	0
2	34780	27095.615999461254	1
2	34781	27096.097135214957	0
2	34815	27128.979623462598	1
2	34816	27129.557882379551	0
2	34835	27150.859440279118	1
2	34837	27151.291916297647	2
2	34838	27151.42140124493	1
2	34841	27152.457918477866	0
2	34850	27168.067016382723	1
2	34851	27168.670192954347	0
2	34915	27212.129385989339	1
2	34916	27212.566275755075	0
2	34930	27218.241316555786	1
2	34931	27218.448466439114	0
2	34962	27242.543153242286	1
2	34963	27243.070670438126	0
2	35015	27266.931753127127	1
2	35016	27267.170017996728	0
2	35025	27268.850565141581	1
2	35026	27269.455212302618	0
2	35045	27277.045336807758	1
2	35046	27277.523181137473	0
2	35060	27294.186617743075	1
2	35061	27294.698348858505	0
2	35115	27358.917559590814	1
2	35116	27359.403835365541	0
2	35130	27385.711541200301	1
2	35131	27386.631756938443	0
2	35235	27520.068197494972	1
2	35236	27520.928258738009	0
2	35240	27521.180322529221	1
2	35242	27521.516080456684	2
2	35243	27521.747168609308	1
2	35247	27521.959212347112	2
2	35248	27522.684258000826	1
2	35252	27523.007878192761	2
2	35253	27523.77051138514	1
2	35256	27524.754098292154	0
2	35260	27525.395774046783	1
2	35261	27525.729590881609	0
2	35270	27528.007339961083	1
2	35272	27528.235274382814	2
2	35273	27528.754273965773	1
2	35276	27529.697037655306	0
2	35280	27530.188246001842	1
2	35283	27530.558977461797	0
2	35380	27588.98015981696	1
2	35381	27589.758525551155	0
2	35392	27591.593956602906	1
2	35393	27592.083081594125	0
2	35397	27592.371854513174	1
2	35398	27593.049704435483	0
2	35420	27618.345625253258	1
2	35421	27619.292334764968	0
2	35440	27628.217485204597	1
2	35441	27629.127996294879	0
2	35480	27667.224991161608	1
2	35481	27668.079075037718	0
2	35485	27668.602914691988	1
2	35486	27668.889029541828	0
2	35500	27677.446778194875	1
2	35501	27678.29896735115	0
2	35545	27711.684739764033	1
2	35546	27711.758685159525	0
2	35645	27786.106983863495	1
2	35648	27787.121128503186	0
2	35730	27858.463222715945	1
2	35731	27858.722596295531	0
2	35735	27859.065745053871	1
2	35736	27859.695912347808	0
2	35740	27859.766051865944	1
2	35741	27860.593396379128	0
2	35750	27866.307506031499	1
2	35751	27866.49875526408	0
2	35775	27886.857578278563	1
2	35776	27887.419568282034	0
2	35830	27933.150931776878	1
2	35831	27933.207206506215	0
2	35835	27934.251714347875	1
2	35836	27934.340991052173	0
2	35880	27969.909279223968	1
2	35881	27969.912140596169	0
2	35917	28010.515052568036	1
2	35918	28010.773309392268	0
2	35925	28012.473349330479	1
2	35926	28012.934097199859	0
2	35985	28063.098509037924	1
2	35986	28063.462943767788	0
2	36060	28098.698473894657	1
2	36063	28099.585863508645	0
2	36090	28119.104494659767	1
2	36092	28119.441475058793	2
2	36093	28120.003895199863	1
2	36098	28120.876326815976	0
2	36115	28129.085746107483	1
2	36116	28130.243781494214	0
2	36120	28131.128725284852	1
2	36121	28131.381501354608	0
2	36280	28224.462302819952	1
2	36282	28224.776204465893	2
2	36283	28224.995081706758	1
2	36286	28226.050086264632	0
2	36350	28273.093077008582	1
2	36353	28273.657067146325	0
2	36390	28289.062280985774	1
2	36391	28289.842148562253	0
2	36425	28305.21835638933	1
2	36426	28305.44808840663	0
2	36445	28309.892494961136	1
2	36446	28310.352462379707	0
2	36460	28314.846422920249	1
2	36463	28315.269508469468	0
2	36490	28330.211963789875	1
2	36491	28330.260241733868	0
2	36545	28384.179792587426	1
2	36546	28384.869168722065	0
2	36560	28412.214314121272	1
2	36561	28412.565323452058	0
2	36590	28436.830069270884	1
2	36593	28437.870904439504	0
2	36680	28506.669607216223	1
2	36682	28507.09928846777	2
2	36683	28507.78515169579	1
2	36686	28508.67737225979	0
2	36700	28514.94969374807	1
2	36701	28515.768425785315	0
2	36830	28654.378574343385	1
2	36831	28654.918038761567	0
2	36855	28664.818229829326	1
2	36856	28665.498229274724	0
2	36900	28708.961456925109	1
2	36902	28709.393847623813	2
2	36903	28709.474954957162	1
2	36906	28710.362024502662	0
2	36910	28710.905946966371	1
2	36911	28711.383070623987	0
2	36915	28711.479770878498	1
2	36916	28712.267300609425	0
2	36920	28712.460190884532	1
2	36921	28713.249438059908	0
2	36925	28713.395801195173	1
2	36926	28714.430361031667	0
2	36952	28768.950498771524	1
2	36953	28769.752857150987	0
2	36960	28770.823372351033	1
2	36961	28771.775158058864	0
2	36980	28789.185671077779	1
2	36981	28790.109700582825	0
2	37000	28803.276963363285	1
2	37001	28803.700779946955	0
2	37010	28812.660075896362	1
2	37011	28812.745613356976	0
2	37015	28813.149660465307	1
2	37016	28813.761951492185	0
2	37050	28863.430288429842	1
2	37051	28864.146411008712	0
2	37067	28868.731960332777	1
2	37068	28868.974919930586	0
2	37075	28870.914659436927	1
2	37076	28870.989353370687	0
2	37080	28871.895579681601	1
2	37081	28871.897941060664	0
2	37095	28875.498445764209	1
2	37096	28876.493320113358	0
2	37105	28886.652908225947	1
2	37108	28887.183124120793	0
2	37112	28887.383584440199	1
2	37113	28888.050722103174	0
2	37117	28888.485481647341	1
2	37118	28889.061200412809	0
2	37125	28890.909949467854	1
2	37126	28890.995834100227	0
2	37140	28911.197981349733	1
2	37141	28911.695405289664	0
2	37190	28935.918519039895	1
2	37191	28936.027342370323	0
2	37285	29022.584481434623	1
2	37286	29022.703882194309	0
2	37305	29041.304957988146	1
2	37306	29041.677480713146	0
2	37375	29094.434033342622	1
2	37376	29095.144265552536	0
2	37420	29170.848224912855	1
2	37423	29171.161903631004	0
2	37435	29182.495192148609	1
2	37436	29183.194426891106	0
2	37485	29225.289606664072	1
2	37487	29225.49548101841	2
2	37488	29225.903801200695	1
2	37491	29227.056635159317	0
2	37505	29232.165167405906	1
2	37506	29233.061870331156	0
2	37530	29244.552102397746	1
2	37531	29245.731616049866	0
2	37655	29352.710140146121	1
2	37656	29353.145119380646	0
2	37660	29353.405702426371	1
2	37661	29354.311970135637	0
2	37675	29357.918666667058	1
2	37676	29358.209261463607	0
2	37685	29368.764326324777	1
2	37688	29369.479407862828	0
2	37710	29374.476084740373	1
2	37711	29374.803329558272	0
2	37770	29420.107455458303	1
2	37771	29420.776232118193	0
2	37780	29424.568788693715	1
2	37781	29425.130214805089	0
2	37795	29435.606039556504	1
2	37796	29436.156146104146	0
2	37820	29444.204989974837	1
2	37821	29444.909432042263	0
2	37855	29477.136733810429	1
2	37856	29477.790343492831	0
2	37875	29497.368282343942	1
2	37876	29497.433043192743	0
2	37920	29527.584649909386	1
2	37921	29527.736892445111	0
2	37990	29567.40425218634	1
2	37992	29567.937402582009	2
2	37993	29568.366531806619	1
2	37996	29569.319599711237	0
2	38010	29577.482574209658	1
2	38011	29577.555188835808	0
2	38095	29609.852562822644	1
2	38096	29610.171215965028	0
2	38120	29615.940336102543	1
2	38121	29616.926386984726	0
2	38135	29621.369937943267	1
2	38136	29621.488688519958	0
2	38140	29621.579004262099	1
2	38142	29622.067954470321	2
2	38143	29622.622401074215	1
2	38146	29623.556392142817	0
2	38230	29686.348921918372	1
2	38231	29687.093729629468	0
2	38237	29687.702736631919	1
2	38238	29687.953343573034	0
2	38242	29687.986304624175	1
2	38244	29688.732198902039	2
2	38245	29688.985125739414	1
2	38248	29689.858696018819	0
2	38265	29698.939395387368	1
2	38267	29698.98838574701	2
2	38268	29699.282035240972	1
2	38271	29700.218679428076	0
2	38275	29700.803842766226	1
2	38276	29701.070710629759	0
2	38280	29701.194017026377	1
2	38281	29702.123814611951	0
2	38285	29702.719320126105	1
2	38286	29703.292815234488	0
2	38290	29703.296030354559	1
2	38291	29704.149673407408	0
2	38305	29716.123119938815	1
2	38306	29716.675009354549	0
2	38390	29788.877659092241	1
2	38391	29789.860212271447	0
2	38475	29847.818952498888	1
2	38476	29848.716491065126	0
2	38495	29858.666719281087	1
2	38496	29858.799287458517	0
2	38500	29859.333015493034	1
2	38501	29859.833930115875	0
2	38560	29930.802290884821	1
2	38562	29931.253952825099	2
2	38563	29931.523857298917	1
2	38568	29932.399153920687	0
3	0	0	0
3	45	37.430053665234	1
3	46	38.460973660375	0
3	520	468.949850541677	1
3	521	469.870556594751	0
3	525	470.818199513649	1
3	526	471.06111835087	0
3	625	587.028464232865	1
3	626	587.119706370833	0
3	655	600.108844834656	1
3	656	600.741488898835	0
3	740	667.861267392258	1
3	741	667.890116715234	0
3	745	667.9278936164	1
3	747	668.729564088833	2
3	748	669.035040627502	1
3	751	670.13646846934	0
3	775	692.750185916218	1
3	776	693.265029371156	0
3	807	727.223371726582	1
3	811	728.827618311488	0
3	1015	862.747499860852	1
3	1016	863.679993404856	0
3	1055	880.286896237161	1
3	1064	881.415031834371	2
3	1073	882.859446727172	3
3	1093	886.361867178601	4
3	1102	889.18407820968	3
3	1110	891.163609969076	2
3	1113	892.159732106254	1
3	1117	892.245226877101	2
3	1118	893.355496016164	1
3	1121	894.181617698651	0
3	1250	1012.891660492779	1
3	1251	1012.938688412815	0
3	1280	1045.974638982349	1
3	1281	1046.406400178319	0
3	1305	1057.48925502842	1
3	1306	1058.515332288627	0
3	1377	1124.087555670964	1
3	1381	1125.708682347145	0
3	1430	1187.89357113155	1
3	1431	1188.887085984335	0
3	1470	1237.834172392388	1
3	1471	1238.310160926815	0
3	1560	1303.828961581321	1
3	1561	1304.852360972151	0
3	1652	1381.400349616872	1
3	1656	1382.766493569865	0
3	1670	1387.068237461841	1
3	1671	1387.070362845421	0
3	1700	1414.429530200332	1
3	1701	1415.315160878188	0
3	1745	1447.665120876852	1
3	1746	1448.211287143541	0
3	1765	1454.528069046872	1
3	1766	1455.55177638228	0
3	1810	1493.62181688694	1
3	1811	1493.878057519369	0
3	1862	1520.730993390123	1
3	1866	1522.913329876968	0
3	1900	1534.871680041147	1
3	1901	1535.602530753107	0
3	1955	1579.662571494656	1
3	1956	1579.944625183442	0
3	2015	1662.088823558467	1
3	2016	1662.275194298356	0
3	2075	1694.078117749814	1
3	2076	1694.163343002033	0
3	2100	1707.171752683063	1
3	2101	1707.849417072072	0
3	2175	1751.04030291944	1
3	2176	1751.121898828499	0
3	2245	1803.590412821143	1
3	2252	1804.735102850306	2
3	2253	1805.514770329744	1
3	2256	1806.689617148508	0
3	2270	1809.90405883499	1
3	2271	1810.564515731421	0
3	2275	1810.915549418929	1
3	2276	1811.467282390997	0
3	2430	1911.267101557296	1
3	2431	1911.774924344835	0
3	2470	1956.567966312064	1
3	2471	1956.674308001589	0
3	2480	1957.680998569359	1
3	2481	1958.705813282043	0
3	2510	1974.454640095604	1
3	2511	1975.229467128065	0
3	2545	1997.798412794404	1
3	2546	1998.334952437812	0
3	2580	2021.867744346415	1
3	2581	2022.673634617635	0
3	2610	2041.957386205104	1
3	2611	2042.673839363537	0
3	2630	2048.759044361441	1
3	2631	2049.226749928663	0
3	2635	2049.774060047535	1
3	2636	2050.217080405163	0
3	2675	2060.096959628126	1
3	2676	2060.11618646181	0
3	2750	2113.27568703868	1
3	2751	2114.124872704639	0
3	2790	2129.31408731474	1
3	2791	2129.724740281913	0
3	2805	2132.460811671772	1
3	2806	2132.846415974959	0
3	2830	2159.931168794255	1
3	2831	2160.212824919554	0
3	2860	2180.769427268895	1
3	2861	2181.630500167562	0
3	2975	2257.992502220588	1
3	2976	2258.786343358382	0
3	2985	2260.45015504156	1
3	2986	2261.126301724016	0
3	3005	2269.688670343526	1
3	3006	2270.509089266126	0
3	3072	2308.710947044215	1
3	3076	2309.736319007638	0
3	3145	2379.888842508274	1
3	3146	2380.851825118658	0
3	3207	2429.358647432648	1
3	3211	2430.56973490443	0
3	3247	2448.862344811284	1
3	3271	2454.622613550147	0
3	3375	2544.543710742751	1
3	3376	2544.920891315889	0
3	3385	2546.350705999431	1
3	3386	2546.597210851245	0
3	3405	2570.409537355414	1
3	3411	2572.614973462811	0
3	3455	2621.530044972005	1
3	3456	2621.742581710977	0
3	3460	2622.777638410371	1
3	3461	2622.846531007265	0
3	3500	2656.344317823961	1
3	3501	2656.346653504022	0
3	3550	2695.349023509899	1
3	3551	2696.395660695767	0
3	3705	2844.62895598062	1
3	3706	2845.241513718362	0
3	3730	2852.090847520921	1
3	3731	2852.880941865972	0
3	3735	2853.165787353056	1
3	3736	2853.72168371231	0
3	3740	2853.894568785868	1
3	3741	2854.865828539344	0
3	3765	2883.833338492834	1
3	3766	2884.063522723122	0
3	3825	2921.753600734873	1
3	3826	2922.086126655602	0
3	3937	3058.026973638814	1
3	3941	3059.734871349079	0
3	3955	3078.830975794523	1
3	3956	3079.034689295972	0
3	3980	3092.970273704447	1
3	3981	3093.664959128693	0
3	4167	3272.797388252903	1
3	4176	3275.595672288656	0
3	4210	3318.053123281334	1
3	4211	3318.062146530834	0
3	4225	3332.94512621308	1
3	4226	3333.44247328895	0
3	4260	3357.651683291048	1
3	4261	3357.947797183758	0
3	4305	3387.849314588996	1
3	4306	3388.217470787265	0
3	4375	3445.097456003074	1
3	4376	3445.591649137407	0
3	4385	3448.471035003821	1
[...]
6	33835	26316.542424207861	1.058064971525
6	33840	26318.827399694209	1.038727808092
6	33845	26327.728045848532	0.849350552447
6	33850	26338.375027152839	1.030018163845
6	33860	26345.358496805504	2.315586296887
6	33865	26352.993938860984	0.856673511397
6	33875	26362.012950294829	1.144821432047
6	33880	26369.991981899443	0.882935851626
6	33885	26372.004399103008	1.171446774993
6	33900	26382.824265887576	0.975820134114
6	33907	26383.959408166754	1.090264388081
6	33910	26385.056666421267	1.263346507283
6	33915	26386.338641963791	0.880378650595
6	33920	26388.827911310106	1.144485996291
6	33935	26398.059189976039	0.941642960068
6	33942	26405.78345404928	1.180998174101
6	33962	26410.715358873145	2.937310145992
6	33965	26411.60029056544	1.380612985031
6	33970	26438.525948132322	1.045369864535
6	33980	26446.475416332255	1.009811442718
6	33985	26458.578183188182	0.839630101249
6	33995	26469.134992848017	0.817573076393
6	34035	26497.761732127695	1.730181144861
6	34045	26528.61866672209	1.160861673858
6	34050	26531.766762243867	1.168154908065
6	34060	26538.393840676019	0.85856206594
6	34065	26541.558786241159	0.9158022861
6	34075	26550.606599908473	2.015420947983
6	34080	26555.486899244336	7.003511580411
6	34090	26565.043992294638	0.912385466043
6	34095	26569.816882176835	1.099889789149
6	34100	26579.831630184532	1.011627495289
6	34110	26598.059537808184	0.890368582681
6	34120	26618.653663312612	1.180643739272
6	34137	26646.513895997288	1.034107918199
6	34145	26649.427332700252	4.922353466355
6	34160	26660.892673389093	1.193279466685
6	34175	26667.964730840476	2.529922984251
6	34185	26694.083014522829	1.038605015446
6	34192	26696.264454641378	1.059218227305
6	34209	26700.19800226048	4.011240503897
6	34212	26701.224875716329	3.061630521809
6	34215	26702.422020293609	2.386647708371
6	34222	26704.833590307161	1.045260431431
6	34230	26707.087897848039	2.008778841462
6	34254	26712.620839491126	8.407579678021
6	34257	26713.488009949227	4.476215808398
6	34260	26714.555935866864	2.359838996201
6	34280	26733.433867242093	1.3302750463
6	34300	26743.043000083763	1.498701486411
6	34312	26744.946388307983	0.944510934447
6	34315	26745.752893606504	2.540179975144
6	34330	26759.243884823461	2.980205113348
6	34335	26764.986343784828	0.861844321806
6	34340	26772.018126978966	0.901741854008
6	34350	26780.817361707928	1.912928414374
6	34357	26782.233746786796	3.341662045634
6	34364	26783.164466842737	1.587013195196
6	34372	26785.076100715164	2.139537686417
6	34380	26787.710005807665	4.810650490411
6	34385	26795.990478285791	0.897162509337
6	34412	26809.345218191097	1.887185951504
6	34415	26810.490548825903	2.426956198756
6	34425	26819.872733933467	0.918851199001
6	34437	26825.273816682308	1.562988648135
6	34445	26827.705071135565	0.808827835321
6	34450	26829.907575797079	0.930040472001
6	34455	26838.283303545271	1.113855092321
6	34467	26844.989697569545	3.852759957361
6	34487	26858.201532561122	1.000625564624
6	34500	26885.551256902649	0.972890044004
6	34520	26893.004696166795	7.101244681734
6	34532	26905.451072529101	1.02490989035
6	34559	26922.0812068772	1.136545218155
6	34562	26923.187872382948	1.850085796637
6	34565	26924.361335948432	2.304168013121
6	34575	26933.070027754224	1.616135049597
6	34585	26939.561856701431	3.071240324538
6	34590	26953.9184597331	0.888287292887
6	34595	26959.922592983432	1.012035839818
6	34605	26976.976369717772	1.033173226472
6	34610	26981.150102188287	1.090964915231
6	34615	26982.539359232591	1.129382510204
6	34630	26994.148286650611	0.912643075828
6	34640	27000.315647674514	2.605229091558
6	34647	27002.38280212763	1.129048155993
6	34660	27013.679410198769	2.799226643068
6	34672	27025.26791336441	6.492879644931
6	34675	27026.160616454739	1.218857528519
6	34687	27037.467766360487	2.007768431864
6	34690	27038.298186370093	2.525715137959
6	34700	27044.441652272148	1.096495772339
6	34707	27055.352706347919	1.135339797754
6	34710	27056.477689505602	1.232001445075
6	34737	27072.823181995039	6.388870154815
6	34762	27083.396826261176	3.210406093011
6	34770	27088.487140559515	1.130171420705
6	34782	27096.097135214957	0.947403974272
6	34790	27099.196659168455	3.580659707201
6	34795	27107.367255637848	1.006524961162
6	34800	27114.798032641457	1.051858618297
6	34810	27125.399588605593	0.919540394843
6	34817	27129.557882379551	1.017013817839
6	34820	27130.752774079327	1.773150616729
6	34839	27151.42140124493	2.568327911555
6	34842	27152.457918477866	1.598478198748
6	34845	27153.308520696747	2.0166043991
6	34855	27169.630747551408	1.563731168685
6	34870	27180.357506690517	0.946317935176
6	34877	27188.846573455967	0.838226978201
6	34885	27197.932123950782	0.946926578972
6	34912	27211.694063692578	0.939866272826
6	34920	27213.3766138771	1.247227887761
6	34925	27215.435393630465	0.815134547651
6	34932	27218.448466439114	1.168490584753
6	34935	27219.289804885571	1.048488329785
6	34945	27228.337917030634	2.605608905747
6	34964	27243.070670438126	1.032272240613
6	34967	27244.113398672208	1.570245429922
6	34975	27247.369151017485	0.932981444336
6	34985	27252.692619286584	4.3965314943
6	34990	27254.45420977326	0.929019571841
6	34995	27255.382954885837	0.8956268874
6	35000	27257.194492640244	1.139788386598
6	35010	27265.174871873656	2.095720565378
6	35030	27270.561173278578	3.629420151451
6	35047	27277.523181137473	0.934752360824
6	35050	27278.622266473558	1.5769296658
6	35055	27283.680152588817	1.027986385208
6	35065	27295.892416586373	1.705798843298
6	35070	27297.216313260696	3.591186373565
6	35080	27319.336947718097	0.876616225019
6	35090	27331.893834883234	0.920552396867
6	35100	27335.881475395615	2.18337246884
6	35105	27341.955260922228	0.831380634755
6	35120	27360.318533862374	1.40097427156
6	35132	27386.631756938443	1.096625031251
6	35135	27387.731450378437	2.019909178136
6	35140	27397.763555684268	0.802980031818
6	35155	27418.877565610856	1.140891934279
6	35160	27428.270807735498	1.076990100741
6	35185	27450.600671654572	3.163014645812
6	35190	27462.246827544125	1.190339228418
6	35197	27494.998391495688	0.99287173925
6	35210	27504.738204628018	0.91586914314
6	35215	27508.376935837607	0.918289292231
6	35230	27514.258679804672	1.124884939846
6	35249	27522.684258000826	1.503935471605
6	35254	27523.77051138514	2.254430928456
6	35262	27525.729590881609	2.721712688848
6	35277	27529.697037655306	1.689697694223
6	35287	27531.631373193585	4.055863829516
6	35295	27534.081291174799	14.013093679827
6	35305	27541.16214539446	0.908426653035
6	35310	27544.685501317824	1.031462658104
6	35320	27550.297506474767	2.518177759583
6	35335	27555.649885611286	0.830255561695
6	35342	27558.397060094946	1.017933365051
6	35350	27560.80544657434	0.956652850751
6	35355	27571.683983219418	0.844928003848
6	35362	27576.550477525253	0.904412765801
6	35370	27586.463692126437	1.198374945205
6	35375	27588.34994728274	1.103491180018
6	35399	27593.049704435483	1.455747832577
6	35402	27594.194365004186	5.214205187226
6	35422	27619.292334764968	2.110935969319
6	35427	27620.106518773227	1.760893519969
6	35435	27623.769570255359	0.859581944533
6	35445	27630.321162998796	2.103677794199
6	35455	27645.218618778115	1.108447537385
6	35487	27668.889029541828	1.66403838022
6	35490	27669.743512783136	7.30068544312
6	35495	27673.846312094192	1.014956773445
6	35505	27679.215393137038	1.768614942163
6	35520	27689.41041571309	2.308631712726
6	35530	27698.865455023048	0.840247210581
6	35535	27702.09608072427	0.947629771847
6	35550	27712.559590839995	2.66812418944
6	35562	27726.846159369472	1.133652634267
6	35580	27737.432156537396	3.548324056342
6	35585	27742.42232765139	0.998649786413
6	35590	27751.206272020086	0.991994451638
6	35620	27771.388919947768	4.65550707471
6	35652	27788.261789595195	2.1548057317
6	35665	27802.840529927472	0.812413460854
6	35680	27812.207068927957	5.524521545649
6	35685	27816.685651811137	0.815978914592
6	35695	27822.54111587528	2.692532786451
6	35705	27832.313739830058	1.070957486518
6	35710	27836.206452078988	1.006236632355
6	35715	27842.665650958385	0.968243327644
6	35725	27852.181419120343	0.884931027424
6	35732	27858.722596295531	1.119363490026
6	35742	27860.593396379128	1.527651325257
6	35745	27861.588446897901	3.125224181956
6	35755	27867.602049408558	1.294543377059
6	35782	27888.52672852375	1.669150245187
6	35795	27899.411934148916	0.809328995924
6	35800	27902.195603197561	1.018833091296
6	35805	27906.583353440776	0.8981012173
6	35810	27913.146203269575	1.091978993639
6	35820	27925.519097877133	0.911134272069
6	35825	27930.354879298133	0.998469791654
6	35837	27934.340991052173	1.190059275295
6	35840	27935.188483978555	0.93676963068
6	35850	27939.179139530694	2.669825067045
6	35870	27958.06838783142	5.746223379622
6	35882	27969.912140596169	3.199685313668
6	35885	27970.735215917579	0.825936693611
6	35895	27978.789414742651	0.941849597637
6	35900	27987.169901287243	1.007913941704
6	35905	27991.327432934802	1.037295158859
6	35910	28005.494689692299	0.970397420134
6	35922	28011.815129056359	1.300076488323
6	35930	28013.804420895381	1.331071564902
6	35945	28021.592681654591	1.18459618194
6	35970	28052.817174568323	0.885678107571
6	35975	28054.933501609068	0.801865441445
6	35980	28056.637438700919	0.88547311211
6	35990	28064.558847646261	1.460338608337
6	35995	28074.093392851375	0.927706629224
6	36005	28077.324450190834	2.926614041014
6	36025	28085.966772366201	1.02169509707
6	36032	28087.433508994546	0.815127299819
6	36064	28099.585863508645	4.602859078145
6	36067	28100.718645853351	2.020171958694
6	36080	28106.937068002476	2.271721380844
6	36099	28120.876326815976	1.771832156209
6	36102	28121.891343656561	2.449868597768
6	36122	28131.381501354608	3.94793943655
6	36125	28132.400953978724	3.320619931259
6	36130	28135.021977419537	0.868401076458
6	36155	28157.61742444968	1.149629752804
6	36170	28164.514765292702	0.807437345106
6	36190	28174.548685231026	1.195733560808
6	36200	28178.081970415973	2.074746175856
6	36205	28179.3648123254	0.831069349125
6	36210	28183.410758463148	0.900754668564
6	36220	28191.439046013881	1.014714081306
6	36235	28201.867902493846	0.992518025264
6	36240	28207.203958130739	0.854934292566
6	36250	28209.713493901554	0.80937564075
6	36272	28218.468749187521	1.119875148963
6	36287	28226.050086264632	1.58778344468
6	36290	28226.910007783438	2.133803317545
6	36295	28233.467162883078	0.897966997791
6	36305	28244.787897501026	3.28287782771
6	36310	28248.040188168969	1.092575515434
6	36315	28253.89963761186	1.085231196787
6	36340	28271.26063607143	1.110854403302
6	36359	28274.779856426814	1.686779418232
6	36380	28284.21843547332	1.052314872853
6	36395	28290.835436508723	3.5998937152
6	36402	28291.844137281356	0.887191740796
6	36410	28294.876214482473	1.187258803658
6	36420	28300.909569261544	3.459785254781
6	36432	28306.336501508624	1.118145119294
6	36447	28310.352462379707	0.920619137865
6	36450	28311.391900473906	1.49940551277
6	36464	28315.269508469468	0.918744332623
6	36467	28316.334679579446	1.488256659197
6	36475	28321.321567414414	1.08515992118
6	36495	28331.177556063053	0.965592273178
6	36505	28342.64227012587	1.120988875907
6	36510	28350.832035058474	0.853813444078
6	36515	28356.468363666901	0.95010390887
6	36520	28361.882775894842	0.967431845795
6	36547	28384.869168722065	1.078505011555
6	36555	28386.908592374436	2.72879978701
6	36562	28412.565323452058	1.140213908814
6	36565	28413.604893609102	1.39057948783
6	36570	28416.874945608733	0.996612970717
6	36575	28424.851852920416	1.002340165898
6	36597	28438.944247294034	3.452968059472
6	36622	28447.667951864082	1.136453112122
6	36630	28459.339076997553	1.099403027073
6	36635	28473.077527058731	1.119004468061
6	36655	28478.780913251349	4.95720212653
6	36660	28483.811442041685	0.952026775479
6	36665	28487.672659076727	1.093484142702
6	36670	28501.759130398517	1.037612525281
6	36675	28503.552820819259	0.963715241011
6	36687	28508.67737225979	2.007765043567
6	36690	28509.610617086435	2.511328618665
6	36695	28513.885975077557	0.899500449002
6	36705	28516.788151392837	1.838457644767
6	36720	28528.127397137211	0.931468845997
6	36730	28536.169695983693	1.156053007394
6	36735	28540.441650583896	0.935243469849
6	36745	28558.751160986992	0.860595856048
6	36755	28573.878465253286	0.913953157794
6	36760	28579.590861208574	1.087545626052
6	36790	28612.600398509608	0.825343594141
6	36805	28624.721672318159	2.843200813063
6	36810	28628.071790000196	0.85711463159
6	36815	28633.456526955816	0.926769172773
6	36825	28651.980643584287	1.134813667461
6	36832	28654.918038761567	0.975322186574
6	36840	28658.089313231285	3.7107388879
6	36860	28666.484420527902	5.801052141117
6	36885	28684.144779654814	1.112060334068
6	36890	28692.05379831021	0.989165403321
6	36904	28709.474954957162	1.070725265332
6	36917	28712.267300609425	1.361353643054
6	36922	28713.249438059908	1.76966718141
6	36927	28714.430361031667	5.468904106558
6	36935	28717.442726962835	8.048879339022
6	36945	28767.649331503665	1.011204850301
6	36957	28770.607376462978	1.656877691454
6	36965	28772.759798091196	4.105584036
6	36970	28779.728480718776	1.159883880243
6	36985	28791.016361655757	2.965987896174
6	36990	28793.388639803498	0.814911250398
6	36995	28800.242856666752	1.087241689209
6	37002	28803.700779946955	1.153886422981
6	37005	28804.83742681515	1.560463451865
6	37012	28812.745613356976	0.961118089966
6	37017	28813.761951492185	1.101875595823
6	37020	28814.754674255586	1.605013790279
6	37025	28830.969909516477	0.974026584532
6	37030	28835.181910731523	0.984304348473
6	37035	28841.138127111071	0.888886513282
6	37040	28845.313105431122	0.922450310644
6	37057	28865.335892654535	4.838063671788
6	37069	28868.974919930586	0.842908038851
6	37072	28870.075667242819	1.343706910042
6	37082	28871.897941060664	0.983281623737
6	37085	28872.981644974669	1.086065293068
6	37097	28876.493320113358	2.128497311531
6	37100	28877.34083862494	1.842392860731
6	37119	28889.061200412809	2.813375801314
6	37122	28890.140047644711	1.65456599737
6	37130	28892.069585730116	5.416677504169
6	37142	28911.695405289664	1.192333661299
6	37145	28912.748112328018	1.550130978285
6	37155	28915.241794086874	2.486128639373
6	37160	28922.301719217111	0.949726469349
6	37170	28930.326983097879	1.084479347523
6	37182	28934.184033097218	1.078069597483
6	37195	28936.981078415069	1.062559375174
6	37205	28949.96174193636	1.181094054971
6	37215	28963.962976325472	0.833390256483
6	37220	28965.368018777699	1.073124940787
6	37230	28969.133563039636	2.871011897111
6	37240	28996.083920523765	0.808025977202
6	37245	29007.270522469955	1.144355453085
6	37290	29023.516469325776	0.931987891153
6	37300	29038.84775596307	0.814042039216
6	37310	29042.842838921918	1.537880933772
6	37320	29048.284254210653	0.815384666808
6	37350	29071.792205736895	0.952310167439
6	37360	29087.150611102673	1.012895524688
6	37367	29089.220702937098	1.01289313361
6	37377	29095.144265552536	0.956953221373
6	37380	29096.059002715368	1.624969372746
6	37395	29126.113137518432	1.192074669152
6	37405	29138.985714391013	1.152693690825
6	37424	29171.161903631004	3.207684027931
6	37427	29172.005958933911	1.157734021056
6	37437	29183.194426891106	1.190765852854
6	37440	29184.282213321972	1.787021173363
6	37460	29206.148999076182	0.985003028344
6	37470	29216.608718854979	0.987724125199
6	37475	29217.868568551386	1.030357473157
6	37492	29227.056635159317	1.767028495245
6	37500	29229.244958256021	5.301314089592
6	37510	29233.88122919968	1.716061793774
6	37515	29235.725042766082	0.868259842042
6	37525	29242.769274558314	0.85820783237
6	37532	29245.731616049866	1.188847920671
6	37535	29246.815661334666	2.26355893692
6	37540	29249.660112448775	0.870951836184
6	37550	29253.863764191697	3.867089977459
6	37555	29256.43884881558	1.140570097882
6	37570	29264.590173184835	4.040366076486
6	37580	29284.618593090803	1.066276867781
6	37585	29289.675157177307	1.008375403564
6	37595	29298.23962324508	0.905602013133
6	37605	29301.55314027679	2.151451787315
6	37612	29316.956044404429	1.00491847666
6	37627	29327.762036758731	0.821885772888
6	37650	29347.608248789101	1.131781737972
6	37665	29355.135797641121	2.889988217316
6	37670	29356.986578689683	4.276438543562
6	37677	29358.209261463607	0.994365832862
6	37680	29359.358807737312	1.440141070254
6	37689	29369.479407862828	0.949778186437
6	37694	29370.652953171332	1.888626846555
6	37715	29376.002556816183	1.52647207581
6	37755	29401.428552755538	8.600468356278
6	37760	29407.75151546805	1.079087285604
6	37765	29412.848447067443	1.151783475839
6	37775	29421.662927107826	1.555471649523
6	37782	29425.130214805089	0.816364114918
6	37790	29427.195926111934	2.627137418219
6	37800	29437.323647761882	1.717608205378
6	37805	29438.481285443861	1.08510657521
6	37822	29444.909432042263	3.57917789196
6	37825	29445.849098611496	1.644108636659
6	37830	29454.321923803549	0.97949438449
6	37837	29463.631580618637	0.815874552913
6	37850	29469.644737555003	0.889898729604
6	37860	29478.69592327753	1.559189467101
6	37865	29494.279386421297	0.821525644232
6	37877	29497.433043192743	0.977681841981
6	37882	29498.256401485341	0.888119141399
6	37922	29527.736892445111	0.915262154676
6	37927	29528.539951586821	0.955301677435
6	37940	29542.779826214853	2.771535230691
6	37947	29547.787982186969	1.152007027622
6	37975	29559.992570507874	5.774753682179
6	37985	29563.296352440217	0.979495338164
6	37994	29568.366531806619	1.169595274795
6	38000	29570.162770921917	2.225368339908
6	38005	29573.221281092288	5.817028905948
6	38020	29580.065422192857	2.582847983199
6	38025	29583.188852311852	1.01126643829
6	38037	29587.682882841759	2.090154192207
6	38050	29596.669294837727	2.523823940934
6	38067	29600.965019311254	2.89239744402
6	38075	29603.580547445337	1.105523489974
6	38097	29610.171215965028	3.754248984855
6	38105	29612.290063000423	7.37620002316
6	38110	29613.791728434833	0.958822236862
6	38117	29615.781315669519	1.134575813636
6	38125	29618.076058264644	2.135722162101
6	38144	29622.622401074215	1.252463130948
6	38147	29623.556392142817	1.977387880718
6	38150	29624.492267972406	2.424313502085
6	38155	29634.888010980146	0.856047914084
6	38160	29641.289928231654	0.862012455147
6	38175	29658.531619725551	1.130820860527
6	38180	29662.090116190497	0.884858370945
6	38185	29665.188062304065	0.955264705699
6	38212	29677.371268537439	1.112236856204
6	38246	29688.985125739414	1.282389107495
6	38249	29689.858696018819	3.509774100447
6	38254	29691.026122226946	2.293923324907
6	38272	29700.218679428076	1.279284040708
6	38277	29701.070710629759	2.082324882749
6	38282	29702.123814611951	1.319971845725
6	38287	29703.292815234488	2.098798208111
6	38292	29704.149673407408	1.430353281303
6	38295	29704.962393554183	1.666363199624
6	38307	29716.675009354549	1.097662099916
6	38310	29717.497466996378	1.374347057563
6	38320	29743.542412884063	1.16452454729
6	38325	29747.167276545096	1.195511238836
6	38345	29754.459909902523	5.118996317514
6	38355	29772.989480922965	2.395896576578
6	38370	29779.451470579211	2.223559881163
6	38380	29783.181615457802	1.010429772362
6	38385	29787.969565890453	0.924880358018
6	38395	29790.891372541125	2.013713448884
6	38402	29792.253026605885	3.483300777015
6	38425	29803.479198756783	0.967149090953
6	38435	29809.38134200588	1.955845413696
6	38440	29810.651939780677	1.012621039618
6	38447	29826.871964876759	1.166061716247
6	38460	29837.397600154294	0.927321832534
6	38465	29842.795167432678	0.840165133309
6	38470	29847.207781552755	1.164733022358
6	38480	29849.856524852149	2.037572353261
6	38502	29859.833930115875	1.167210834788
6	38505	29860.769053853683	1.436038360649
6	38510	29879.079280790443	0.940733126644
6	38525	29889.728274801571	1.191184242908
6	38540	29905.915473339837	1.972091575872
6	38555	29928.057789729111	1.177440273855
6	38569	29932.399153920687	1.596863035866
6	38572	29933.495603921316	2.241651096217
6	38580	29954.053739461871	1.067901655287
6	38585	29962.147471009203	1.097805336304
6	38595	29968.791411607046	0.987222057115
6	38610	29982.201905443879	0.911382618546
6	38622	29990.355555219761	3.468893055125
6	38635	29996.284781585909	0.965222470462
6	38640	29998.538342963737	0.953734151088

