version 2
run Second_exit_8-1-20191017-13:44:01-1951
attr configname Second_exit_8
attr datetime 20191017-13:44:01
attr experiment Second_exit_8
attr inifile omnetpp.ini
attr iterationvars ""
attr iterationvarsf ""
attr measurement ""
attr network ResponseTimeNetwork
attr processid 1951
attr repetition 1
attr replication #1
attr resultdir results
attr runnumber 1
attr seedset 1
param **.Source.interArrivalTime exponential(5s)
param **.jobPriority bernoulli(0.6)
param **.PS.serviceTimeU1 "uniform(0.8s, 1.2s)"
param **.PS.serviceTimeU2 "uniform(1.8s, 2.2s)"
param **.SS1.serviceTime exponential(1s)
param **.SS2.serviceTime exponential(1.2s)
param **.PS.exitProbability bernoulli(0.8)

vector 0 ResponseTimeNetwork.SS1 queueLength:vector ETV
attr interpolationmode sample-hold
attr title "queue length, vector"
vector 1 ResponseTimeNetwork.SS2 queueLength:vector ETV
attr interpolationmode sample-hold
attr title "queue length, vector"
vector 2 ResponseTimeNetwork.QueueU1 queueLength:vector ETV
attr interpolationmode sample-hold
attr title "queue length, vector"
vector 3 ResponseTimeNetwork.QueueU2 queueLength:vector ETV
attr interpolationmode sample-hold
attr title "queue length, vector"
vector 4 ResponseTimeNetwork.sink lifeTimeU2:vector ETV
attr interpolationmode none
attr title "lifetime of arrived jobs U2, vector"
attr unit s
vector 5 ResponseTimeNetwork.sink lifeTime:vector ETV
attr interpolationmode none
attr title "lifetime of arrived jobs, vector"
attr unit s
vector 6 ResponseTimeNetwork.sink lifeTimeU1:vector ETV
attr interpolationmode none
attr title "lifetime of arrived jobs U1, vector"
attr unit s
2	0	0	0
2	15	32.855201423597	1
2	16	32.898588875682	0
2	20	33.322565354489	1
2	21	33.966487291829	0
2	35	36.936907714094	1
2	36	37.685564465004	0
2	40	38.097613370098	1
2	43	38.577395353022	0
2	47	39.18841856403	1
2	48	39.600871283955	0
2	52	39.752144201627	1
2	53	40.776522401928	0
2	60	42.283355150921	1
2	61	43.084124857209	0
2	69	43.9066765101	1
2	70	44.161053903981	0
2	155	64.498534193257	1
2	156	65.057820527619	0
2	167	66.888957857942	1
2	168	67.084096834427	0
2	182	69.469878765014	1
2	185	70.124739660966	0
2	192	71.737241175391	1
2	193	72.218739927552	0
2	205	74.323131632512	1
2	206	75.266922842517	0
2	215	76.563234483841	1
2	218	77.317860134683	0
2	222	78.052597397189	1
2	223	78.268893872752	0
2	229	79.325305886323	1
2	230	79.439897304206	0
2	234	79.867248974095	1
2	235	80.46830072905	0
2	243	81.483960181765	1
2	244	81.558699924024	0
2	251	82.948771157399	1
2	253	83.263383131453	2
2	254	83.605568783628	1
2	257	84.706684123716	0
2	266	86.838192555476	1
2	267	86.957996742698	0
2	275	87.527565008134	1
2	276	87.803895130652	0
2	280	88.401572386278	1
2	281	88.746019275944	0
2	291	91.590524243849	1
2	292	91.712722786135	0
2	296	92.443088084225	1
2	297	92.513870916042	0
2	306	93.473969649349	1
2	308	93.483018462129	2
2	311	94.406496417793	1
2	315	94.852971816389	2
2	316	95.490113426736	1
2	319	96.59595045493	0
2	325	97.225921326788	1
2	326	97.402278951267	0
2	333	98.629838976949	1
2	334	99.306670316858	0
2	350	101.950480796677	1
2	351	102.18953589554	0
2	367	104.401640784491	1
2	369	104.430355626752	2
2	370	104.847978821853	1
2	376	105.143318402204	2
2	377	105.991990002049	1
2	381	106.765980854201	2
2	382	106.884693387421	1
2	385	108.021505744746	0
2	395	110.316388914559	1
2	396	110.81087520699	0
2	410	113.809561649905	1
2	411	113.876389284236	0
2	415	114.074796586212	1
2	417	114.565591905236	2
2	420	114.921568520357	1
2	425	115.892693574437	0
2	429	116.296415214962	1
2	431	116.443124747273	2
2	432	116.864046538238	1
2	436	116.92583438716	2
2	439	117.725381931838	1
2	443	118.202190821827	2
2	444	118.56837958115	1
2	447	119.653575174872	0
2	451	120.207211797833	1
2	452	120.677461966582	0
2	456	121.269464495908	1
2	458	121.344160330294	2
2	459	121.529369811703	1
2	463	121.692809668424	2
2	464	122.473695713643	1
2	468	122.794790013647	2
2	469	123.355013010081	1
2	473	123.645800896178	2
2	474	124.215867872991	1
2	478	124.392149939779	2
2	479	125.094039665059	1
2	484	126.126583236911	0
2	491	128.002782262302	1
2	494	128.142437556934	0
2	498	128.683545863299	1
2	499	129.274029915862	0
2	503	129.279754373808	1
2	504	130.136746473693	0
2	508	130.209340978446	1
2	509	130.952619874467	0
2	516	132.633963979162	1
2	517	133.022692233314	0
2	521	133.24145189138	1
2	524	134.218138695684	0
2	531	135.085032837173	1
2	533	135.885649908654	2
2	534	136.080067288586	1
2	538	136.401787841806	2
2	539	137.246644769692	1
2	543	137.388516301547	2
2	546	138.073178702769	1
2	550	138.535347824395	2
2	551	138.958272180696	1
2	555	139.035432350507	2
2	556	139.842341785588	1
2	559	140.707223990083	0
2	563	141.239719575012	1
2	565	141.541250572074	2
2	566	141.649809462846	1
2	571	142.507114665572	0
2	577	143.28330733607	1
2	578	143.537748352707	0
2	588	145.871017345175	1
2	589	146.278546147969	0
2	597	147.35020813095	1
2	599	147.36425793939	2
2	600	147.441672491365	1
2	606	147.708718409858	2
2	609	148.533095450037	1
2	612	149.492139960815	0
2	619	150.889761107541	1
2	620	151.828462546215	0
2	624	152.426833152651	1
2	625	152.999002830674	0
2	631	153.181666356988	1
2	632	154.040727026471	0
2	636	154.838230603219	1
2	639	155.021527669103	0
2	646	156.908455651518	1
2	647	157.154183424347	0
2	656	158.177788490591	1
2	657	158.950045980037	0
2	666	160.370475467704	1
2	667	160.93431913088	0
2	674	162.080298225353	1
2	675	163.053998688785	0
2	684	164.127232639871	1
2	685	165.141100062234	0
2	692	166.485408233598	1
2	693	167.330893991599	0
2	697	167.929102584271	1
2	700	168.489406091059	0
2	745	178.481988488066	1
2	746	179.022523208885	0
2	755	180.787800007266	1
2	756	180.943839789266	0
2	765	181.801178127162	1
2	766	182.8218165161	0
2	778	185.873882478112	1
2	779	185.993913885942	0
2	788	186.921690740049	1
2	790	186.998501365397	2
2	791	187.958354173126	1
2	796	188.897430179725	0
2	807	190.093135572718	1
2	810	191.099471758484	0
2	814	191.650929498604	1
2	815	191.901337083607	0
2	819	192.20813851054	1
2	820	192.969652600019	0
2	824	193.56907983707	1
2	825	193.913579077638	0
2	829	194.188302323051	1
2	830	194.877903618842	0
2	834	195.391198264071	1
2	835	195.890570861466	0
2	839	196.030056767664	1
2	841	196.15439372641	2
2	842	196.939338608917	1
2	845	197.907768511579	0
2	859	200.581413919572	1
2	861	200.613891884113	2
2	862	200.828542300586	1
2	867	201.990079080865	0
2	871	202.734141145025	1
2	873	202.750740926671	2
2	874	202.898162386932	1
2	878	203.25312483228	2
2	879	204.040121564821	1
2	883	204.790293475267	2
2	884	205.184074992587	1
2	887	206.058120713656	0
2	891	206.145364495925	1
2	892	207.151377726247	0
2	896	207.883289911744	1
2	897	208.128900919569	0
2	901	208.148408716887	1
2	903	209.13576498772	2
2	904	209.156444117979	1
2	908	209.48268714344	2
2	909	210.09351968122	1
2	913	210.568212972371	2
2	914	211.175792538368	1
2	918	211.447878091476	2
2	919	212.368919385032	1
2	923	212.569339158469	2
2	924	213.281406141625	1
2	927	214.427441996143	0
2	936	215.464181256049	1
2	937	216.121079894986	0
2	946	217.927279587298	1
2	947	218.172647581522	0
2	957	220.370075147692	1
2	958	221.15068208677	0
2	965	222.619453984742	1
2	966	222.915340341434	0
2	977	224.148613430825	1
2	978	224.917359581955	0
2	987	226.524213786777	1
2	988	226.849650344897	0
2	999	227.999240390621	1
2	1000	229.047898486715	0
2	1007	230.204421877238	1
2	1008	230.91883847899	0
2	1024	233.052728046148	1
2	1026	233.170207622445	2
2	1031	233.883978558697	1
2	1036	234.808109693967	0
2	1040	235.307237780561	1
2	1041	235.957278645683	0
2	1051	237.819737072808	1
2	1052	238.748384674258	0
2	1062	240.811596666077	1
2	1065	241.545937334552	0
2	1074	243.148732512096	1
2	1075	243.747190234989	0
2	1086	244.884077905211	1
2	1087	245.653710163564	0
2	1101	248.053164535325	1
2	1104	248.591687124867	0
2	1110	248.813104145963	1
2	1112	249.008364854793	2
2	1113	249.787875837266	1
2	1116	250.645078170385	0
2	1130	252.960833977165	1
2	1131	253.828798002369	0
2	1153	257.898204984864	1
2	1154	258.810875704597	0
2	1166	261.031666859339	1
2	1167	261.8734979866	0
2	1205	270.159693276249	1
2	1208	270.673567185451	0
2	1217	272.266115690211	1
2	1220	272.405758119647	0
2	1224	273.294690269795	1
2	1227	273.543294292309	0
2	1231	274.200439328848	1
2	1234	274.547750881959	0
2	1240	275.092488866096	1
2	1241	275.643003269185	0
2	1248	277.376716350264	1
2	1249	277.629879327577	0
2	1289	285.896781548251	1
2	1290	286.231431995977	0
2	1332	295.245975336474	1
2	1333	295.608587281958	0
2	1340	297.238848581888	1
2	1341	297.656994785082	0
2	1371	304.290910584559	1
2	1378	304.888486664549	0
2	1390	308.158655931154	1
2	1391	308.32114876387	0
2	1403	311.186219439123	1
2	1404	311.438292556996	0
2	1416	313.95052177327	1
2	1418	314.447421766261	2
2	1419	314.875396226529	1
2	1422	315.931019816171	0
2	1428	316.603775541543	1
2	1429	316.778802635423	0
2	1445	319.337245136548	1
2	1446	319.875471321116	0
2	1453	321.266491309328	1
2	1454	321.99785879347	0
2	1471	325.386104359073	1
2	1472	325.638304422325	0
2	1491	328.941637160386	1
2	1492	329.851192346303	0
2	1504	332.046517292487	1
2	1505	332.832757601882	0
2	1512	333.758188894446	1
2	1515	334.906674987632	0
2	1531	337.656596958675	1
2	1532	337.968404928125	0
2	1547	341.603129639218	1
2	1548	342.052798673787	0
2	1555	343.245905330722	1
2	1557	343.267111999192	2
2	1558	343.944153662862	1
2	1563	344.80461607808	0
2	1572	346.745848627642	1
2	1573	346.812888310196	0
2	1577	346.928346782234	1
2	1580	347.893638922645	0
2	1584	348.168543796975	1
2	1585	349.045347629765	0
2	1589	349.69629842243	1
2	1590	349.984942667929	0
2	1594	350.043593916088	1
2	1595	350.895130742898	0
2	1599	350.948153147014	1
2	1600	351.960771767514	0
2	1604	352.648434194783	1
2	1605	353.072227129804	0
2	1609	353.26830692554	1
2	1610	353.942115188481	0
2	1614	354.7877514064	1
2	1615	355.113364717083	0
2	1640	361.178339515043	1
2	1643	361.368740106837	0
2	1652	362.502816793613	1
2	1654	363.443573028929	2
2	1655	363.500998108645	1
2	1660	364.379354733598	0
2	1664	365.380701897	1
2	1665	365.42927756542	0
2	1669	365.487217816864	1
2	1672	366.420030500271	0
2	1676	366.433253900063	1
2	1677	367.612195233718	0
2	1684	369.088840560028	1
2	1685	369.701060439084	0
2	1689	369.96899757258	1
2	1692	370.68402240602	0
2	1696	370.83213123656	1
2	1697	371.612010981046	0
2	1701	371.730681638786	1
2	1702	372.715322286446	0
2	1706	373.100915403005	1
2	1707	373.912897439763	0
2	1714	375.400815490011	1
2	1715	375.714690320004	0
2	1724	376.821582835924	1
2	1725	377.515068618763	0
2	1732	378.739693098182	1
2	1733	379.172226019852	0
2	1760	385.240188501925	1
2	1761	385.432560033627	0
2	1768	387.632314846897	1
2	1773	387.721555121426	0
2	1787	390.430069649766	1
2	1788	390.688035448172	0
2	1797	392.039805539609	1
2	1800	392.688541573004	0
2	1817	395.566264254496	1
2	1821	396.355325406249	2
2	1822	396.579055810065	1
2	1827	397.70213517388	0
2	1831	398.138371190653	1
2	1832	398.516571050134	0
2	1839	400.371950997667	1
2	1840	400.546941633333	0
2	1857	403.786988220671	1
2	1861	404.121896947216	2
2	1862	404.406813940123	1
2	1867	405.251182087414	0
2	1871	405.445941622167	1
2	1872	406.32100769756	0
2	1876	407.185855931455	1
2	1877	407.397037842866	0
2	1883	407.92932891928	1
2	1884	408.471339277454	0
2	1888	408.769249409318	1
2	1889	409.555865085401	0
2	1893	410.422270489117	1
2	1894	410.477672279623	0
2	1898	411.064414914069	1
2	1899	411.471569793482	0
2	1903	411.635886127013	1
2	1905	411.742048360672	2
2	1907	412.415132454054	3
2	1908	412.640952281185	2
2	1912	412.711341100239	3
2	1913	413.491436322775	2
2	1916	414.6005700957	1
2	1919	415.563422352259	0
2	1926	417.222954064111	1
2	1928	417.740807499046	2
2	1929	417.750475113836	1
2	1935	418.332139077765	2
2	1937	418.536891152044	3
2	1939	418.753832947478	4
2	1940	418.842202682604	3
2	1944	419.437511094287	4
2	1946	419.582755831891	5
2	1947	419.943925060795	4
2	1950	420.984306760409	3
2	1953	422.083878107646	2
2	1956	423.139165591632	1
2	1960	424.048300244057	2
2	1961	424.310472372637	1
2	1965	424.356440728313	2
2	1966	425.403114960992	1
2	1969	426.233521993456	0
2	1976	428.309160917656	1
2	1977	428.338901813791	0
2	1981	428.366939448493	1
2	1983	428.580442148235	2
2	1984	429.438550760594	1
2	1988	429.941237708373	2
2	1989	430.271481199373	1
2	1993	430.494581005618	2
2	1996	431.103522659183	1
2	2001	432.260508199964	0
2	2008	433.453524379765	1
2	2010	433.571305508306	2
2	2012	433.595273608333	3
2	2013	434.270162544489	2
2	2017	434.696198353983	3
2	2019	434.870090701617	4
2	2020	435.273331223425	3
2	2024	435.715037592145	4
2	2025	436.433440404661	3
2	2030	437.548461138733	2
2	2033	438.391094688509	1
2	2037	438.671327665178	2
2	2040	439.585378218066	1
2	2046	440.10365003262	2
2	2048	440.224085641562	3
2	2050	440.434320305272	4
2	2051	440.66000349009	3
2	2055	441.192450526429	4
2	2056	441.693643419999	3
2	2060	442.539822464152	4
2	2061	442.553616015981	3
2	2065	442.84263220799	4
2	2067	443.086766031144	5
2	2068	443.533342254623	4
2	2071	444.671711503617	3
2	2075	444.957114404079	4
2	2077	445.151365676601	5
2	2078	445.798029606413	4
2	2081	446.990851841397	3
2	2085	447.778288889759	4
2	2087	447.83869628954	5
2	2088	448.162074896596	4
2	2091	449.123363084249	3
2	2095	449.746096006442	4
2	2099	449.980288802618	5
2	2100	450.226861857712	4
2	2103	451.138095876105	3
2	2106	451.939613346007	2
2	2109	453.113174390883	1
2	2112	454.256333232389	0
2	2116	454.34850481404	1
2	2117	455.347873581943	0
2	2121	456.128973147582	1
2	2124	456.358599219561	0
2	2133	457.356406494243	1
2	2134	458.408799324554	0
2	2138	458.564517451032	1
2	2140	458.886906761669	2
2	2142	459.112916880241	3
2	2143	459.369545695089	2
2	2151	460.081946334362	3
2	2152	460.479504354388	2
2	2156	461.366540900008	3
2	2157	461.490294189748	2
2	2161	461.495246456335	3
2	2165	461.936008010583	4
2	2166	462.378407784734	3
2	2169	463.395674356815	2
2	2173	463.447812272833	3
2	2175	464.081833053931	4
2	2177	464.212117237618	5
2	2178	464.310359016337	4
2	2182	464.5548110331	5
2	2184	464.571706783798	6
2	2185	465.355907449496	5
2	2188	466.341600654737	4
2	2192	466.530542566876	5
2	2193	467.169481799283	4
2	2197	467.549644434065	5
2	2199	467.973831953709	6
2	2200	468.208913984147	5
2	2204	468.405313907034	6
2	2206	468.65567714311	7
2	2208	469.031569298033	8
2	2209	469.113710777179	7
2	2213	469.661264460819	8
2	2214	470.039617051926	7
2	2218	471.025406859609	8
2	2219	471.122164073676	7
2	2222	472.142379769959	6
2	2226	472.740467598787	7
2	2227	473.256162737586	6
2	2231	473.866745536232	7
2	2232	474.097482588604	6
2	2235	474.950218980849	5
2	2240	475.923411585201	4
2	2245	476.965603185069	3
2	2249	477.093849367662	4
2	2250	477.967483428303	3
2	2253	478.920297651362	2
2	2257	479.888264070743	3
2	2258	479.913196615126	2
2	2262	479.958479401891	3
2	2263	480.942505523186	2
2	2267	481.634044909229	3
2	2268	482.10972115099	2
2	2272	482.36356576474	3
2	2274	482.501120576283	4
2	2275	482.987507475163	3
2	2278	484.081692973427	2
2	2281	485.161983389031	1
2	2284	486.178087764881	0
2	2293	487.375053922395	1
2	2295	487.573646897535	2
2	2297	487.58161140808	3
2	2298	488.492813465274	2
2	2301	489.516044882587	1
2	2305	489.580593146151	2
2	2306	490.444896686817	1
2	2309	491.588882512873	0
2	2319	493.36649396699	1
2	2323	493.946010394211	2
2	2324	494.198697152728	1
2	2329	495.342517860973	0
2	2333	495.965223384916	1
2	2334	496.388354958122	0
2	2341	498.198983391751	1
2	2343	498.596282920714	2
2	2344	498.717882541095	1
2	2350	499.214340189403	2
2	2351	499.860563539242	1
2	2354	500.687790645374	0
2	2358	501.010884685652	1
2	2359	501.642430097418	0
2	2363	501.715582357927	1
2	2364	502.518250775891	0
2	2371	503.949582997483	1
2	2373	504.058794874731	2
2	2375	504.528818950268	3
2	2376	504.581223364821	2
2	2381	505.664750284789	1
2	2385	505.831056868627	2
2	2386	506.690549612878	1
2	2389	507.496151036484	0
2	2393	508.27324023396	1
2	2394	508.383195475204	0
2	2400	508.981391097067	1
2	2401	509.461501163146	0
2	2405	509.842597413976	1
2	2406	510.520609414572	0
2	2410	510.710059733025	1
2	2412	510.896843971518	2
2	2414	511.086316579953	3
2	2415	511.378092084074	2
2	2418	512.341546971904	1
2	2422	512.65177217467	2
2	2423	513.238114470517	1
2	2426	514.076824078796	0
2	2441	516.935927594144	1
2	2442	517.756319154608	0
2	2446	517.902424687261	1
2	2447	518.657132386411	0
2	2458	520.231471902324	1
2	2459	520.692119851144	0
2	2465	521.182663841813	1
2	2466	521.771067401575	0
2	2470	522.083930713025	1
2	2472	522.089181947535	2
2	2473	522.674112292187	1
2	2477	522.766454251829	2
2	2478	523.691760845197	1
2	2481	524.686929444031	0
2	2488	526.620412055732	1
2	2489	526.742669796751	0
2	2504	530.06160393887	1
2	2509	530.813722284692	0
2	2516	532.145741028731	1
2	2517	532.705454089954	0
2	2528	534.092257719442	1
2	2529	534.688772328194	0
2	2536	536.16841397049	1
2	2539	536.495447987221	0
2	2546	537.918565788694	1
2	2549	538.439421652905	0
2	2558	539.910574465416	1
2	2559	540.143524988178	0
2	2568	541.33667237856	1
2	2569	542.100653361804	0
2	2578	543.165696307139	1
2	2581	544.078059756658	0
2	2590	545.758357557518	1
2	2591	545.804091508682	0
2	2597	546.746318335141	1
2	2598	546.809761526338	0
2	2627	554.212420253343	1
2	2630	554.891975694145	0
2	2641	556.107208222877	1
2	2642	557.039681394301	0
2	2649	558.882345347493	1
2	2650	559.161710348815	0
2	2680	565.269090850686	1
2	2681	566.07445348296	0
2	2688	567.673182269304	1
2	2689	568.028208170921	0
2	2700	569.868072057178	1
2	2701	570.394628449526	0
2	2721	572.63381292056	1
2	2722	573.245964030545	0
2	2733	574.803120816217	1
2	2735	575.127491715977	2
2	2736	575.163766954462	1
2	2739	576.099918672345	0
2	2743	576.169962754103	1
2	2744	577.205891891844	0
2	2748	577.686134146354	1
2	2750	577.71503873886	2
2	2751	578.205816252712	1
2	2756	579.01102204844	0
2	2760	579.239292774566	1
2	2762	579.499625646665	2
2	2764	579.516148707323	3
2	2766	579.562962486183	4
2	2767	579.836970842533	3
2	2771	580.471451148604	4
2	2772	580.876847724334	3
2	2775	581.841580893841	2
2	2778	582.951344946117	1
2	2782	583.180411749077	2
2	2783	583.972451982272	1
2	2786	585.042120740467	0
2	2790	585.718051208336	1
2	2791	585.933487836735	0
2	2795	585.999775972732	1
2	2797	586.715262403464	2
2	2798	587.09789553154	1
2	2801	588.278196904806	0
2	2811	590.663496810343	1
2	2812	591.449325885062	0
2	2824	593.572668771155	1
2	2826	593.574968246244	2
2	2828	593.77399070492	3
2	2829	594.296917556783	2
2	2832	595.229024999959	1
2	2837	596.069285698885	0
2	2849	598.87208305858	1
2	2852	599.200920392291	0
2	2858	599.653692844809	1
2	2859	600.061234153432	0
2	2863	600.214643236421	1
2	2864	601.045531136354	0
2	2868	601.119500235066	1
2	2870	601.942982030194	2
2	2871	602.036336334699	1
2	2874	603.117305522503	0
2	2878	603.983939861943	1
2	2880	604.207875345209	2
2	2881	604.265228357257	1
2	2885	604.521069468154	2
2	2886	605.094033170862	1
2	2890	605.90394021292	2
2	2892	605.93003112245	3
2	2893	606.239359595159	2
2	2897	606.614404739291	3
2	2898	607.155821173077	2
2	2901	608.110630536915	1
2	2904	609.000663287749	0
2	2908	609.16182037372	1
2	2909	609.859735218619	0
2	2913	610.535249197895	1
2	2915	610.690275087019	2
2	2916	610.966222690416	1
2	2919	612.09663598947	0
2	2933	614.581378979077	1
2	2934	614.762731846606	0
2	2938	615.519390500242	1
2	2939	615.569418083688	0
2	2943	616.010572701688	1
2	2946	616.477177096342	0
2	2950	616.49035435557	1
2	2952	616.853402177773	2
2	2954	616.926960888752	3
2	2955	617.540915071217	2
2	2959	617.706502217161	3
2	2960	618.510737141313	2
2	2964	618.930135022055	3
2	2965	619.356255684139	2
2	2969	620.411203130311	3
2	2970	620.460591383835	2
2	2974	620.598696844424	3
2	2975	621.389001909641	2
2	2979	622.445082960131	3
2	2980	622.586386096475	2
2	2984	622.687268791458	3
2	2985	623.769642135778	2
2	2989	624.224480722009	3
2	2990	624.936945570724	2
2	2993	625.765078946294	1
2	2996	626.754681462979	0
2	3003	628.214689833328	1
2	3004	628.869249253532	0
2	3013	629.889732950751	1
2	3017	630.481470503496	2
2	3019	630.593222762076	3
2	3020	630.76158721689	2
2	3026	630.885691937661	3
2	3029	631.720168613269	2
2	3033	632.102793131232	3
2	3034	632.608220081775	2
2	3040	633.572073266989	3
2	3042	633.721222927701	4
2	3043	633.75040080659	3
2	3047	634.066206586333	4
2	3048	634.59041617317	3
2	3052	635.03411247633	4
2	3054	635.41783251004	5
2	3055	635.619033011607	4
2	3059	635.698102062098	5
2	3061	636.183351990906	6
2	3062	636.568019211012	5
2	3065	637.657631936948	4
2	3068	638.597523684706	3
2	3072	639.268518975513	4
2	3073	639.60866240384	3
2	3077	640.023294488928	4
2	3078	640.625801036972	3
2	3082	640.913203857196	4
2	3083	641.815562423039	3
2	3087	642.189097150745	4
2	3088	642.786447478086	3
2	3091	643.716834359709	2
2	3094	644.826625268627	1
2	3098	645.618003889622	2
2	3099	645.756949256547	1
2	3103	646.269203723277	2
2	3105	646.545718803979	3
2	3106	646.589488016907	2
2	3110	646.75262113996	3
2	3111	647.57727962695	2
2	3115	647.813970151816	3
2	3116	648.64303963771	2
2	3119	649.57177115688	1
2	3122	650.386616223863	0
2	3129	651.626386821291	1
2	3131	651.915670141605	2
2	3133	652.478617091615	3
2	3134	652.532298401742	2
2	3137	653.398187503869	1
2	3141	653.511462221394	2
2	3143	653.833046708825	3
2	3144	654.214131472258	2
2	3150	654.429079202274	3
2	3151	655.267620985581	2
2	3154	656.08854616396	1
2	3158	656.712235589562	2
2	3159	657.130592875926	1
2	3163	657.848157806228	2
2	3164	658.215235217659	1
2	3168	658.39140380871	2
2	3169	659.188177455774	1
2	3172	660.336723483818	0
2	3176	661.070083526548	1
2	3178	661.085606915717	2
2	3181	661.489557056127	1
2	3185	662.557256735141	2
2	3186	662.628875652047	1
2	3189	663.530047424229	0
2	3193	664.152464351377	1
2	3194	664.363899025133	0
2	3198	664.413735155169	1
2	3202	665.087548233599	2
2	3203	665.189236402603	1
2	3207	665.274384766058	2
2	3208	666.193367492406	1
2	3212	666.714219323702	2
2	3213	667.043584734759	1
2	3218	668.152738974056	0
2	3222	668.196994921438	1
2	3223	669.099272838141	0
2	3227	669.537718751859	1
2	3228	669.995037256926	0
2	3240	673.041510999711	1
2	3241	673.45149693517	0
2	3250	675.180850165283	1
2	3251	675.7830814505	0
2	3260	677.026526829785	1
2	3263	677.961451056972	0
2	3270	679.973190829449	1
2	3271	680.074428702425	0
2	3278	681.515679341778	1
2	3283	681.919455809611	0
2	3297	684.482481576901	1
2	3300	685.20815942362	0
2	3312	687.516400905929	1
2	3314	687.849398811247	2
2	3317	688.375474918262	1
2	3322	689.505965931342	0
2	3332	691.641094573546	1
2	3334	691.70064452571	2
2	3337	692.404530465604	1
2	3342	693.546547153779	0
2	3346	693.878027100796	1
2	3347	694.644176602271	0
2	3354	695.990405392731	1
2	3355	696.456412088033	0
2	3367	698.806776785322	1
2	3369	699.213805688511	2
2	3370	699.264142459444	1
2	3373	700.403038248233	0
2	3382	701.611710185731	1
2	3384	702.399742895122	2
2	3385	702.526736767497	1
2	3389	702.929836267907	2
2	3390	703.573018480744	1
2	3396	703.634018960142	2
2	3397	704.492159655969	1
2	3400	705.671443455852	0
2	3404	706.067056043998	1
2	3406	706.373345484004	2
2	3409	706.685315080173	1
2	3412	707.488242668286	0
2	3418	707.766860898052	1
2	3420	707.964347188436	2
2	3421	708.41954511106	1
2	3425	709.470613183459	2
2	3426	709.5616212219	1
2	3431	710.603490042686	0
2	3445	712.637349733747	1
2	3447	712.719458880732	2
2	3448	713.344672927911	1
2	3451	714.159100255369	0
2	3458	715.492195217318	1
2	3459	716.154493575821	0
2	3465	716.562021417166	1
2	3466	717.212662607523	0
2	3472	718.176443817602	1
2	3475	718.411656603309	0
2	3482	719.887141776014	1
2	3483	720.311500754393	0
2	3487	720.59463014906	1
2	3488	721.293377645592	0
2	3492	722.17979773531	1
2	3493	722.465782384666	0
2	3497	722.538171660173	1
2	3499	723.129788350969	2
2	3500	723.387897703516	1
2	3503	724.285676903835	0
2	3507	725.164063326063	1
2	3508	725.472391081693	0
2	3512	725.616239016292	1
2	3513	726.301169970071	0
2	3528	729.844506600703	1
2	3529	730.109992728287	0
2	3533	730.480900033692	1
2	3534	731.088261910526	0
2	3543	732.204445636987	1
2	3544	732.94583892999	0
2	3548	733.422900821191	1
2	3549	733.951765739357	0
2	3555	734.887590073763	1
2	3556	734.999206037631	0
2	3560	735.162879430889	1
2	3562	735.383726774391	2
2	3563	736.196233259605	1
2	3566	737.35787445437	0
2	3570	737.464797565895	1
2	3571	738.251381931918	0
2	3575	739.068519419744	1
2	3576	739.29687177846	0
2	3580	739.564619203306	1
2	3581	740.225097639112	0
2	3585	740.33321549045	1
2	3586	741.284118619373	0
2	3590	741.673689986541	1
2	3591	742.388119319079	0
2	3595	742.53605449803	1
2	3597	742.946150296175	2
2	3600	743.198607329556	1
2	3605	744.076146435549	0
2	3609	745.035969310221	1
2	3610	745.1160008396	0
2	3617	746.167994026819	1
2	3619	746.260299780128	2
2	3621	746.441488096468	3
2	3622	747.041395755669	2
2	3627	748.026036588007	1
2	3631	748.247421064507	2
2	3632	748.962037806397	1
2	3636	749.624123572942	2
2	3637	750.053796884415	1
2	3640	751.143763583617	0
2	3650	753.93058205513	1
2	3651	754.094438510478	0
2	3665	756.903911644716	1
2	3669	757.185970287206	2
2	3670	757.208960144218	1
2	3675	758.357338387608	0
2	3731	770.982618410106	1
2	3732	771.527297328222	0
2	3833	794.850347849065	1
2	3835	795.094038890515	2
2	3840	795.816206795902	1
2	3844	795.854642787093	2
2	3847	796.674368250829	1
2	3852	797.526122033869	0
2	3861	798.731060089516	1
2	3862	799.279717481502	0
2	3866	799.415894705826	1
2	3869	800.225112954241	0
2	3875	800.55683468548	1
2	3876	801.395009277009	0
2	3883	803.0288143147	1
2	3884	803.15244791833	0
2	3893	804.789747874001	1
2	3894	805.265567221486	0
2	3903	806.564400823359	1
2	3904	807.199035695096	0
2	3915	809.226703355925	1
2	3916	809.230839533073	0
2	3982	823.529798934175	1
2	3983	824.437914757703	0
2	3990	825.551217316234	1
2	3993	826.351902757485	0
2	4001	827.425513345663	1
2	4002	827.440882034407	0
2	4009	828.956031096401	1
2	4010	829.454900334582	0
2	4014	830.234495567932	1
2	4015	830.448391115286	0
2	4019	830.651257845379	1
2	4020	831.563296493974	0
2	4026	831.668917761533	1
2	4027	832.388973814242	0
2	4031	832.473294715659	1
2	4035	832.844653869542	2
2	4036	833.299308759526	1
2	4040	833.798243603307	2
2	4041	834.172813271165	1
2	4044	835.28906806688	0
2	4053	837.108875820394	1
2	4055	837.150164267472	2
2	4056	837.304653029416	1
2	4062	837.667681581719	2
2	4065	838.159098292228	1
2	4068	839.09286605119	0
2	4072	839.23693041112	1
2	4073	839.980053622362	0
2	4077	840.074874165952	1
2	4078	840.986171084822	0
2	4082	841.319888075074	1
2	4083	842.025699442618	0
2	4087	842.947965082117	1
2	4088	843.026728675228	0
2	4092	843.398712275048	1
2	4093	843.985068138961	0
2	4103	846.066001808122	1
2	4105	846.140305485414	2
2	4111	846.892866118842	3
2	4112	847.172771577529	2
2	4115	848.154080322936	1
2	4120	849.038388699286	0
2	4124	849.153606211722	1
2	4126	849.61983351431	2
2	4127	850.039518454012	1
2	4130	850.995067813986	0
2	4134	851.222410142959	1
2	4136	851.767231617593	2
2	4137	851.990686939743	1
2	4141	852.394347617196	2
2	4142	853.005394266911	1
2	4148	853.500691906124	2
2	4149	854.074760015208	1
2	4153	854.697385169553	2
2	4154	855.149681275516	1
2	4157	855.968846082679	0
2	4161	855.974056813057	1
2	4163	856.923677715714	2
2	4164	856.969346728819	1
2	4167	858.053888668856	0
2	4176	859.714106554813	1
2	4177	860.15835497127	0
2	4186	861.059688885213	1
2	4188	861.790084419349	2
2	4189	861.831978367354	1
2	4195	862.160132358265	2
2	4196	863.021928923383	1
2	4200	863.13843669707	2
2	4202	863.783246706184	3
2	4203	864.129114074904	2
2	4207	864.925520515938	3
2	4208	865.242791007917	2
2	4211	866.210640839573	1
2	4214	867.383219645724	0
2	4218	867.693837193726	1
2	4219	868.21311222193	0
2	4223	869.121112624191	1
2	4224	869.215499309443	0
2	4228	869.994358769098	1
2	4229	870.321501367159	0
2	4236	871.637355238594	1
2	4237	872.613106018949	0
2	4241	872.627249232513	1
2	4242	873.708811809767	0
2	4268	879.143304428304	1
2	4270	879.811870558222	2
2	4272	880.153900053999	3
2	4273	880.266366506453	2
2	4280	881.180437677066	1
2	4284	881.473251406524	2
2	4285	882.007117191321	1
2	4290	883.045914557661	0
2	4294	883.050026505662	1
2	4295	884.030523061092	0
2	4299	884.36083607945	1
2	4300	885.103882910396	0
2	4307	886.299962079303	1
2	4308	887.366157808985	0
2	4317	888.663309801795	1
2	4320	889.167239007532	0
2	4324	889.33279806175	1
2	4326	890.057953081072	2
2	4327	890.358005471333	1
2	4330	891.315711945101	0
2	4337	893.393209976938	1
2	4338	893.449310942545	0
2	4342	893.859618162528	1
2	4343	894.479893353294	0
2	4347	894.745938799853	1
2	4352	895.521978510722	0
2	4359	897.008828261619	1
2	4361	897.102038689369	2
2	4362	897.655465121279	1
2	4365	898.529427357195	0
2	4369	899.27777413556	1
2	4370	899.639323350312	0
2	4380	901.958124712052	1
2	4385	902.877397212842	0
2	4389	903.924714586593	1
2	4390	904.061185454847	0
2	4397	904.935638453024	1
2	4398	905.793532229112	0
2	4405	906.775914379896	1
2	4406	907.681574698994	0
2	4425	910.707778272902	1
2	4428	911.575007470874	0
2	4438	913.838578114294	1
2	4440	914.474128507505	2
2	4441	914.515476543633	1
2	4446	915.64140751156	0
2	4459	918.571967070534	1
2	4461	918.906914031324	2
2	4462	919.368182631199	1
2	4465	920.531141086937	0
2	4477	922.743449414063	1
2	4483	923.771639669384	2
2	4484	923.777019744356	1
2	4487	924.715066107538	0
2	4496	926.166646991723	1
2	4497	926.432395817328	0
2	4504	927.518168328544	1
2	4505	928.335586085718	0
2	4509	928.769932736105	1
2	4510	929.443434417888	0
2	4524	931.580727547052	1
2	4527	932.586627614673	0
2	4536	933.824192013482	1
2	4537	934.337790784414	0
2	4556	937.451436800325	1
2	4557	937.930050530459	0
2	4566	939.335161112754	1
2	4567	939.897234817303	0
2	4576	941.412351018825	1
2	4577	941.841315217118	0
2	4589	943.842728606591	1
2	4592	944.556619781338	0
2	4631	953.749734548249	1
2	4634	954.761405835385	0
2	4638	954.774519516797	1
2	4639	955.669283767874	0
2	4649	958.178880222986	1
2	4650	958.675727882599	0
2	4659	960.535293079889	1
2	4661	960.596484909856	2
2	4662	960.691973295984	1
2	4665	961.689062338871	0
2	4671	962.314801268951	1
2	4672	962.53493301467	0
2	4676	962.831536077926	1
2	4677	963.710020737154	0
2	4699	968.311580516662	1
2	4700	968.411125400746	0
2	4712	971.304213874931	1
2	4713	971.54663096861	0
2	4717	972.005132063718	1
2	4720	972.599510771493	0
2	4724	973.169829521306	1
2	4725	973.769353929619	0
2	4734	975.637493489502	1
2	4735	975.684507871132	0
2	4747	977.473292034862	1
2	4749	978.275069153763	2
2	4750	978.357723838176	1
2	4757	979.28638309789	0
2	4761	979.357346562063	1
2	4762	980.144697271931	0
2	4766	980.425576718909	1
2	4767	981.331020775429	0
2	4771	981.335074289092	1
2	4772	982.209393552124	0
2	4776	982.301441610623	1
2	4777	983.144993897333	0
2	4784	984.459956978405	1
2	4786	985.109902921353	2
2	4787	985.150547465488	1
2	4792	986.308097832083	0
2	4799	987.607246878645	1
2	4800	988.615124118599	0
2	4807	990.301520693693	1
2	4809	990.399241799156	2
2	4810	990.54633139548	1
2	4815	991.511992521483	0
2	4822	992.838975617449	1
2	4823	993.741167202305	0
2	4830	995.23497628522	1
2	4831	995.698132179111	0
2	4837	996.593154645085	1
2	4838	996.774925739962	0
2	4842	997.009229535475	1
2	4845	997.783051194615	0
2	4852	999.546037493622	1
2	4853	999.671278638198	0
2	4862	1001.288198903163	1
2	4863	1001.799488148271	0
2	4877	1004.790451843778	1
2	4878	1005.081074703197	0
2	4884	1005.167410262717	1
2	4885	1005.914488385423	0
2	4894	1006.879798243966	1
2	4898	1007.719481102448	2
2	4899	1007.743954280662	1
2	4902	1008.587079840052	0
2	4909	1010.401945214803	1
2	4910	1010.425951315082	0
2	4914	1010.536956717945	1
2	4915	1011.260852324396	0
2	4922	1012.376034357002	1
2	4923	1013.12612628638	0
2	4934	1014.63679737702	1
2	4935	1015.3980978663	0
2	4939	1015.705015924085	1
2	4942	1016.468905043315	0
2	4949	1017.46333961986	1
2	4951	1017.469486693185	2
2	4952	1018.437030478839	1
2	4955	1019.588494869128	0
2	5105	1050.577266953307	1
2	5106	1050.721318447211	0
2	5113	1052.337208022512	1
2	5114	1052.569453289633	0
2	5124	1054.531731311569	1
2	5127	1055.456174183537	0
2	5272	1087.568242572316	1
2	5273	1088.007129666854	0
2	5364	1107.615032239398	1
2	5365	1108.188788906572	0
2	5374	1109.530954635951	1
2	5375	1110.226394647075	0
2	5392	1113.724948189504	1
2	5395	1114.695059993765	0
2	5402	1116.017826752958	1
2	5403	1116.632817188273	0
2	5492	1142.967352878331	1
2	5497	1143.64674061062	0
2	5511	1145.696838410583	1
2	5512	1146.374276414143	0
2	5548	1153.178778868311	1
2	5549	1153.363816323227	0
2	5559	1155.613007156949	1
2	5560	1156.432723717953	0
2	5607	1166.321955272112	1
2	5608	1166.422058069522	0
2	5660	1185.554080027621	1
2	5661	1185.884281957859	0
2	5675	1187.8457723623	1
2	5676	1188.679006436611	0
2	5685	1190.161373864889	1
2	5686	1190.760183384311	0
2	5695	1192.612968097918	1
2	5696	1192.756080946206	0
2	5705	1194.083218946356	1
2	5707	1194.182990739269	2
2	5708	1194.894684899106	1
2	5711	1195.927078528955	0
2	5715	1196.218741997903	1
2	5717	1196.345860547987	2
2	5718	1197.110473566103	1
2	5722	1197.403219145346	2
2	5723	1198.120147811967	1
2	5726	1199.101457065224	0
2	5730	1199.191693935021	1
2	5731	1199.947822023622	0
2	5740	1201.587359957206	1
2	5741	1201.958693307327	0
2	5750	1204.059893817725	1
2	5751	1204.910091844361	0
2	5755	1205.704282574336	1
2	5757	1205.744185602697	2
2	5758	1205.860948879711	1
2	5762	1206.358365752599	2
2	5763	1206.999155949961	1
2	5766	1208.010693068403	0
2	5770	1208.715079842222	1
2	5772	1208.753388181863	2
2	5773	1208.85597835106	1
2	5777	1209.015563365572	2
2	5778	1209.715452116608	1
2	5781	1210.661851769193	0
2	5785	1211.17886315033	1
2	5786	1211.610851277198	0
2	5795	1212.957310633316	1
2	5796	1213.768343130424	0
2	5800	1213.937916569979	1
2	5801	1214.729686607625	0
2	5805	1215.280318853576	1
2	5806	1215.77689113684	0
2	5815	1217.67822484413	1
2	5816	1218.128287093536	0
2	5825	1220.586330594427	1
2	5828	1221.095547948334	0
2	5832	1221.216920883321	1
2	5833	1222.105832584597	0
2	5840	1223.180439457399	1
2	5841	1224.010357560333	0
2	5845	1224.731842229858	1
2	5848	1225.168100285832	0
2	5865	1230.149470950545	1
2	5866	1230.923811521217	0
2	5880	1234.917326193985	1
2	5881	1235.91898117063	0
2	5885	1235.933657071686	1
2	5888	1236.749827503575	0
2	5895	1238.162561642315	1
2	5896	1238.703747678151	0
2	5917	1243.072184606185	1
2	5918	1243.690211362491	0
2	5924	1244.401568866704	1
2	5925	1244.675074601645	0
2	5929	1245.393846815168	1
2	5930	1245.582880880317	0
2	5934	1246.384891999164	1
2	5935	1246.559008561546	0
2	5939	1246.774133045861	1
2	5940	1247.574903722765	0
2	5944	1248.425504936096	1
2	5945	1248.435394893127	0
2	5967	1254.090420824465	1
2	5968	1254.09625905544	0
2	5985	1258.065900391735	1
2	5986	1258.654915999715	0
2	5990	1259.238204518434	1
2	5993	1259.546324369685	0
2	5999	1260.276916976853	1
2	6000	1260.708828527202	0
2	6007	1262.354463217028	1
2	6008	1262.616423225869	0
2	6085	1281.395193703563	1
2	6090	1282.348004534638	0
2	6101	1284.406266926417	1
2	6102	1284.516502755957	0
2	6109	1286.155385587012	1
2	6110	1286.529562886136	0
2	6119	1288.540464539872	1
2	6120	1288.549045037927	0
2	6132	1291.351382352684	1
2	6133	1291.497691829578	0
2	6175	1300.223900506626	1
2	6176	1300.531545199343	0
2	6185	1302.085070733393	1
2	6186	1302.246520456468	0
2	6195	1303.59115179734	1
2	6196	1304.202658119687	0
2	6205	1306.069345738325	1
2	6206	1306.428629573696	0
2	6280	1347.382277861035	1
2	6283	1347.724125154522	0
2	6287	1348.068431509516	1
2	6288	1348.887386021317	0
2	6300	1352.394235262321	1
2	6301	1352.77102084463	0
2	6310	1353.815394507464	1
2	6312	1354.131578574531	2
2	6314	1354.372201782784	3
2	6315	1354.703023019391	2
2	6320	1355.759336099638	1
2	6325	1356.703566033537	0
2	6329	1357.375449756082	1
2	6330	1357.743952217283	0
2	6334	1358.364208838254	1
2	6336	1358.550924277983	2
2	6337	1358.66555441474	1
2	6341	1358.724041463892	2
2	6343	1359.689031936921	3
2	6344	1359.826886885012	2
2	6348	1360.382240634605	3
2	6349	1360.698675584564	2
2	6353	1360.705291277585	3
2	6355	1361.392581325355	4
2	6356	1361.87805894609	3
2	6360	1362.270333549199	4
2	6361	1362.807001940398	3
2	6365	1363.855943229409	4
2	6366	1363.976022599316	3
2	6372	1364.540120718002	4
2	6374	1364.908596600752	5
2	6375	1365.105806443612	4
2	6379	1365.208382592764	5
2	6380	1366.001875935732	4
2	6383	1366.87647300973	3
2	6386	1367.973829214232	2
2	6390	1368.244607043554	3
2	6391	1369.120460415682	2
2	6395	1370.190069351523	3
2	6396	1370.220172730604	2
2	6399	1371.111472373133	1
2	6403	1371.303239827158	2
2	6405	1371.887633692615	3
2	6407	1372.090367220667	4
2	6408	1372.283198592768	3
2	6412	1372.888681321036	4
2	6413	1373.331690004052	3
2	6418	1374.144792881471	2
2	6421	1375.037474139736	1
2	6425	1375.531115470929	2
2	6426	1376.002910824821	1
2	6430	1376.679874216125	2
2	6431	1377.092034571946	1
2	6435	1377.153431812007	2
2	6437	1377.6588684391	3
2	6438	1378.061809558843	2
2	6442	1378.366000953146	3
2	6443	1379.030946284489	2
2	6447	1379.139374346866	3
2	6448	1380.047057173171	2
2	6452	1380.135801026743	3
2	6453	1380.901939575982	2
2	6457	1381.454094913138	3
2	6458	1381.897833989144	2
2	6462	1382.650995707384	3
2	6463	1382.818237166156	2
2	6466	1383.760859430817	1
2	6470	1383.934262516056	2
2	6472	1384.145091028279	3
2	6473	1384.824379428339	2
2	6477	1385.457625902026	3
2	6478	1385.880774860599	2
2	6482	1386.429256938427	3
2	6483	1386.962573741705	2
2	6486	1388.100568995767	1
2	6490	1388.440825384631	2
2	6492	1388.582596431229	3
2	6493	1389.111060862106	2
2	6497	1389.492173161651	3
2	6499	1389.539656253491	4
2	6500	1389.985523130328	3
2	6504	1390.177972617932	4
2	6505	1391.178252897647	3
2	6509	1391.243426984669	4
2	6511	1391.576751587346	5
2	6512	1392.080652287745	4
2	6515	1393.022883287494	3
2	6519	1393.693301230313	4
2	6521	1394.020082353649	5
2	6523	1394.126930132404	6
2	6524	1394.200883334552	5
2	6527	1395.168862635599	4
2	6533	1396.092144657451	5
2	6534	1396.247517505152	4
2	6537	1397.435304142492	3
2	6541	1397.518323722632	4
2	6542	1398.330096968128	3
2	6545	1399.13640758214	2
2	6548	1400.257507979734	1
2	6552	1400.930017791302	2
2	6554	1401.293811790039	3
2	6555	1401.430428671701	2
2	6559	1402.068733003603	3
2	6561	1402.092909953981	4
2	6562	1402.504471921319	3
2	6567	1403.415557011733	2
2	6570	1404.361366388159	1
2	6573	1405.454712825412	0
2	6577	1405.462980108668	1
2	6579	1405.544065453664	2
2	6580	1406.331679981345	1
2	6584	1407.071580949799	2
2	6585	1407.453117831101	1
2	6588	1408.411913115767	0
2	6598	1410.32346114128	1
2	6601	1411.163136426223	0
2	6616	1414.450765537253	1
2	6617	1414.967089317323	0
2	6630	1418.476153855906	1
2	6631	1418.969850986595	0
2	6662	1425.433225262016	1
2	6663	1425.764627399026	0
2	6669	1426.434493575191	1
2	6670	1426.735960359136	0
2	6674	1426.952272818125	1
2	6675	1427.586737751412	0
2	6679	1428.17212785182	1
2	6680	1428.445529003545	0
2	6684	1428.577717435584	1
2	6686	1428.799643230975	2
2	6688	1429.14061010567	3
2	6689	1429.490128795534	2
2	6693	1430.416883095563	3
2	6694	1430.55143201641	2
2	6698	1430.76250308959	3
2	6699	1431.63987546052	2
2	6703	1432.266311826232	3
2	6704	1432.733852265879	2
2	6707	1433.812988927412	1
2	6710	1434.687006265215	0
2	6714	1435.079029065319	1
2	6715	1435.512054186977	0
2	6719	1435.877739089688	1
2	6720	1436.494177368015	0
2	6724	1437.068455191984	1
2	6725	1437.335304714564	0
2	6729	1438.19666340971	1
2	6730	1438.498696148779	0
2	6734	1438.801713000348	1
2	6735	1439.547155824221	0
2	6750	1443.379482137768	1
2	6751	1443.454313198114	0
2	6755	1443.607086098722	1
2	6761	1444.458213707692	2
2	6762	1444.465480716536	1
2	6765	1445.338115866678	0
2	6775	1448.064976507123	1
2	6779	1448.232074581384	2
2	6781	1448.297945047877	3
2	6782	1448.529609147468	2
2	6787	1449.715849395757	1
2	6791	1449.7234867566	2
2	6792	1450.52398800767	1
2	6796	1451.107553463199	2
2	6797	1451.553063324196	1
2	6801	1451.970079868359	2
2	6802	1452.499786727233	1
2	6806	1452.641944705813	2
2	6809	1453.375442076111	1
2	6814	1454.315712501025	0
2	6821	1455.70906211449	1
2	6823	1455.909605449423	2
2	6825	1455.939314548936	3
2	6826	1456.487079051146	2
2	6830	1456.929429310066	3
2	6832	1457.216320370217	4
2	6833	1457.404278203854	3
2	6839	1458.077864159816	4
2	6840	1458.497386142807	3
2	6844	1459.44935892881	4
2	6845	1459.563416302213	3
2	6849	1459.985937476829	4
2	6850	1460.499121263539	3
2	6853	1461.396272673374	2
2	6856	1462.572604040438	1
2	6859	1463.459491940876	0
2	6871	1466.556570171027	1
2	6872	1466.72144442453	0
2	6878	1467.137175693087	1
2	6881	1467.823114435849	0
2	6885	1468.49612291833	1
2	6886	1468.799655134612	0
2	6893	1469.662324165686	1
2	6895	1469.780721520139	2
2	6897	1470.410403058981	3
2	6898	1470.582378601851	2
2	6901	1471.698849268919	1
2	6907	1472.056637556882	2
2	6908	1472.676681697192	1
2	6912	1472.845131476004	2
2	6914	1473.416826506308	3
2	6916	1473.447061974923	4
2	6917	1473.719295870988	3
2	6921	1473.877995486971	4
2	6922	1474.879873880195	3
2	6926	1475.254106520219	4
2	6927	1475.681822699504	3
2	6930	1476.599348743362	2
2	6934	1476.787936461078	3
2	6935	1477.670681219836	2
2	6940	1478.687946837683	1
2	6944	1479.091100395446	2
2	6945	1479.608819437035	1
2	6949	1479.652237867967	2
2	6951	1480.507762166717	3
2	6952	1480.55420714571	2
2	6956	1481.047007312326	3
2	6957	1481.677893780739	2
2	6961	1482.07468271325	3
2	6962	1482.734414777261	2
2	6966	1483.023074859648	3
2	6968	1483.105803513104	4
2	6969	1483.670782878258	3
2	6973	1483.840808649457	4
2	6975	1484.581152060225	5
2	6976	1484.760376698718	4
2	6980	1485.284074158559	5
2	6983	1485.814426684574	4
2	6986	1486.630401705866	3
2	6991	1487.621123090209	2
2	6995	1488.142704662137	3
2	6997	1488.60248374248	4
2	6998	1488.655179042005	3
2	7002	1488.657201032217	4
2	7004	1489.191108901495	5
2	7005	1489.490935386167	4
2	7009	1489.732644838303	5
2	7010	1490.626355181084	4
2	7014	1490.679990253066	5
2	7015	1491.475123105952	4
2	7018	1492.331552025033	3
2	7021	1493.320394936865	2
2	7024	1494.253314787438	1
2	7030	1494.772453710035	2
2	7031	1495.380822287137	1
2	7035	1496.177410033707	2
2	7036	1496.432031518696	1
2	7042	1497.532930780046	2
2	7043	1497.589112086976	1
2	7046	1498.511237499779	0
2	7050	1498.778810189359	1
2	7051	1499.316246633334	0
2	7055	1500.034136076161	1
2	7056	1500.289637669651	0
2	7065	1501.627432329581	1
2	7066	1502.31475789818	0
2	7075	1503.471187316049	1
2	7077	1503.473658859469	2
2	7082	1504.427067667442	1
2	7087	1505.247238572511	0
2	7091	1505.42990415634	1
2	7092	1506.26069515898	0
2	7098	1507.387416682697	1
2	7099	1507.429896377782	0
2	7103	1507.456818607338	1
2	7105	1507.960586298531	2
2	7106	1508.393092053207	1
2	7109	1509.226700566346	0
2	7116	1510.996153016077	1
2	7117	1511.359670973206	0
2	7121	1511.777205393081	1
2	7123	1511.898567082653	2
2	7126	1512.489741105503	1
2	7130	1512.52498907795	2
2	7131	1513.678180219336	1
2	7134	1514.713174013058	0
2	7138	1514.841364992445	1
2	7139	1515.769873683816	0
2	7143	1516.35473839501	1
2	7144	1516.925090567777	0
2	7151	1517.965843922476	1
2	7152	1518.772341416506	0
2	7161	1520.773238178973	1
2	7162	1520.937748742672	0
2	7166	1521.625229563735	1
2	7169	1521.879709747164	0
2	7175	1522.727507031438	1
2	7176	1522.832353810324	0
2	7188	1524.882156866415	1
2	7190	1525.371622621496	2
2	7191	1525.471441743626	1
2	7196	1526.372333587995	0
2	7203	1527.621729364869	1
2	7204	1528.174778190264	0
2	7208	1528.919494174634	1
2	7210	1529.112911030995	2
2	7211	1529.272711739139	1
2	7215	1529.463498169561	2
2	7218	1530.232095016827	1
2	7222	1530.243370716503	2
2	7223	1531.298354040281	1
2	7227	1531.320049732351	2
2	7229	1532.118312830675	3
2	7230	1532.341195516204	2
2	7233	1533.523808091981	1
2	7237	1533.61375266336	2
2	7239	1534.5261191633	3
2	7240	1534.686244061226	2
2	7244	1535.170937823571	3
2	7247	1535.875895074764	2
2	7251	1536.484182886148	3
2	7253	1536.974878400857	4
2	7254	1537.038218441428	3
2	7257	1538.144815300227	2
2	7261	1538.483788010154	3
2	7262	1538.968927451604	2
2	7265	1540.023932737959	1
2	7268	1541.073938975026	0
2	7277	1542.964498483918	1
2	7279	1542.983560230987	2
2	7280	1543.153849822664	1
2	7283	1544.262394827427	0
2	7290	1545.110175261225	1
2	7293	1545.975728671262	0
2	7364	1561.35756018287	1
2	7367	1561.903507756078	0
2	7374	1563.697176720828	1
2	7375	1563.801962807504	0
2	7384	1565.258332466209	1
2	7385	1565.582686889367	0
2	7449	1577.740457849021	1
2	7450	1578.176891348333	0
2	7456	1579.243496493218	1
2	7457	1579.330947541733	0
2	7464	1580.448018345926	1
2	7466	1580.589916190191	2
2	7467	1581.305501589653	1
2	7472	1582.233075936054	0
2	7485	1585.530787793509	1
2	7490	1586.285138814998	0
2	7497	1588.4631485553	1
2	7498	1588.489135098373	0
2	7507	1589.399957592065	1
2	7508	1590.477431894289	0
2	7515	1591.6465908886	1
2	7517	1592.241994840449	2
2	7518	1592.500928139323	1
2	7521	1593.313805901454	0
2	7527	1593.652817679551	1
2	7528	1594.278241662317	0
2	7532	1594.933119869803	1
2	7533	1595.223128104777	0
2	7540	1596.869181126056	1
2	7541	1597.15865668646	0
2	7545	1597.312963939416	1
2	7548	1598.310318435178	0
2	7554	1598.861379851065	1
2	7555	1599.133355794203	0
2	7562	1600.10427840548	1
2	7564	1600.303719099374	2
2	7565	1601.11479409105	1
2	7570	1602.108582114529	0
2	7577	1603.411418824563	1
2	7580	1604.447091955512	0
2	7589	1605.539489900523	1
2	7590	1606.088112550794	0
2	7597	1607.58010515013	1
2	7598	1608.021292730613	0
2	7607	1608.875626827304	1
2	7608	1609.837747308711	0
2	7615	1611.554643760644	1
2	7616	1612.125535223918	0
2	7623	1613.759368554164	1
2	7624	1614.121873007814	0
2	7633	1615.773848429717	1
2	7634	1616.175804579451	0
2	7716	1632.431789585147	1
2	7717	1632.609335251905	0
2	7729	1634.79855916324	1
2	7730	1635.415126861919	0
2	7741	1636.929263610796	1
2	7742	1637.280725663442	0
2	7756	1639.402459534048	1
2	7758	1639.596605660407	2
2	7761	1640.119523246221	1
2	7770	1641.178161029152	0
2	7777	1643.257154765274	1
2	7778	1643.311353685621	0
2	7787	1645.072212295825	1
2	7788	1645.290402956594	0
2	7792	1645.299518290618	1
2	7794	1645.856494844929	2
2	7795	1646.274576555293	1
2	7799	1646.725677293784	2
2	7802	1647.311218363985	1
2	7805	1648.450219404984	0
2	7809	1649.009503436185	1
2	7811	1649.221891162403	2
2	7813	1649.282637129201	3
2	7814	1649.386809037726	2
2	7818	1650.085342779816	3
2	7819	1650.460034655414	2
2	7823	1650.527908867644	3
2	7825	1650.56865572356	4
2	7826	1651.503002980172	3
2	7831	1652.603905622482	2
2	7835	1653.59839207846	3
2	7836	1653.755585048634	2
2	7840	1653.873943275163	3
2	7842	1653.940470110924	4
2	7843	1654.95485815509	3
2	7846	1655.969513088844	2
2	7850	1656.800330483349	3
2	7851	1656.867018681678	2
2	7855	1657.658185768454	3
2	7856	1657.746490664135	2
2	7860	1658.589960368658	3
2	7861	1658.822746297538	2
2	7865	1658.882037399396	3
2	7868	1660.003301844474	2
2	7872	1660.229277501308	3
2	7875	1661.1915493236	2
2	7878	1662.244749724686	1
2	7881	1663.188482165716	0
2	7885	1663.504861700979	1
2	7887	1663.579870586882	2
2	7889	1663.893169792636	3
2	7891	1664.222637886261	4
2	7892	1664.321709674324	3
2	7895	1665.16905826573	2
2	7899	1666.074856321089	3
2	7900	1666.281744378998	2
2	7904	1666.490558329044	3
2	7905	1667.126634650311	2
2	7910	1668.06693160758	1
2	7914	1668.841235422569	2
2	7916	1668.926261674429	3
2	7917	1669.03552801116	2
2	7920	1670.232374393294	1
2	7923	1671.056281253888	0
2	7930	1672.567130465613	1
2	7931	1672.712399169344	0
2	7935	1673.06214775565	1
2	7936	1673.628003600899	0
2	7946	1676.104582904747	1
2	7949	1676.807229144692	0
2	7955	1677.664982093022	1
2	7956	1677.902551666189	0
2	7960	1678.520813324755	1
2	7961	1678.788464678086	0
2	7968	1679.860601065716	1
2	7970	1680.419418252918	2
2	7971	1680.822216748547	1
2	7976	1681.733104781721	0
2	7980	1682.460424104228	1
2	7981	1682.571529981595	0
2	7985	1682.77790018185	1
2	7987	1683.037435574661	2
2	7988	1683.459022740748	1
2	7991	1684.341985365197	0
2	7995	1684.691123256931	1
2	7996	1685.440897491582	0
2	8000	1686.049151546335	1
2	8001	1686.255793593459	0
2	8005	1686.738742644567	1
2	8007	1686.904450101474	2
2	8009	1687.04977866327	3
2	8010	1687.073307135243	2
2	8014	1687.825929363972	3
2	8015	1688.175667573426	2
2	8018	1689.267193547644	1
2	8022	1689.701659301378	2
2	8023	1690.203697498337	1
2	8027	1690.699826527022	2
2	8028	1691.329326999009	1
2	8031	1692.226440312907	0
2	8035	1693.151976105891	1
2	8037	1693.156250251612	2
2	8038	1693.29818377924	1
2	8042	1693.34625159615	2
2	8043	1694.158563436762	1
2	8047	1694.957240501477	2
2	8048	1695.067616349839	1
2	8051	1695.944428857517	0
2	8055	1696.730923017732	1
2	8057	1697.072912782268	2
2	8058	1697.083274022311	1
2	8061	1697.914283099033	0
2	8068	1699.854643168574	1
2	8070	1699.856608746372	2
2	8072	1699.878690291854	3
2	8073	1700.02368532895	2
2	8077	1700.203444516138	3
2	8079	1700.537451034226	4
2	8083	1700.572539385145	5
2	8084	1700.928097442732	4
2	8088	1701.66578437836	5
2	8089	1701.894692623623	4
2	8092	1703.071731997941	3
2	8096	1703.838220944433	4
2	8098	1703.895310890767	5
2	8099	1704.070647917137	4
2	8102	1704.986991892484	3
2	8105	1705.846655697756	2
2	8109	1706.034630474238	3
2	8110	1706.699404372655	2
2	8114	1707.297257046453	3
2	8115	1707.664816082463	2
2	8118	1708.536556087815	1
2	8122	1708.623282367008	2
2	8126	1709.454138659024	3
2	8127	1709.501980238975	2
2	8131	1709.587992328679	3
2	8133	1709.685765129478	4
2	8134	1710.616127818831	3
2	8137	1711.662216493589	2
2	8140	1712.74269972789	1
2	8144	1712.995124735528	2
2	8146	1713.497628941406	3
2	8148	1713.691583372856	4
2	8149	1713.937572959633	3
2	8152	1715.014135236488	2
2	8156	1715.076077748024	3
2	8157	1716.075922978119	2
2	8160	1717.052316893832	1
2	8165	1718.062354755317	0
2	8169	1718.669678701114	1
2	8170	1719.067751360321	0
2	8174	1719.102491862132	1
2	8176	1719.629198294906	2
2	8177	1719.996698030373	1
2	8181	1720.373516198125	2
2	8183	1721.040486872946	3
2	8185	1721.131006521141	4
2	8186	1721.173937323699	3
2	8189	1722.073848508401	2
2	8193	1722.43798205695	3
2	8194	1722.949433545312	2
2	8197	1723.936969125094	1
2	8201	1724.339870673229	2
2	8202	1724.975009151837	1
2	8206	1725.775240681639	2
2	8207	1725.787511857143	1
2	8211	1726.048341234463	2
2	8212	1726.69432798178	1
2	8215	1727.690499237097	0
2	8237	1733.586847185547	1
2	8238	1734.719115376296	0
2	8242	1735.687862773448	1
2	8243	1735.774736517678	0
2	8254	1737.561581558774	1
2	8256	1737.688239941323	2
2	8257	1737.799496658995	1
2	8261	1737.96957461866	2
2	8264	1738.81646650416	1
2	8268	1738.85379079078	2
2	8269	1739.820158801611	1
2	8273	1739.944274450012	2
2	8278	1740.960940659057	1
2	8282	1741.479904065678	2
2	8283	1742.031036654032	1
2	8287	1742.102886283862	2
2	8290	1743.208286385342	1
2	8293	1744.255239311616	0
2	8300	1745.816342013718	1
2	8302	1746.247615030444	2
2	8303	1746.326303224555	1
2	8309	1746.573803088256	2
2	8312	1747.161279562964	1
2	8315	1747.97442566353	0
2	8322	1748.905933868992	1
2	8326	1749.640223697005	2
2	8327	1749.756610815051	1
2	8330	1750.630169055435	0
2	8337	1751.847668593916	1
2	8340	1752.633634350459	0
2	8362	1756.673722774059	1
2	8363	1757.015445786352	0
2	8375	1759.460498156752	1
2	8378	1760.281078763502	0
2	8388	1762.300842926313	1
2	8391	1763.017564841091	0
2	8423	1769.41389164983	1
2	8424	1770.014504150125	0
2	8433	1771.242900649608	1
2	8434	1771.87343046154	0
2	8441	1773.094765974735	1
2	8446	1773.898303555894	0
2	8455	1775.220226642319	1
2	8456	1776.090994589973	0
2	8460	1776.293290189933	1
2	8463	1777.288187132228	0
2	8467	1777.324189427593	1
2	8468	1778.284924362052	0
2	8489	1783.12020562489	1
2	8493	1783.608256102792	2
2	8494	1783.650728297059	1
2	8499	1784.564389018074	0
2	8506	1785.931814878639	1
2	8507	1786.410677740921	0
2	8511	1786.928626102408	1
2	8512	1787.304319940985	0
2	8522	1789.619904548104	1
2	8523	1790.120177915332	0
2	8529	1791.160688865726	1
2	8530	1791.199370398105	0
2	8536	1792.308510452186	1
2	8537	1792.374389684026	0
2	8544	1793.895711017479	1
2	8545	1794.096269453236	0
2	8549	1794.186556612919	1
2	8552	1795.243064784923	0
2	8556	1795.808403795237	1
2	8558	1796.002323709577	2
2	8559	1796.294441338082	1
2	8562	1797.174877311488	0
2	8569	1799.048144947678	1
2	8570	1799.058733488911	0
2	8574	1799.262576601342	1
2	8577	1799.990725229693	0
2	8581	1800.908968650246	1
2	8582	1801.134474561283	0
2	8586	1801.997988769137	1
2	8587	1802.292587728066	0
2	8597	1804.576641547439	1
2	8598	1805.264167838463	0
2	8602	1806.022817288705	1
2	8603	1806.268253371691	0
2	8607	1806.872611666866	1
2	8610	1807.377010091034	0
2	8614	1807.9901276147	1
2	8615	1808.30448023408	0
2	8619	1808.43303294992	1
2	8621	1808.966517249949	2
2	8622	1809.390543715575	1
2	8626	1809.534757422346	2
2	8627	1810.281454668393	1
2	8631	1810.535318851171	2
2	8632	1811.359887066776	1
2	8636	1811.950232170486	2
2	8637	1812.283436170233	1
2	8641	1812.773977468692	2
2	8642	1813.452092744888	1
2	8645	1814.523915102252	0
2	8649	1814.568355187382	1
2	8651	1815.25326566706	2
2	8652	1815.337944549614	1
2	8656	1815.341403238054	2
2	8657	1816.436061298953	1
2	8662	1817.613184493513	0
2	8666	1817.888709048374	1
2	8667	1818.68980282686	0
2	8682	1822.56172399999	1
2	8684	1822.737286759084	2
2	8685	1822.79671449886	1
2	8690	1823.960736585886	0
2	8694	1824.704890245701	1
2	8695	1824.796320229222	0
2	8701	1825.191886379794	1
2	8702	1825.825941475772	0
2	8709	1827.312596721552	1
2	8710	1827.685902988457	0
2	8737	1832.798626200843	1
2	8740	1833.599071687751	0
2	8747	1834.523139882456	1
2	8750	1835.536029851355	0
2	8761	1836.6121154865	1
2	8762	1837.647660089389	0
2	8771	1839.837670918775	1
2	8772	1839.996111662698	0
2	8789	1843.679370246711	1
2	8790	1843.896258048633	0
2	8797	1845.234363058038	1
2	8799	1845.369522482236	2
2	8800	1845.856657235523	1
2	8804	1846.598767762254	2
2	8805	1846.709702014656	1
2	8811	1847.338068186879	2
2	8812	1847.578096952954	1
2	8816	1847.788314058719	2
2	8818	1848.048236858355	3
2	8819	1848.690721261514	2
2	8823	1848.880095069552	3
2	8824	1849.69535321697	2
2	8827	1850.556023600617	1
2	8831	1851.160945711821	2
2	8832	1851.416944136204	1
2	8835	1852.295822290251	0
2	8848	1855.551867006597	1
2	8850	1855.603466597926	2
2	8852	1855.793134230994	3
2	8853	1856.114498149617	2
2	8858	1857.152474157432	1
2	8861	1858.094998017711	0
2	8867	1859.08953259998	1
2	8868	1859.16905227668	0
2	8872	1859.575204037261	1
2	8873	1860.005468623912	0
2	8877	1860.487744951834	1
2	8879	1860.512904674481	2
2	8880	1861.085957060395	1
2	8883	1861.89755323037	0
2	8890	1863.147127460118	1
2	8892	1863.312588060101	2
2	8894	1863.544005394659	3
2	8895	1863.714433579626	2
2	8898	1864.838832345246	1
2	8903	1866.010115234474	0
2	8907	1866.264213302801	1
2	8908	1866.965063699348	0
2	8917	1868.44911459274	1
2	8918	1869.133615788924	0
2	8924	1869.804111006388	1
2	8925	1870.029022193714	0
2	8929	1870.054894093572	1
2	8930	1870.895004516947	0
2	8934	1871.277707977726	1
2	8935	1871.825721247136	0
2	8939	1872.298539856453	1
2	8940	1872.774031238645	0
2	8950	1875.354719496086	1
2	8951	1875.624440070163	0
2	8960	1876.92059744304	1
2	8963	1877.901661092057	0
2	8972	1879.810103008569	1
2	8973	1879.923231487549	0
2	8985	1882.221961003624	1
2	8986	1882.96165498925	0
2	8995	1884.640111770178	1
2	8996	1884.647049298245	0
2	9008	1887.014711021938	1
2	9009	1887.726174923513	0
2	9016	1889.104090119338	1
2	9017	1889.901361489032	0
2	9027	1892.583883241379	1
2	9028	1893.020545588169	0
2	9044	1895.096395213385	1
2	9046	1895.576838767561	2
2	9049	1895.943704496991	1
2	9054	1896.838742238484	0
2	9064	1898.584289696703	1
2	9066	1899.056032879362	2
2	9067	1899.603892468676	1
2	9072	1900.766216756698	0
2	9084	1903.198981730154	1
2	9086	1903.764804157616	2
2	9087	1903.798504323714	1
2	9092	1904.874677931719	0
2	9101	1906.678870303599	1
2	9103	1906.885429188822	2
2	9104	1906.899383554809	1
2	9108	1908.03301610055	2
2	9109	1908.093598835837	1
2	9113	1908.144809626585	2
2	9114	1908.896082942203	1
2	9118	1909.086926857779	2
2	9121	1909.868707842768	1
2	9124	1910.952543529232	0
2	9128	1911.078988897512	1
2	9129	1912.137982553446	0
2	9133	1912.525931839664	1
2	9134	1913.300516580434	0
2	9141	1915.018502489448	1
2	9142	1915.26033154411	0
2	9151	1916.32698462681	1
2	9152	1917.037822220305	0
2	9161	1918.427426716063	1
2	9162	1918.915837430692	0
2	9177	1922.018497552752	1
2	9178	1922.449247112236	0
2	9186	1923.210259965249	1
2	9187	1923.290005735698	0
2	9191	1923.366799194062	1
2	9192	1924.166700790002	0
2	9196	1924.569807957954	1
2	9197	1925.231036444305	0
2	9204	1926.541935207976	1
2	9207	1927.269844146463	0
2	9216	1929.043167716231	1
2	9217	1929.163065484742	0
2	9223	1929.513511487189	1
2	9224	1930.069715927745	0
2	9233	1931.127261851476	1
2	9236	1932.014479646383	0
2	9251	1935.031096356826	1
2	9252	1935.977382952086	0
2	9256	1936.536597249185	1
2	9258	1936.74295508375	2
2	9259	1936.833894685208	1
2	9265	1937.17905788882	2
2	9268	1937.78604040008	1
2	9271	1938.608799240291	0
2	9275	1938.72927210673	1
2	9277	1939.016633901456	2
2	9278	1939.64759748701	1
2	9282	1939.76655050342	2
2	9283	1940.468412584085	1
2	9287	1941.379137326352	2
2	9288	1941.467391894031	1
2	9292	1942.140359626189	2
2	9293	1942.275592370722	1
2	9296	1943.244631563704	0
2	9303	1944.569173226679	1
2	9304	1945.335737706366	0
2	9321	1948.744292510997	1
2	9322	1949.371816881297	0
2	9331	1950.873249612705	1
2	9332	1951.446834370324	0
2	9348	1954.258101595976	1
2	9349	1954.375504652799	0
2	9356	1955.751522944355	1
2	9357	1956.307186869827	0
2	9371	1958.756614400843	1
2	9372	1959.194537375976	0
2	9384	1961.366338889081	1
2	9385	1962.050866714973	0
2	9392	1963.1840106245	1
2	9395	1964.148216787834	0
2	9404	1965.519029740101	1
2	9405	1966.223449361805	0
2	9416	1967.86820899948	1
2	9417	1968.507992078006	0
2	9430	1972.169627598428	1
2	9431	1972.428497148227	0
2	9437	1973.211406531972	1
2	9438	1973.56536879541	0
2	9442	1974.01742941062	1
2	9443	1974.737779249359	0
2	9453	1977.948403138464	1
2	9454	1978.019882887523	0
2	9458	1978.507605639226	1
2	9459	1979.194053693503	0
2	9470	1981.019441305555	1
2	9472	1981.06988701974	2
2	9473	1981.340013756524	1
2	9478	1982.30234191773	0
2	9488	1984.895840684059	1
2	9489	1985.170003242804	0
2	9525	1993.876113604836	1
2	9528	1994.242232103846	0
2	9542	1996.621781786924	1
2	9543	1997.274879725943	0
2	9560	2001.719805241722	1
2	9561	2002.578044933052	0
2	9565	2003.234192459972	1
2	9566	2003.563731631142	0
2	9580	2006.625294687255	1
2	9581	2007.19151250411	0
2	9595	2010.617361586035	1
2	9596	2011.315839586707	0
2	9617	2015.016337951683	1
2	9618	2015.075560836642	0
2	9627	2016.43299316546	1
2	9629	2016.703827609519	2
2	9630	2016.723927203248	1
2	9633	2017.616432922202	0
2	9642	2018.816659630049	1
2	9643	2019.478855017534	0
2	9654	2020.740443828114	1
2	9656	2020.853292406473	2
2	9658	2021.516243223098	3
2	9659	2021.616825858279	2
2	9666	2022.723315781317	1
2	9670	2023.299465878442	2
2	9671	2023.579128767233	1
2	9675	2024.126145492794	2
2	9676	2024.586133843623	1
2	9680	2025.119883830323	2
2	9681	2025.582824506108	1
2	9684	2026.736388934739	0
2	9688	2027.495992356953	1
2	9690	2027.590709266233	2
2	9691	2027.646626221631	1
2	9695	2027.798578197063	2
2	9697	2028.152083638899	3
2	9698	2028.840458130893	2
2	9701	2029.780996075143	1
2	9704	2030.893307981138	0
2	9711	2032.198251104519	1
2	9712	2032.980584649612	0
2	9724	2035.230144968969	1
2	9726	2035.629010642298	2
2	9730	2036.012406750871	3
2	9732	2036.103224911324	4
2	9733	2036.278627132309	3
2	9736	2037.402052794081	2
2	9739	2038.309404108544	1
2	9742	2039.509373075758	0
2	9751	2041.023369105476	1
2	9752	2041.73065447012	0
2	9756	2041.901086947463	1
2	9759	2042.537947366536	0
2	9766	2044.036747400243	1
2	9768	2044.369914509832	2
2	9769	2044.882422678881	1
2	9775	2045.628104072664	2
2	9777	2045.74596118235	3
2	9778	2046.045843178929	2
2	9782	2047.111111988236	3
2	9783	2047.191988822875	2
2	9789	2047.735565448476	3
2	9791	2048.04795947356	4
2	9792	2048.126780037546	3
2	9796	2048.127900778877	4
2	9797	2049.095149271713	3
2	9801	2049.583154786007	4
2	9802	2050.042872511932	3
2	9805	2051.056417266337	2
2	9809	2051.270416731989	3
2	9810	2051.949558905104	2
2	9813	2053.090065395051	1
2	9819	2053.455931989237	2
2	9822	2054.090302190055	1
2	9825	2054.981432543752	0
2	9832	2055.970929148904	1
2	9833	2056.785078404622	0
2	9839	2057.794775734224	1
2	9840	2057.893294456845	0
2	9844	2057.990148620649	1
2	9846	2058.003785530848	2
2	9848	2058.619956304361	3
2	9849	2058.797409477515	2
2	9852	2059.715535062795	1
2	9856	2059.872753559153	2
2	9858	2060.777615512034	3
2	9859	2060.910096091276	2
2	9862	2061.934256564325	1
2	9866	2062.649989082227	2
2	9868	2062.833481954285	3
2	9869	2062.973362840863	2
2	9873	2063.046768829831	3
2	9877	2063.241017230467	4
2	9878	2063.863863476889	3
2	9882	2064.02014218405	4
2	9883	2064.708645654062	3
2	9886	2065.764036836533	2
2	9890	2066.384240018056	3
2	9891	2066.612921787391	2
2	9895	2066.826113491558	3
2	9896	2067.441060938651	2
2	9900	2067.695916615485	3
2	9901	2068.251556802226	2
2	9905	2068.746566991139	3
2	9906	2069.297745658608	2
2	9910	2069.367693278734	3
2	9912	2069.636313184061	4
2	9914	2069.694859600478	5
2	9915	2070.341202614048	4
2	9919	2070.701713411995	5
2	9920	2071.2623340204	4
2	9923	2072.097841102315	3
2	9926	2073.019945690559	2
2	9930	2073.093976020791	3
2	9933	2074.198007816134	2
2	9937	2075.009993265862	3
2	9938	2075.03859215785	2
2	9941	2076.153099888248	1
2	9945	2076.587204255114	2
2	9946	2077.08717123462	1
2	9949	2078.188619477173	0
2	9959	2080.73436999753	1
2	9963	2081.191397287236	2
2	9964	2081.314617227541	1
2	9967	2082.153470297867	0
2	9977	2084.16383259763	1
2	9980	2085.041796440502	0
2	9992	2087.834455342411	1
2	9993	2087.976260267256	0
2	10000	2089.041794029126	1
2	10002	2089.047422593845	2
2	10003	2089.855884876719	1
2	10008	2090.890724131057	0
2	10012	2090.947455430186	1
2	10013	2091.908999881485	0
2	10017	2092.286554244325	1
2	10018	2092.74754330177	0
2	10025	2093.981252594893	1
2	10026	2094.995934545772	0
2	10066	2103.071488814738	1
2	10069	2103.516943253541	0
2	10078	2104.522166852905	1
2	10080	2105.014635647717	2
2	10081	2105.372431173605	1
2	10087	2106.469404221674	2
2	10088	2106.554432224725	1
2	10092	2106.628187454085	2
2	10093	2107.612110501119	1
2	10097	2108.445567655085	2
2	10098	2108.595817333703	1
2	10101	2109.714212358614	0
2	10108	2111.142567344753	1
2	10109	2111.509026264643	0
2	10123	2113.689079387862	1
2	10126	2114.63389570458	0
2	10137	2116.815826019738	1
2	10138	2116.956195810588	0
2	10164	2123.219007595379	1
2	10165	2124.316429697034	0
2	10172	2125.787505730996	1
2	10173	2126.468085108475	0
2	10186	2127.886207390411	1
2	10188	2128.09514362354	2
2	10189	2128.412391067819	1
2	10192	2129.538923643866	0
2	10198	2130.130660148092	1
2	10199	2130.523857805283	0
2	10210	2131.403470469319	1
2	10211	2132.453948131726	0
2	10224	2136.409753341682	1
2	10227	2136.612443785799	0
2	10234	2137.500341866328	1
2	10237	2138.591505412722	0
2	10249	2140.694682016101	1
2	10250	2141.384670538885	0
2	10256	2141.9511815006	1
2	10257	2142.343928648589	0
2	10261	2143.001862453604	1
2	10262	2143.448905123269	0
2	10266	2143.707321377253	1
2	10267	2144.25596055031	0
2	10271	2144.359262958524	1
2	10274	2145.450623480195	0
2	10278	2145.810356644115	1
2	10280	2146.226691878642	2
2	10281	2146.256987464765	1
2	10284	2147.262677513214	0
2	10288	2147.657761936497	1
2	10290	2148.088454081554	2
2	10291	2148.191037029179	1
2	10295	2148.89789326758	2
2	10298	2149.225271346292	1
2	10301	2150.04619009603	0
2	10305	2150.68793243988	1
2	10306	2150.85901111752	0
2	10310	2151.056115451839	1
2	10312	2151.341831254623	2
2	10314	2151.438896666368	3
2	10315	2151.754334681912	2
2	10319	2152.267507054808	3
2	10320	2152.879190576321	2
2	10324	2153.374868852672	3
2	10326	2153.927813296756	4
2	10327	2153.954127966485	3
2	10331	2154.558625604173	4
2	10332	2154.929429178744	3
2	10336	2155.06016831754	4
2	10338	2155.459052492816	5
2	10339	2155.80829241589	4
2	10342	2156.987904767937	3
2	10346	2157.043555273143	4
2	10347	2157.937764762028	3
2	10350	2159.031660719368	2
2	10354	2159.198223999568	3
2	10356	2159.618913454257	4
2	10357	2159.946675070434	3
2	10361	2160.890458589539	4
2	10362	2161.114149095736	3
2	10366	2161.616325715322	4
2	10367	2162.126568036865	3
2	10370	2162.993003301195	2
2	10374	2163.806034630093	3
2	10375	2163.949020743056	2
2	10379	2164.396218313792	3
2	10380	2165.049381766899	2
2	10384	2165.104606207278	3
2	10386	2165.551715999668	4
2	10387	2166.065175370278	3
2	10391	2166.894614906352	4
2	10392	2167.202749810053	3
2	10396	2168.172809575477	4
2	10397	2168.338731318304	3
2	10400	2169.445071715919	2
2	10403	2170.373128865158	1
2	10406	2171.252903361676	0
2	10413	2172.81310272389	1
2	10414	2173.418067700752	0
2	10423	2174.610292870475	1
2	10424	2175.515542688557	0
2	10431	2176.744747563286	1
2	10432	2177.654476732538	0
2	10441	2179.148230204339	1
2	10442	2179.841119659749	0
2	10451	2181.200833221633	1
2	10452	2182.053803816308	0
2	10459	2182.959889491943	1
2	10460	2184.085936824382	0
2	10482	2188.677756556895	1
2	10483	2189.542646326102	0
2	10489	2190.363966659561	1
2	10492	2190.410470823269	0
2	10498	2190.584062839129	1
2	10501	2191.535948509607	0
2	10511	2193.829421083169	1
2	10512	2194.481905615213	0
2	10524	2196.760688599859	1
2	10525	2197.129348856373	0
2	10532	2198.647127659878	1
2	10535	2198.905037439404	0
2	10542	2200.013831026546	1
2	10543	2200.784476039534	0
2	10550	2201.731334226855	1
2	10555	2202.540213914191	0
2	10572	2205.630465801103	1
2	10577	2206.709033110433	0
2	10586	2208.161094106179	1
2	10587	2208.788732695741	0
2	10596	2210.279309513892	1
2	10597	2211.012510142637	0
2	10603	2211.377320351076	1
2	10604	2211.92749929407	0
2	10608	2212.024720514098	1
2	10609	2212.746509246317	0
2	10632	2218.314529189827	1
2	10633	2218.757046787881	0
2	10639	2219.279518849059	1
2	10640	2219.827658752233	0
2	10644	2220.448373692918	1
2	10648	2220.465408949117	2
2	10649	2220.960397491951	1
2	10652	2221.829620178018	0
2	10667	2225.641586292324	1
2	10669	2225.955704085885	2
2	10670	2225.986126157801	1
2	10674	2226.771749090303	2
2	10675	2226.872210022315	1
2	10681	2227.327159227355	2
2	10682	2227.828152176525	1
2	10685	2228.722264994934	0
2	10689	2228.966559006004	1
2	10691	2229.266978271169	2
2	10693	2229.351881097324	3
2	10694	2229.916454148266	2
2	10697	2231.080525631338	1
2	10701	2231.252044263391	2
2	10703	2231.753478988951	3
2	10704	2231.92936435898	2
2	10708	2232.517293629935	3
2	10710	2232.759710329543	4
2	10711	2232.773416586101	3
2	10715	2232.908730514778	4
2	10719	2233.668065958242	5
2	10720	2233.81524522749	4
2	10724	2234.567369540904	5
2	10725	2234.653761570596	4
2	10728	2235.513254994129	3
2	10732	2235.674871517156	4
2	10733	2236.435633170859	3
2	10739	2237.283553101303	4
2	10740	2237.417964084235	3
2	10744	2238.425742838006	4
2	10745	2238.556063541838	3
2	10748	2239.461004627285	2
2	10751	2240.368518900381	1
2	10755	2241.068263376486	2
2	10756	2241.187564371129	1
2	10760	2241.883677443614	2
2	10762	2242.228301574942	3
2	10763	2242.24762956451	2
2	10767	2242.69982808345	3
2	10768	2243.161401650937	2
2	10772	2243.800906748975	3
2	10774	2243.984614665089	4
2	10775	2244.181225551547	3
2	10779	2244.329749444624	4
2	10781	2245.018796953639	5
2	10782	2245.103658492932	4
2	10786	2245.385434142124	5
2	10789	2245.920618221978	4
2	10793	2245.929013929927	5
2	10795	2246.239995489949	6
2	10796	2246.92276422053	5
2	10799	2248.078787142107	4
2	10803	2248.421700279608	5
2	10804	2248.904595193056	4
2	10808	2248.969577569511	5
2	10809	2249.888538140127	4
2	10812	2250.722699445182	3
2	10816	2250.798868308986	4
2	10817	2251.763152259843	3
2	10821	2251.962387048456	4
2	10822	2252.622626204205	3
2	10825	2253.646500803971	2
2	10829	2254.328369682117	3
2	10832	2254.823415701439	2
2	10836	2255.093907091723	3
2	10837	2255.937308085033	2
2	10841	2256.448624337956	3
2	10842	2256.889872452592	2
2	10845	2258.004763307491	1
2	10849	2258.62043530549	2
2	10850	2258.972149012586	1
2	10853	2259.805574111337	0
2	10857	2260.012280429199	1
2	10858	2260.796598219941	0
2	10862	2261.725223593648	1
2	10863	2261.82912621086	0
2	10867	2261.993646880738	1
2	10869	2262.168699121379	2
2	10871	2262.482364112191	3
2	10872	2262.885583576909	2
2	10876	2263.046558915136	3
2	10878	2263.576350108552	4
2	10879	2264.038876704103	3
2	10883	2264.666636926429	4
2	10884	2265.077068209066	3
2	10887	2265.973253134708	2
2	10891	2266.154402089496	3
2	10892	2266.991354539874	2
2	10895	2267.816744760401	1
2	10901	2268.58310838681	2
2	10902	2268.979854545254	1
2	10906	2269.603862653766	2
2	10907	2270.162400434516	1
2	10910	2271.040860749758	0
2	10917	2272.161491661471	1
2	10919	2272.276263928081	2
2	10920	2273.041995797935	1
2	10927	2273.884116250626	0
2	10934	2275.058927750602	1
2	10937	2275.868860380981	0
2	10943	2276.566205610316	1
2	10944	2276.955159800198	0
2	10991	2286.727318836748	1
2	10992	2286.889613161494	0
2	10999	2288.070201006615	1
2	11000	2288.745896224749	0
2	11007	2289.759775502463	1
2	11008	2290.549525343419	0
2	11074	2304.490877982751	1
2	11076	2304.729023746667	2
2	11077	2305.224454795361	1
2	11082	2306.317046275527	0
2	11086	2306.379367207802	1
2	11087	2307.130010803395	0
2	11091	2307.237343371826	1
2	11095	2307.531611872983	2
2	11096	2308.041802602519	1
2	11100	2308.509512728281	2
2	11101	2309.041807564326	1
2	11104	2309.930312281639	0
2	11118	2312.935091378959	1
2	11119	2312.937475496881	0
2	11123	2312.952330239105	1
2	11125	2313.564503774959	2
2	11127	2313.822005435955	3
2	11128	2314.085888272595	2
2	11133	2315.026774783969	1
2	11137	2315.328116988433	2
2	11138	2315.919006172266	1
2	11142	2316.314972309425	2
2	11143	2316.926083421406	1
2	11147	2316.988846329586	2
2	11148	2318.075616821718	1
2	11152	2318.651565386223	2
2	11153	2319.155700664573	1
2	11157	2319.342630954598	2
2	11159	2320.009913335452	3
2	11160	2320.266346117925	2
2	11163	2321.284603260808	1
2	11167	2321.317651712421	2
2	11168	2322.15780373288	1
2	11171	2323.313602899086	0
2	11175	2323.583974493453	1
2	11176	2324.114635564272	0
2	11180	2325.022710042841	1
2	11181	2325.24576165646	0
2	11185	2325.712149014532	1
2	11186	2326.274583425724	0
2	11190	2326.390842809884	1
2	11192	2326.521793971046	2
2	11196	2326.570343503985	3
2	11197	2327.449194392541	2
2	11201	2328.021780325728	3
2	11202	2328.249853274205	2
2	11206	2328.522800069212	3
2	11208	2328.869116524001	4
2	11209	2329.280336766669	3
2	11213	2330.210259854677	4
2	11214	2330.266385441718	3
2	11217	2331.192754602784	2
2	11221	2331.821108226323	3
2	11223	2331.908955190702	4
2	11225	2331.963675940074	5
2	11226	2332.189741799308	4
2	11230	2332.91135140126	5
2	11231	2333.153185195921	4
2	11234	2334.023946883323	3
2	11238	2334.53086696083	4
2	11239	2334.837438745031	3
2	11242	2336.033672583734	2
2	11245	2336.947350615521	1
2	11248	2337.813606487473	0
2	11255	2338.775149353179	1
2	11257	2339.479904476579	2
2	11259	2339.558999302471	3
2	11260	2339.58642363155	2
2	11264	2339.844805159535	3
2	11268	2340.246698045421	4
2	11269	2340.500317238995	3
2	11272	2341.339723937844	2
2	11276	2342.067615702271	3
2	11277	2342.424711457339	2
2	11280	2343.268550900721	1
2	11284	2343.968097966375	2
2	11285	2344.356633999922	1
2	11289	2344.584603866953	2
2	11291	2344.675413412148	3
2	11293	2344.789402232815	4
2	11294	2345.480699978561	3
2	11297	2346.319502463263	2
2	11300	2347.364619830601	1
2	11303	2348.225525502931	0
2	11310	2349.599161178235	1
2	11311	2350.313550729561	0
2	11315	2351.174656357382	1
2	11316	2351.282307795505	0
2	11320	2351.389862832991	1
2	11322	2351.698542626875	2
2	11323	2352.354179296526	1
2	11327	2352.450134291908	2
2	11328	2353.253031624644	1
2	11331	2354.286345465272	0
2	11335	2355.121083604768	1
2	11337	2355.12148206529	2
2	11338	2355.254287304147	1
2	11342	2356.217585441479	2
2	11343	2356.352549130353	1
2	11346	2357.415029465197	0
2	11361	2361.233780171657	1
2	11362	2361.280746757216	0
2	11366	2362.223126305183	1
2	11367	2362.429081635154	0
2	11371	2362.875380310313	1
2	11375	2363.059082030061	2
2	11376	2363.403285151511	1
2	11380	2363.757947067594	2
2	11381	2364.242197945598	1
2	11385	2364.455947326364	2
2	11386	2365.372776254616	1
2	11390	2365.596565404181	2
2	11391	2366.199654676835	1
2	11396	2367.152402230515	0
2	11400	2367.511302145108	1
2	11401	2368.056607637438	0
2	11405	2368.613969873992	1
2	11407	2368.671538567233	2
2	11408	2368.918071746524	1
2	11412	2369.351428062862	2
2	11413	2369.723422182701	1
2	11417	2369.834936557438	2
2	11418	2370.756635753229	1
2	11421	2371.56948254162	0
2	11425	2371.873076460212	1
2	11426	2372.461096587009	0
2	11430	2373.224454969738	1
2	11431	2373.461506571877	0
2	11435	2373.726880830444	1
2	11439	2373.989078284388	2
2	11440	2374.270896626427	1
2	11443	2375.271551507409	0
2	11447	2376.251927688319	1
2	11448	2376.372514766897	0
2	11452	2376.493582477577	1
2	11454	2376.536004894593	2
2	11455	2377.2205718613	1
2	11458	2378.216295577283	0
2	11462	2378.36978189828	1
2	11463	2379.123383540544	0
2	11467	2379.211182336902	1
2	11468	2380.096723702806	0
2	11472	2380.905398892914	1
2	11473	2381.033943179971	0
2	11477	2381.20888196203	1
2	11478	2382.07729075707	0
2	11484	2383.224825604953	1
2	11485	2383.262527385144	0
2	11489	2383.342723025253	1
2	11490	2384.087187638576	0
2	11497	2385.669443521559	1
2	11498	2386.037805980327	0
2	11505	2387.514762888722	1
2	11506	2388.235311720217	0
2	11517	2389.73438886692	1
2	11518	2390.252639902266	0
2	11524	2390.49436130173	1
2	11525	2391.125634095049	0
2	11534	2392.891517021487	1
2	11536	2393.092374076862	2
2	11537	2393.163415591954	1
2	11541	2393.181974703533	2
2	11545	2393.69715180615	3
2	11546	2394.170835434249	2
2	11550	2394.327143506469	3
2	11551	2395.08855071885	2
2	11554	2396.011532272654	1
2	11558	2396.036002926862	2
2	11560	2396.841244959598	3
2	11561	2396.956368909659	2
2	11564	2398.004164961608	1
2	11568	2398.092469605092	2
2	11570	2398.654083530707	3
2	11571	2399.14807018896	2
2	11576	2399.9811535076	1
2	11580	2400.30053799459	2
2	11581	2401.104484293214	1
2	11584	2402.297491229023	0
2	11591	2403.889634312441	1
2	11592	2403.931325956224	0
2	11596	2404.359468896714	1
2	11597	2404.827710451348	0
2	11614	2408.582397350684	1
2	11615	2408.638528572744	0
2	11621	2409.007070634922	1
2	11623	2409.383434299097	2
2	11624	2409.473816479998	1
2	11628	2410.535712670072	2
2	11629	2410.538686121138	1
2	11632	2411.640649944892	0
2	11636	2411.75143988437	1
2	11637	2412.634543699188	0
2	11652	2415.662212435623	1
2	11654	2416.044624952472	2
2	11655	2416.464179210992	1
2	11662	2417.382460578879	0
2	11666	2418.236368493345	1
2	11667	2418.32772561747	0
2	11671	2418.729343337956	1
2	11672	2419.197249793609	0
2	11676	2419.792498196435	1
2	11677	2420.145145705969	0
2	11684	2421.258748233807	1
2	11686	2421.339391812377	2
2	11688	2421.483636894157	3
2	11689	2422.355821327747	2
2	11694	2423.442376173263	1
2	11698	2423.572023611316	2
2	11699	2424.603174011478	1
2	11702	2425.511534202354	0
2	11706	2425.657981010503	1
2	11708	2425.766219583858	2
2	11710	2426.210331434152	3
2	11711	2426.312589591065	2
2	11715	2426.830677999935	3
2	11716	2427.457908800965	2
2	11720	2428.078689951963	3
2	11722	2428.283371373598	4
2	11723	2428.3730028562	3
2	11727	2428.413760672701	4
2	11729	2429.023528714817	5
2	11730	2429.551206926325	4
2	11735	2430.37744849508	3
2	11738	2431.224526190453	2
2	11741	2432.274114361194	1
2	11745	2432.33720326921	2
2	11746	2433.17674418201	1
2	11750	2434.250474919065	2
2	11751	2434.255682800126	1
2	11755	2434.439574823003	2
2	11756	2435.426187714071	1
2	11760	2436.103079999385	2
2	11762	2436.165482778651	3
2	11764	2436.436687401712	4
2	11766	2436.467970466169	5
2	11767	2436.477757489284	4
2	11771	2437.083459613403	5
2	11774	2437.378310653263	4
2	11778	2437.913030528131	5
2	11780	2437.956657114945	6
2	11781	2438.307452041538	5
2	11785	2438.766072932269	6
2	11787	2438.937913756369	7
2	11788	2439.176114563992	6
2	11793	2440.004783952398	5
2	11797	2440.397646146949	6
2	11798	2440.891239130752	5
2	11802	2441.322104753434	6
2	11803	2441.950498617975	5
2	11806	2443.103935453085	4
2	11810	2443.482642870705	5
2	11811	2444.238442337954	4
2	11815	2444.879907463568	5
2	11816	2445.319816289538	4
2	11819	2446.428537206886	3
2	11823	2447.206218197963	4
2	11824	2447.491770397661	3
2	11830	2447.990111499448	4
2	11831	2448.378117582271	3
2	11835	2448.543061206032	4
2	11837	2449.186406639571	5
2	11838	2449.307819672743	4
2	11841	2450.132384532666	3
2	11845	2450.736523126784	4
2	11846	2451.077756888116	3
2	11849	2452.03729830447	2
2	11853	2452.110838351631	3
2	11854	2452.845747171877	2
2	11857	2454.030968007701	1
2	11861	2454.30636483474	2
2	11863	2454.731235480883	3
2	11864	2454.962247706181	2
2	11868	2455.602207847463	3
2	11870	2455.913186413889	4
2	11871	2456.015474213636	3
2	11876	2457.053805117751	2
2	11880	2457.120139918412	3
2	11882	2457.276400746188	4
2	11884	2457.621809054943	5
2	11885	2458.105634596827	4
2	11888	2459.093922883342	3
2	11892	2459.37975167899	4
2	11894	2459.964790621065	5
2	11895	2460.190227447893	4
2	11898	2461.301334857452	3
2	11902	2461.696119033851	4
2	11903	2462.400408678944	3
2	11906	2463.585277678328	2
2	11910	2463.615822783393	3
2	11912	2463.807524177935	4
2	11914	2464.132739215754	5
2	11916	2464.518568114838	6
2	11917	2464.776927876355	5
2	11920	2465.757175173679	4
2	11924	2466.067948000933	5
2	11925	2466.768301845597	4
2	11929	2466.873002498549	5
2	11930	2467.871554759959	4
2	11933	2468.701161581626	3
2	11936	2469.828406222885	2
2	11940	2470.020592123199	3
2	11944	2470.785815444736	4
2	11945	2470.790715837268	3
2	11951	2471.720775075516	4
2	11952	2471.782234915042	3
2	11955	2472.914988656411	2
2	11958	2473.881105253076	1
2	11962	2474.295743125526	2
2	11963	2474.913560636503	1
2	11967	2475.7209990238	2
2	11969	2475.794725148598	3
2	11970	2476.074839831864	2
2	11974	2476.2893031409	3
2	11975	2477.13935664629	2
2	11979	2477.549050338616	3
2	11980	2478.061112697585	2
2	11984	2478.386535029961	3
2	11985	2479.024237882136	2
2	11989	2479.187662872267	3
2	11990	2480.156238592858	2
2	11994	2480.53922625021	3
2	11995	2481.094356300472	2
2	11999	2481.877465621638	3
2	12000	2481.962909379112	2
2	12003	2482.996271517663	1
2	12006	2484.002363324235	0
2	12010	2484.048766157431	1
2	12012	2484.155347301158	2
2	12013	2484.888889791514	1
2	12017	2485.16972648859	2
2	12018	2485.875793919317	1
2	12022	2486.098132468984	2
2	12024	2486.736545963619	3
2	12025	2486.973690632056	2
2	12029	2487.2034405343	3
2	12030	2487.979409312248	2
2	12034	2489.107880114867	3
2	12036	2489.151330858278	4
2	12037	2489.170930529177	3
2	12041	2490.122987392903	4
2	12042	2490.31414596967	3
2	12047	2491.19954760538	2
2	12051	2492.221579692547	3
2	12052	2492.354752944853	2
2	12056	2492.367816963821	3
2	12057	2493.185864871997	2
2	12061	2494.153419187111	3
2	12062	2494.346784407157	2
2	12066	2494.48813736197	3
2	12067	2495.356421460095	2
2	12071	2495.55575641458	3
2	12073	2495.648390915526	4
2	12074	2496.463535734895	3
2	12078	2496.559680072354	4
2	12079	2497.447182303178	3
2	12083	2498.299213222997	4
2	12086	2498.524481518729	3
2	12089	2499.3553271109	2
2	12092	2500.45821769738	1
2	12096	2500.603885164513	2
2	12097	2501.58315254345	1
2	12100	2502.645294144633	0
2	12104	2502.675854038962	1
2	12106	2503.177861248843	2
2	12107	2503.586469901143	1
2	12111	2504.371731533225	2
2	12112	2504.633624595845	1
2	12115	2505.73572280358	0
2	12122	2507.204380014938	1
2	12123	2507.875334542314	0
2	12136	2510.613638993975	1
2	12137	2511.507824303837	0
2	12141	2511.51450714919	1
2	12144	2512.432217077514	0
2	12148	2512.580545019128	1
2	12152	2513.365733966269	2
2	12153	2513.387102749919	1
2	12157	2514.171230304164	2
2	12158	2514.280071313561	1
2	12162	2514.663374008354	2
2	12163	2515.247321567007	1
2	12169	2515.496127183657	2
2	12170	2516.072211640675	1
2	12174	2516.169620914254	2
2	12175	2517.072341047574	1
2	12179	2517.423103245675	2
2	12180	2518.128541699305	1
2	12183	2519.283465193	0
2	12187	2519.588621510132	1
2	12189	2519.79572041173	2
2	12190	2520.478028568879	1
2	12193	2521.485755302824	0
2	12197	2521.865299199623	1
2	12199	2521.973074136221	2
2	12201	2522.202723435039	3
2	12202	2522.572660252239	2
2	12206	2522.927545647601	3
2	12207	2523.448797628071	2
2	12211	2524.169915888384	3
2	12212	2524.621912968226	2
2	12215	2525.579376618911	1
2	12219	2525.656527669301	2
2	12220	2526.578271545258	1
2	12224	2527.391913307028	2
2	12225	2527.639505543348	1
2	12229	2528.01803931543	2
2	12231	2528.199401766543	3
2	12232	2528.485330739499	2
2	12236	2528.705859941763	3
2	12237	2529.463062399973	2
2	12241	2530.075747528785	3
2	12243	2530.143635478042	4
2	12244	2530.447037970156	3
2	12247	2531.303769797061	2
2	12251	2532.173935839777	3
2	12253	2532.372085180166	4
2	12254	2532.372887419977	3
2	12257	2533.411489482105	2
2	12261	2533.739963216318	3
2	12262	2534.566207340799	2
[...]
6	129524	26129.044177609862	5.637362578311
6	129566	26136.89839778989	31.40111497683
6	129588	26141.177145327901	8.515982195392
6	129608	26145.200342186907	12.286030102205
6	129611	26146.32940795868	7.060758171261
6	129624	26149.220824566757	23.338410083259
6	129659	26156.515350826171	3.216348254379
6	129812	26186.448770176052	45.420605052896
6	129839	26191.628481683406	2.169046318185
6	129875	26199.594994116008	9.290089219155
6	129920	26208.935723225483	39.751496798453
6	129938	26212.669257651725	1.963043607643
6	129943	26213.809096586508	31.48129975392
6	129946	26214.962523829834	6.220647987037
6	130019	26231.416823375028	1.506472028664
6	130199	26266.531279032573	6.31157167136
6	130211	26268.722645473562	6.709118671017
6	130224	26271.683196177788	13.139783855484
6	130241	26274.453629338731	12.251511816411
6	130310	26287.276921378251	24.530425679517
6	130340	26293.574222816702	20.4120051589
6	130343	26294.538085309312	13.43532187217
6	130353	26296.41941027901	6.024750349488
6	130363	26298.385979016394	13.118478834882
6	130376	26301.644111229283	4.505742704954
6	130507	26326.216889369758	30.671154026398
6	130516	26327.235630915212	14.758611329854
6	130521	26328.310188375125	4.029008937737
6	130529	26330.390183234485	9.799216560218
6	130548	26333.742648486598	6.461023696512
6	130582	26341.703810369865	15.035959966267
6	130622	26349.680408711627	30.817323560121
6	130627	26350.85196017389	46.655207494936
6	130648	26356.004345140967	10.002825153715
6	130709	26366.533228878293	34.879283804734
6	130772	26377.009581325843	17.278761235984
6	130830	26389.638030380277	19.995588022551
6	130868	26396.122290007198	13.136112171122
6	130890	26400.0328563406	23.071632819944
6	130932	26407.781938590934	28.450828729596
6	130939	26408.843369066888	3.498305786151
6	130991	26420.685866354486	16.535353765271
6	131017	26424.887003820842	25.06569195958
6	131108	26442.688073659396	34.882270167968
6	131113	26443.762552848539	35.652677864127
6	131118	26444.917572675074	17.938234714505
6	131198	26461.195826200105	7.062030259659
6	131235	26468.314172952145	104.85127239917
6	131253	26472.622181272588	3.087207534007
6	131277	26476.745676483854	55.086301576103
6	131280	26477.547585661232	14.135741422976
6	131283	26478.487474438443	28.231795097439
6	131473	26517.826215894415	4.010881599998
6	131492	26520.929144562303	13.942564469751
6	131649	26551.347679730957	31.752892034276
6	131749	26568.993340905182	3.820118845931
6	131762	26572.026555152968	10.688132375826
6	131779	26574.844042456043	9.325083312948
6	131787	26576.718872866207	12.941331418956
6	131820	26583.427933212356	25.796558626225
6	131873	26592.842465677006	2.47889225514
6	131876	26593.904438643144	5.063582358035
6	131921	26602.866920806175	5.664121065116
6	131941	26606.67605316442	14.833979746604
6	131966	26611.712920139716	8.885684182754
6	131969	26612.876665789993	5.061701660175
6	131972	26613.706872102418	52.169815759546
6	132042	26628.939133362924	1.104404436031
6	132084	26636.780559032116	1.396954081005
6	132103	26642.001750472917	10.551157817302
6	132150	26650.753920212651	1.126266576659
6	132352	26688.754717746546	32.957438418188
6	132369	26691.539163351879	25.105396773871
6	132397	26697.210443771799	19.877974205158
6	132406	26700.385626005363	12.753346964751
6	132425	26703.53069357181	16.534251990696
6	132485	26715.650247622077	32.873972025508
6	132504	26718.656137286481	17.83093387023
6	132512	26720.488270335533	16.757600855185
6	132551	26729.344325106759	52.272166355917
6	132565	26731.425907293875	18.514478616965
6	132570	26732.616044228692	62.049975959653
6	132577	26733.651615499687	27.280748390659
6	132598	26739.035585158206	5.487034493112
6	132680	26755.345153792461	9.09273929474
6	132748	26766.379768781808	5.536346910526
6	132777	26770.918683612325	6.682200168091
6	132817	26778.481237530686	2.526549757323
6	132827	26780.789518377256	7.281963245571
6	132929	26801.431860195264	15.333861081304
6	132970	26808.186117339858	21.663727561305
6	132978	26809.862683882543	46.216458675487
6	132993	26812.953974238389	61.001785631413
6	133104	26836.069985569154	36.379801244752
6	133131	26840.895716164613	2.892965041029
6	133192	26852.304935617724	2.166677800227
6	133208	26856.488428475687	29.302104075673
6	133219	26859.315315796135	97.831588879466
6	133257	26867.517359137328	34.350979456026
6	133272	26870.503933271838	6.541330598545
6	133355	26886.960533810295	10.899497836614
6	133448	26904.398965938184	7.270974171219
6	133453	26905.531096311919	18.596137974619
6	133526	26920.524262199811	24.119099532076
6	133534	26922.653767100051	34.350987338416
6	133559	26928.14043404933	7.798374033122
6	133615	26938.020031371226	2.067025363645
6	133625	26940.152750090023	15.2254583772
6	133713	26958.277784684559	3.660754084754
6	133741	26964.06425616646	29.240459978251
6	133776	26971.020126460658	4.932434989063
6	133853	26986.386838755735	7.587837402994
6	133950	27005.248859755484	8.979053120381
6	133966	27009.469227455066	41.499250860368
6	134028	27021.891893686422	17.189825517627
6	134109	27037.475901167536	25.762543187389
6	134116	27038.334809470711	67.356512614327
6	134167	27049.429246511753	12.960238194312
6	134172	27050.468282977189	32.53544472734
6	134199	27055.534137793608	28.266633745053
6	134266	27068.214469325428	9.582805917016
6	134280	27070.411742283848	11.325095747038
6	134290	27072.724599500817	3.629425314291
6	134313	27077.932010334336	21.419190641778
6	134323	27079.981403074951	13.801049915604
6	134341	27083.949637239684	46.250231031516
6	134386	27093.15608913738	6.200928402073
6	134399	27096.388056419209	26.314738853419
6	134445	27104.352399334104	3.918709030452
6	134545	27124.75761149626	2.831908062736
6	134587	27132.748712468871	1.779990698377
6	134637	27142.350560211182	43.196792490065
6	134660	27147.506969088852	37.299494788511
6	134696	27155.281262329757	1.586637419847
6	134838	27183.851752010616	16.875281757501
6	134912	27198.802478765579	12.03270137346
6	134915	27199.708498181192	5.654573020341
6	134926	27202.609920367854	27.946450721856
6	134960	27210.529489252321	6.949532053311
6	135056	27228.052856409341	3.443101133649
6	135110	27239.409770951769	9.109576701466
6	135129	27242.531476927431	7.802728370057
6	135168	27251.75066295096	12.594634195237
6	135353	27288.463614618659	30.210573097046
6	135364	27291.299988380607	7.989270936225
6	135386	27295.070012973595	8.035119474447
6	135479	27313.022275178759	26.168333020619
6	135531	27322.937897001832	1.75849691418
6	135578	27334.360112498674	15.362576600077
6	135600	27338.14437985846	1.410214931616
6	135641	27345.366218679093	46.557708861537
6	135679	27353.18226750686	1.966696598125
6	135720	27362.018293048789	24.65057063104
6	135730	27363.732551486765	1.105447851606
6	135926	27403.845824700847	2.394772577456
6	135939	27406.74489483868	24.800198142946
6	136000	27416.965358026487	9.491203832128
6	136040	27425.349618293507	8.210074248879
6	136049	27426.48340984627	8.998201375401
6	136069	27430.492046744817	34.93655903147
6	136110	27439.745807949988	11.053448920433
6	136171	27450.58862326655	24.139752609315
6	136202	27458.019853062066	38.519187255845
6	136258	27468.152776966314	38.071439530976
6	136374	27492.962108147307	51.023258818122
6	136404	27498.713656257069	1.525626552024
6	136419	27501.810886659728	33.22258743257
6	136422	27502.809877880172	52.309240122909
6	136464	27510.021571295403	51.717614064024
6	136609	27537.352519942792	12.213027615964
6	136632	27542.41473748141	38.938044329585
6	136709	27557.719232422273	10.341516179366
6	136722	27560.715035237252	1.877339284636
6	136774	27570.787904235879	15.800849814794
6	136788	27572.65998940372	4.812131519227
6	136793	27573.745130337468	2.242436572833
6	136819	27579.44743205241	6.111595455624
6	136855	27587.595947209159	15.06096594526
6	136866	27590.912423640462	77.893711762759
6	136950	27607.101729508183	12.240943624443
6	137124	27641.85792787724	24.832370680845
6	137161	27649.06497696337	1.902989866865
6	137211	27658.957536108762	8.593463506197
6	137236	27664.156919719436	51.333872165301
6	137291	27675.066960453773	14.604926033366
6	137332	27684.227491405485	30.951563582741
6	137381	27692.977997950716	30.282934986375
6	137403	27696.727445613751	84.753344919398
6	137411	27698.673815259402	11.805662681712
6	137414	27699.81855671822	8.169233381974
6	137432	27703.99224289001	28.423343565798
6	137440	27706.032470890945	2.766571157455
6	137514	27719.379920925169	5.316979409548
6	137519	27720.515028641063	123.92722624637
6	137567	27732.649212832067	1.112531778771
6	137721	27765.146401020946	3.83531074892
6	137762	27771.842408088191	16.190774592057
6	137827	27785.709911959496	14.594910761206
6	137838	27788.589772195526	5.586061077817
6	137916	27802.197059400444	7.943675142542
6	137919	27803.36699050187	9.238576946109
6	137972	27815.158417097822	1.54792836613
6	137993	27819.728684506629	7.050314875157
6	138061	27834.034249231748	12.507001310908
6	138108	27843.516475748241	8.085957915089
6	138182	27857.812383096822	16.929999273721
6	138274	27873.832130360573	4.840309939554
6	138292	27877.926823662004	19.928079437679
6	138301	27880.433108863576	14.356896436166
6	138348	27889.927425018017	28.947705910428
6	138360	27891.661839763232	3.882651527657
6	138370	27893.618034223065	20.434135764691
6	138409	27902.575496469504	42.733318974991
6	138416	27903.657264733287	35.868145994079
6	138431	27906.941785818497	7.321242779674
6	138496	27919.500244820648	10.950201056397
6	138499	27920.308582698432	2.026992843852
6	138504	27921.49846985598	4.232683109664
6	138540	27927.68364253153	4.377219686018
6	138561	27932.721344461356	2.107990202263
6	138572	27935.577060384088	12.300932152626
6	138725	27966.129500633726	7.775781456032
6	138751	27972.254013452274	8.354091539091
6	138766	27975.102821529065	1.459630388728
6	138909	28003.871113801342	24.242760513113
6	138981	28017.589273069113	7.852789483013
6	138986	28018.435947314523	10.881994753667
6	138989	28019.341303836055	1.159473926022
6	139072	28039.153774484586	3.266150774003
6	139250	28075.341437354928	11.861672022173
6	139314	28089.680555484408	7.89741502005
6	139368	28101.488918380961	27.054177770532
6	139395	28106.44290708132	2.319467679801
6	139410	28109.262901919762	1.61602745592
6	139539	28133.758951596877	7.710260910876
6	139544	28134.940770213267	10.417781487861
6	139559	28137.920422200447	29.524593176321
6	139649	28155.959650469531	109.84575811849
6	139706	28167.065922594683	30.673080361989
6	139740	28175.575805112401	49.27840362986
6	139747	28176.389448196961	19.49524690375
6	139788	28185.071462795006	3.704270490339
6	139860	28200.402696870042	8.345185255338
6	140025	28230.975843720845	9.245587580125
6	140030	28231.922560567278	8.846080594986
6	140050	28235.396700364966	1.149193516821
6	140053	28236.294969584663	21.875053391065
6	140134	28251.123119432816	4.28993337536
6	140144	28253.326100654957	2.265134429637
6	140194	28264.064397577161	23.313838858198
6	140221	28269.292415141464	9.079383522127
6	140227	28271.509092428033	40.394688255445
6	140281	28283.583837773986	26.491993652807
6	140289	28285.549307067003	4.984048329063
6	140396	28306.913743660935	12.992959720429
6	140433	28314.441570979879	6.346677738662
6	140436	28315.538021875509	17.454010216427
6	140458	28319.583875486404	27.399062013275
6	140573	28342.715789502824	23.962138843559
6	140604	28349.505590577575	1.57954941513
6	140685	28364.429598216585	2.863323905045
6	140710	28369.436495299229	15.613371090907
6	140718	28371.388901252823	19.402811932154
6	140721	28372.19812069243	4.189043006406
6	140770	28383.043686772011	1.147025929661
6	140854	28398.061366420299	6.529984884675
6	140955	28418.035751756527	9.680079158815
6	141028	28431.675909484516	38.512844960095
6	141093	28444.340524093772	34.178571374125
6	141098	28445.472059090866	43.010630567126
6	141142	28453.57003364159	16.971386024343
6	141160	28457.274967092148	64.088085021628
6	141176	28460.93966134122	17.346260288462
6	141229	28469.36034030799	41.961781233434
6	141275	28479.815971950779	42.762217790879
6	141382	28500.456630659441	26.496978843174
6	141468	28516.073665316369	72.75745661601
6	141494	28520.003824008129	28.837906563354
6	141502	28522.124418685365	144.48213222847
6	141513	28525.111184187665	74.67278623833
6	141528	28527.98153090427	139.37137063806
6	141536	28529.857210312284	53.263356321621
6	141551	28532.977153950337	70.831825785629
6	141565	28535.181863825362	37.630860030551
6	141581	28539.013393822931	120.42395255515
6	141586	28539.994481160365	6.872172723503
6	141617	28546.925375204129	85.12148541323
6	141649	28552.649431412448	3.535913629224
6	141693	28562.760887239375	29.41945906899
6	141747	28575.725372239634	1.365707124334
6	141811	28587.726814167074	10.20320450857
6	141944	28610.883844877001	16.177080770223
6	141947	28612.061764253363	23.71661346104
6	141969	28616.028548151688	2.940352610495
6	141979	28618.167691401081	8.125641897237
6	142010	28625.299856056054	41.175240190552
6	142038	28631.653574259826	2.716196212015
6	142083	28640.170258187097	24.440044618592
6	142097	28643.916978177396	55.736599041323
6	142196	28662.879182718475	11.042867672615
6	142228	28668.858396204993	8.944690455414
6	142295	28681.161706613249	10.426558567594
6	142300	28682.0886592331	1.898282065668
6	142347	28691.308052819933	2.553880944617
6	142350	28692.499934139068	10.460171800487
6	142368	28696.687126931048	12.008238096532
6	142432	28708.21233587718	10.431596622442
6	142435	28709.387858215313	6.396014760684
6	142460	28714.364002963495	2.086628349245
6	142463	28715.453697940302	3.254519701375
6	142466	28716.646888808687	2.433342507472
6	142554	28737.081301355702	11.192351780489
6	142614	28748.83693842689	3.214847201707
6	142633	28751.988092581429	3.305391797118
6	142679	28759.940484698735	9.586233779355
6	142748	28773.12832801385	7.52263673495
6	142797	28782.563717764953	20.374121797144
6	142815	28786.773432238737	12.613203501451
6	142852	28795.832376726122	1.02146249893
6	142904	28807.750231689366	6.94079552673
6	143029	28828.800822873565	20.987116449431
6	143091	28840.651014102402	36.247167584572
6	143102	28843.779449790123	17.313353558085
6	143125	28848.710201652035	3.613519795126
6	143164	28856.217086295283	45.351588062002
6	143169	28857.391603758803	48.555165955498
6	143177	28859.293191409169	21.034621502515
6	143200	28864.273322133405	26.70492277634
6	143208	28866.17406227017	27.673166383204
6	143261	28874.972361468581	8.449383227341
6	143311	28884.456243723316	23.935775830093
6	143317	28886.519490931985	11.896057437067
6	143374	28897.894853237516	3.554699881539
6	143403	28902.7478964673	28.446631356624
6	143406	28903.684045532683	14.873847670053
6	143409	28904.792329119204	13.163381706892
6	143429	28909.131822828448	3.352022857351
6	143515	28926.748104574309	4.124543185976
6	143556	28933.755145123099	21.333446600003
6	143599	28942.971983582956	11.711920372138
6	143756	28974.702785295303	32.030101943253
6	143825	28987.467852799184	56.71300222631
6	143842	28990.860521170459	31.621832198408
6	143888	29000.282488198168	8.955342412324
6	143981	29019.680343332385	16.827449484027
6	144013	29027.890701470116	12.580291337482
6	144089	29042.135971185065	34.856559613187
6	144123	29048.061674015561	2.54487647236
6	144128	29049.003298455441	2.476704370122
6	144158	29054.544123068323	9.103481056946
6	144173	29057.251763673743	22.575294397843
6	144181	29058.990417990518	19.958556128512
6	144184	29059.90160517214	3.33220391595
6	144334	29089.792252860275	14.630893876919
6	144337	29090.767192078718	7.976474318622
6	144399	29102.855246374439	7.478373314513
6	144509	29125.699338247122	13.858285498286
6	144524	29128.569751257131	5.590271128926
6	144905	29200.877529108394	13.848464720173
6	144962	29210.164022472742	41.074758476876
6	144989	29215.285560694484	16.095940509117
6	144992	29216.168152220508	25.141450852473
6	144995	29217.360967896746	64.40876705676
6	144998	29218.225010167768	17.692101233864
6	145016	29222.15331819901	11.236391529137
6	145043	29229.673670934379	58.811268236163
6	145050	29230.765556673851	55.916717589605
6	145078	29237.293669639581	35.736358438105
6	145126	29247.532575985937	43.398794616965
6	145180	29257.788210457991	121.71017102594
6	145201	29262.71860707594	0.856215943616
6	145215	29264.715891454424	12.337539511242
6	145223	29266.640166422593	84.284878611803
6	145236	29269.498540646544	119.78141736681
6	145369	29295.885710953231	27.349084017976
6	145404	29302.894944582934	12.36318261057
6	145416	29304.907433369904	1.640330042157
6	145458	29315.081230161859	13.423928002926
6	145500	29323.308056795093	1.944990903571
6	145612	29345.264538926593	23.917449943068
6	145615	29346.223327501732	16.237294203555
6	145689	29362.258672471026	30.730589216958
6	145692	29363.103109108524	13.930770548311
6	145712	29366.982471147606	9.647959836658
6	145754	29374.890673194974	3.412228181674
6	145785	29381.647568283285	6.55907192563
6	145873	29399.629912220182	2.502719995376
6	145898	29404.832653562778	5.877402203839
6	145910	29407.043782500883	1.916740845895
6	145982	29422.18645024128	51.71446957092
6	146062	29438.697531541306	5.688985222557
6	146089	29443.804010011963	8.116368115697
6	146102	29446.920836382507	27.078816659613
6	146132	29453.037595762088	9.398662415012
6	146178	29460.842359515334	6.992592740874
6	146217	29467.900325204113	4.397494949894
6	146227	29469.825991113537	4.052638322628
6	146241	29473.74191052323	14.541882930681
6	146282	29480.723537827524	26.325333303827
6	146303	29485.862538740372	28.181357932401
6	146306	29486.801323093807	36.364907645769
6	146362	29496.695287627035	9.410729917534
6	146370	29498.731891980541	39.47296815106
6	146380	29501.039522452705	9.034265597849
6	146400	29504.694662304368	22.439194021024
6	146476	29518.867873312956	28.984668792561
6	146486	29520.829153353306	3.637294275226
6	146491	29521.897290565776	3.989084399612
6	146499	29523.758067536032	14.991430553011
6	146662	29558.869842166411	55.061485250629
6	146675	29561.821931736409	3.052989157838
6	146826	29592.453838094469	9.832431391311
6	146891	29606.129148577764	11.838606894189
6	147015	29629.521862379234	7.262540110396
6	147033	29633.390888982877	24.339157177546
6	147086	29643.864968474354	1.329398601946
6	147105	29646.674099664069	32.077181854618
6	147108	29647.723840989783	3.683581016138
6	147204	29667.548886913485	9.007650760127
6	147214	29669.610026412974	23.242430155138
6	147273	29680.317347728603	1.896567489533
6	147276	29681.503610773899	17.590475892432
6	147302	29687.673914170035	2.021983865113
6	147485	29724.220484019585	23.950892681066
6	147500	29727.428445602443	2.838934562606
6	147518	29731.302104222357	1.896430102124
6	147528	29733.610045173719	16.243270620573
6	147531	29734.558137190949	19.553715872161
6	147592	29747.325647193149	2.077750915582
6	147623	29752.801418449686	14.146881409449
6	147687	29764.414531417334	10.658466366957
6	147703	29768.494085813363	18.956301787884
6	147726	29773.561078864665	11.723141456077
6	147767	29780.571087985722	23.226017496108
6	147780	29783.470177405378	4.354162778363
6	147809	29788.205217045317	19.146632951613
6	147827	29792.205928755789	14.459029295559
6	147832	29793.231431636452	13.703638264036
6	147837	29794.403920152835	39.27049169642
6	147873	29802.444985165498	28.29874103752
6	147876	29803.322936113789	1.821864452111
6	147899	29808.548735573194	15.000432224077
6	147974	29823.746761734368	5.396643637565
6	148021	29833.496609140051	5.478922913308
6	148029	29835.640495500205	27.149131707045
6	148032	29836.817823543543	21.644329660998
6	148164	29867.070362447347	13.833533200648
6	148174	29869.194171869527	5.37616069403
6	148271	29888.56475407477	37.135742386918
6	148296	29893.450873772851	8.969191535853
6	148313	29896.888080926104	15.3394452681
6	148359	29907.005473535745	11.253678320142
6	148379	29910.865252367551	20.163258888869
6	148464	29928.210321247349	5.30460701334
6	148467	29929.071866484596	10.751568430699
6	148492	29934.103712442102	6.207095123287
6	148666	29969.307484054616	4.099847165984
6	148685	29972.285771650778	2.689756311169
6	148723	29979.954483967418	6.305057524111
6	148736	29983.237585500399	11.576898182929
6	148769	29989.972103082626	26.978796974159

