version 2
run Second_exit_2-9-20191023-00:19:50-5166
attr configname Second_exit_2
attr datetime 20191023-00:19:50
attr experiment Second_exit_2
attr inifile omnetpp.ini
attr iterationvars ""
attr iterationvarsf ""
attr measurement ""
attr network ResponseTimeNetwork
attr processid 5166
attr repetition 9
attr replication #9
attr resultdir results
attr runnumber 9
attr seedset 9
param **.Source.interArrivalTime exponential(5s)
param **.jobPriority bernoulli(0.6)
param **.PS.serviceTimeU1 "uniform(0.8s, 1.2s)"
param **.PS.serviceTimeU2 "uniform(1.8s, 2.2s)"
param **.SS1.serviceTime exponential(1s)
param **.SS2.serviceTime exponential(1.2s)
param **.PS.exitProbability bernoulli(0.2)

vector 0 ResponseTimeNetwork.SS1 queueLength:vector ETV
attr interpolationmode sample-hold
attr title "queue length, vector"
vector 1 ResponseTimeNetwork.SS2 queueLength:vector ETV
attr interpolationmode sample-hold
attr title "queue length, vector"
vector 2 ResponseTimeNetwork.QueueU1 queueLength:vector ETV
attr interpolationmode sample-hold
attr title "queue length, vector"
vector 3 ResponseTimeNetwork.QueueU2 queueLength:vector ETV
attr interpolationmode sample-hold
attr title "queue length, vector"
vector 4 ResponseTimeNetwork.sink lifeTimeU1:vector ETV
attr interpolationmode none
attr title "lifetime of arrived jobs U1, vector"
attr unit s
vector 5 ResponseTimeNetwork.sink lifeTime:vector ETV
attr interpolationmode none
attr title "lifetime of arrived jobs, vector"
attr unit s
vector 6 ResponseTimeNetwork.sink lifeTimeU2:vector ETV
attr interpolationmode none
attr title "lifetime of arrived jobs U2, vector"
attr unit s
0	0	0	0
0	762	521.338668203359	1
0	764	521.690667836661	0
0	7600	5913.000591236803	1
0	7601	5913.116710736059	0
0	7925	6202.916364148597	1
0	7926	6204.356177981456	0
0	9085	7098.407422779902	1
0	9091	7101.445263172966	0
0	9615	7415.261364612732	1
0	9616	7417.06334579419	0
0	10155	7851.542188579881	1
0	10156	7854.877882303507	0
0	17134	13291.263175146627	1
0	17141	13293.267249148238	0
0	19340	14981.193402317351	1
0	19344	14981.513845799412	0
0	23705	18563.969344508056	1
0	23706	18564.281830249161	0
0	30347	23932.798468431177	1
0	30351	23934.724247698871	0
0	30712	24226.185450081944	1
0	30714	24226.583227466266	0
0	30720	24227.887698225069	1
0	30721	24231.397875052077	0
0	30952	24436.379881939067	1
0	30954	24436.880612358932	0
0	34147	26850.659735955158	1
0	34149	26850.863732500743	0
1	0	0	0
1	1400	1058.198193700447	1
1	1404	1059.528921031283	0
1	4290	3299.175100991588	1
1	4296	3300.913079548012	0
1	5155	3994.583120004089	1
1	5156	3995.167670173145	0
1	10850	8403.303198646886	1
1	10854	8404.614822566051	0
1	13000	9981.391724219063	1
1	13001	9981.863833296232	0
1	14000	10791.244706229114	1
1	14004	10792.946959313382	0
1	15285	11845.749158477724	1
1	15286	11846.402947023162	0
1	22590	17789.761249038937	1
1	22591	17789.968616955788	0
1	27355	21601.6441161326	1
1	27356	21602.843318074858	0
1	28115	22208.500012659241	1
1	28116	22208.96225635389	0
1	28122	22209.856170718075	1
1	28124	22210.685733044971	0
1	29927	23674.514249012715	1
1	29929	23675.366150101335	0
2	0	0	0
2	10	2.356409501546	1
2	13	3.24504076082	0
2	20	4.355888885365	1
2	22	4.794909088708	2
2	23	4.95549680067	1
2	28	6.106920433769	0
2	32	6.914317187524	1
2	33	7.287306045534	0
2	100	88.835985823694	1
2	101	89.628961581722	0
2	150	123.893263189035	1
2	151	124.082256449078	0
2	155	124.231613785032	1
2	158	124.910290672694	0
2	170	127.223466617643	1
2	171	128.158143821337	0
2	175	128.232026877734	1
2	176	129.108192923736	0
2	200	145.985841334488	1
2	201	147.058134574278	0
2	220	164.345874812835	1
2	221	164.479878890056	0
2	240	185.977966022431	1
2	242	186.180145790716	2
2	243	186.414999172542	1
2	246	187.41123979146	0
2	250	187.832659546037	1
2	254	188.41116130661	2
2	255	188.536232761372	1
2	259	188.973896770231	2
2	260	189.652760053691	1
2	263	190.755974464663	0
2	267	191.060156202653	1
2	270	191.880540282265	0
2	285	195.049735638524	1
2	286	195.663871530429	0
2	310	212.919855177251	1
2	311	213.860070992217	0
2	315	214.356962796718	1
2	316	214.665749253475	0
2	445	305.322651514006	1
2	446	305.875868018395	0
2	480	333.903823543514	1
2	481	333.960629507027	0
2	490	342.681297356654	1
2	491	342.720960111659	0
2	495	342.907439957457	1
2	496	343.697621383075	0
2	550	399.473857754395	1
2	551	400.304324494027	0
2	555	400.619175004455	1
2	556	401.430174337797	0
2	560	401.866646135469	1
2	561	402.603568516489	0
2	610	434.475594143987	1
2	613	435.085218988806	0
2	640	445.475668138245	1
2	641	446.28472726784	0
2	652	447.827901770773	1
2	653	448.386109599483	0
2	660	449.754467261907	1
2	661	450.533340482425	0
2	685	462.698945380617	1
2	686	462.777478182661	0
2	690	463.216972877701	1
2	691	463.944680748387	0
2	755	519.601745817353	1
2	756	520.336547080898	0
2	760	520.858180159341	1
2	761	521.338668203359	0
2	765	521.690667836661	1
2	766	522.217356422456	0
2	850	583.286960616743	1
2	851	583.596986104784	0
2	900	620.008881490104	1
2	901	620.607638098463	0
2	915	629.346360224257	1
2	916	629.848859594432	0
2	925	631.752238128641	1
2	926	631.829026522809	0
2	960	659.599822310955	1
2	961	660.503034058712	0
2	1050	755.079053236825	1
2	1051	755.358710632607	0
2	1075	768.759892227727	1
2	1076	769.110352496277	0
2	1122	836.166620212825	1
2	1123	836.537515055836	0
2	1150	885.044937607865	1
2	1151	885.985413574166	0
2	1200	906.222855932127	1
2	1201	906.696497657415	0
2	1250	968.270467915504	1
2	1251	968.878591489035	0
2	1265	974.944816836659	1
2	1266	975.048388909841	0
2	1270	975.074889103868	1
2	1271	976.020117312031	0
2	1280	982.653614200916	1
2	1281	982.954816746239	0
2	1300	987.407380237081	1
2	1301	988.361416266418	0
2	1310	1004.432151861515	1
2	1311	1004.825289148386	0
2	1375	1039.02906153602	1
2	1376	1039.627319540883	0
2	1425	1068.162089949695	1
2	1426	1068.594015180377	0
2	1450	1113.758152598651	1
2	1451	1114.586002202058	0
2	1455	1114.755776461949	1
2	1458	1115.651802907517	0
2	1530	1170.013700984599	1
2	1531	1171.150842707391	0
2	1540	1172.439071406596	1
2	1541	1173.071848442937	0
2	1600	1220.433826859748	1
2	1601	1220.506826717597	0
2	1645	1245.110626586444	1
2	1646	1245.167570909946	0
2	1665	1254.766413901067	1
2	1666	1255.509521762232	0
2	1705	1292.450086102896	1
2	1706	1293.04305815322	0
2	1750	1327.196715737119	1
2	1751	1327.312975938503	0
2	1755	1328.075291127163	1
2	1756	1328.117574467674	0
2	1805	1377.858329137892	1
2	1807	1378.255481223095	2
2	1808	1378.562381347678	1
2	1811	1379.427916763387	0
2	1840	1398.694655592508	1
2	1841	1398.842376057407	0
2	1910	1469.221845031541	1
2	1911	1470.079910672168	0
2	1945	1499.504513253746	1
2	1946	1499.509047378895	0
2	1955	1503.542706922671	1
2	1956	1503.948749545167	0
2	1965	1505.882957392436	1
2	1966	1505.899358930948	0
2	2050	1619.401720360635	1
2	2051	1619.775655765088	0
2	2070	1626.401340775891	1
2	2071	1627.307811573255	0
2	2085	1636.469279492311	1
2	2086	1637.261938829799	0
2	2115	1653.808397695055	1
2	2116	1654.300058966565	0
2	2150	1685.826837287433	1
2	2151	1686.12428361683	0
2	2160	1688.457873424206	1
2	2161	1688.488734618902	0
2	2200	1712.9657844652	1
2	2203	1713.841147593525	0
2	2207	1714.257259368369	1
2	2208	1714.739613067941	0
2	2240	1731.713365283768	1
2	2241	1732.417085210128	0
2	2285	1754.568744731317	1
2	2286	1754.796377729969	0
2	2350	1847.124106741815	1
2	2351	1847.495885144358	0
2	2415	1908.366562590504	1
2	2416	1909.267200089707	0
2	2460	1954.024092442774	1
2	2461	1954.833553108826	0
2	2535	1997.935223764594	1
2	2537	1998.460950101282	2
2	2538	1998.678902869431	1
2	2543	1999.827352021767	0
2	2550	2001.655102201209	1
2	2551	2001.891987088269	0
2	2690	2098.686537295156	1
2	2691	2098.877095060099	0
2	2742	2121.844585601859	1
2	2743	2122.916282065324	0
2	2747	2123.527515224631	1
2	2748	2124.079376352876	0
2	2757	2125.393092460806	1
2	2758	2126.121034436598	0
2	2790	2141.298549916132	1
2	2791	2141.591317117008	0
2	2825	2202.311830355163	1
2	2827	2202.5689984368	2
2	2828	2202.699653168586	1
2	2831	2203.583190604583	0
2	2835	2203.594707009469	1
2	2836	2204.591882112533	0
2	2855	2209.551414203977	1
2	2856	2210.027503158925	0
2	2940	2267.442498520255	1
2	2941	2268.458283610963	0
2	3015	2348.327740462149	1
2	3016	2348.757552299369	0
2	3025	2351.475490762032	1
2	3026	2352.03815327136	0
2	3090	2394.596203875447	1
2	3091	2394.809818431287	0
2	3095	2395.604972930858	1
2	3096	2395.828367888852	0
2	3115	2402.606119290568	1
2	3116	2402.926129446584	0
2	3125	2408.073480213883	1
2	3126	2408.234683071599	0
2	3205	2470.316671529463	1
2	3206	2471.346023892452	0
2	3235	2491.684610146429	1
2	3236	2491.918349673552	0
2	3245	2493.487980259939	1
2	3246	2493.74186220481	0
2	3290	2539.989588901797	1
2	3291	2540.527176357897	0
2	3325	2563.227924370612	1
2	3329	2563.362026545178	2
2	3330	2563.469683842849	1
2	3335	2564.494166253809	0
2	3410	2608.135331717131	1
2	3411	2608.978031141328	0
2	3470	2656.38246220232	1
2	3471	2656.834541798755	0
2	3495	2704.210513325625	1
2	3499	2704.266585516867	2
2	3500	2705.284033662353	1
2	3503	2706.273357955545	0
2	3507	2706.383315339449	1
2	3508	2707.148404543839	0
2	3512	2707.726745119062	1
2	3514	2708.29904414783	2
2	3515	2708.314596988346	1
2	3520	2709.430831079643	0
2	3527	2710.477814611495	1
2	3528	2711.462696312081	0
2	3570	2760.55654450727	1
2	3571	2761.093060181962	0
2	3605	2787.889306530636	1
2	3606	2788.033252225538	0
2	3637	2800.077238207328	1
2	3638	2800.106882367493	0
2	3660	2803.898141600799	1
2	3661	2805.054677401879	0
2	3670	2807.100308793302	1
2	3671	2807.230016179686	0
2	3675	2808.325314896842	1
2	3676	2808.408918818296	0
2	3720	2851.587746962652	1
2	3721	2851.754959331547	0
2	3725	2851.905024075801	1
2	3726	2852.633749735915	0
2	3825	2939.452158035592	1
2	3826	2940.450828848544	0
2	3860	2977.67718778512	1
2	3861	2977.914601336875	0
2	3985	3077.795052292353	1
2	3986	3078.813745350637	0
2	4105	3161.690822429008	1
2	4106	3162.350578473462	0
2	4110	3163.241726027665	1
2	4111	3163.327660691971	0
2	4200	3236.650535108532	1
2	4201	3237.360001567466	0
2	4215	3241.525110159527	1
2	4216	3241.724688663463	0
2	4220	3242.201145287401	1
2	4221	3242.676846367343	0
2	4255	3270.425631188245	1
2	4256	3270.461590416536	0
2	4304	3301.495858577331	1
2	4305	3301.947198834895	0
2	4345	3319.470340860248	1
2	4346	3320.169926064743	0
2	4370	3342.923193838463	1
2	4371	3343.579786606036	0
2	4380	3347.972304207004	1
2	4381	3348.138375327566	0
2	4395	3354.800483240602	1
2	4396	3355.085581741791	0
2	4410	3358.530911647321	1
2	4411	3359.488034942598	0
2	4435	3375.033710704246	1
2	4436	3375.362351547047	0
2	4440	3376.014011163512	1
2	4441	3376.396949300594	0
2	4450	3377.638837202172	1
2	4451	3378.317334547815	0
2	4470	3387.988005817771	1
2	4471	3388.98264433347	0
2	4475	3390.01688134624	1
2	4476	3390.042129048392	0
2	4495	3400.324592695524	1
2	4496	3400.845570301743	0
2	4500	3400.97966463825	1
2	4502	3401.290712914888	2
2	4503	3401.687520528225	1
2	4506	3402.510945433577	0
2	4515	3420.973067872881	1
2	4516	3421.519758610201	0
2	4520	3421.678005588183	1
2	4522	3422.428180793068	2
2	4523	3422.559781389364	1
2	4526	3423.679821362958	0
2	4540	3444.271306750032	1
2	4543	3444.5773806559	0
2	4560	3448.897038665652	1
2	4561	3449.481835918564	0
2	4660	3571.885977636864	1
2	4661	3572.650262426918	0
2	4670	3574.781478183219	1
2	4671	3575.021278267852	0
2	4700	3603.599874085472	1
2	4701	3604.381141365318	0
2	4752	3662.097043126801	1
2	4753	3662.161001627355	0
2	4765	3664.41124246889	1
2	4766	3664.936833546705	0
2	4772	3665.764912499461	1
2	4773	3665.906294768791	0
2	4800	3704.971933484813	1
2	4801	3705.780191776815	0
2	4860	3767.695158151291	1
2	4861	3768.073999321785	0
2	4870	3770.835824873823	1
2	4871	3771.11601203125	0
2	4885	3775.614889797811	1
2	4886	3776.083915290989	0
2	4935	3832.865316106476	1
2	4936	3832.872213380714	0
2	4965	3847.135778344954	1
2	4966	3847.504755319071	0
2	5015	3903.22799668657	1
2	5016	3904.127339731406	0
2	5035	3921.96599045049	1
2	5036	3922.788606543474	0
2	5057	3927.459077418481	1
2	5058	3927.483348792054	0
2	5135	3990.479411300766	1
2	5138	3990.649058547338	0
2	5147	3992.073351693552	1
2	5148	3992.529440644199	0
2	5160	3995.895826968907	1
2	5163	3996.070437525532	0
2	5170	3997.231943168087	1
2	5171	3997.99890964091	0
2	5190	4003.121546893396	1
2	5191	4004.021891304014	0
2	5195	4004.770169556586	1
2	5196	4005.055073261542	0
2	5215	4024.934354276964	1
2	5216	4025.605598647717	0
2	5285	4080.279370221182	1
2	5287	4080.357654793842	2
2	5289	4080.700978152862	3
2	5290	4080.834357587981	2
2	5293	4082.019198945991	1
2	5299	4082.07327650832	2
2	5300	4083.002802092104	1
2	5304	4083.036785838816	2
2	5305	4083.88745768693	1
2	5308	4084.799485017161	0
2	5315	4086.005198044039	1
2	5316	4086.790291690815	0
2	5360	4115.001586632603	1
2	5361	4115.467163347204	0
2	5370	4117.002990043009	1
2	5371	4117.258397407395	0
2	5385	4140.188919120128	1
2	5386	4140.787447277644	0
2	5390	4140.866592966522	1
2	5391	4141.72045294894	0
2	5415	4151.898723136472	1
2	5416	4152.346845997297	0
2	5447	4168.604406469737	1
2	5449	4169.048797463563	2
2	5450	4169.445784569494	1
2	5453	4170.414565048422	0
2	5462	4171.505190259701	1
2	5463	4172.106005072742	0
2	5470	4173.063602194732	1
2	5472	4173.752095847638	2
2	5473	4174.233637048825	1
2	5478	4175.383145739566	0
2	5565	4228.464940286146	1
2	5566	4229.189399390594	0
2	5570	4229.974880255931	1
2	5571	4230.040208649282	0
2	5585	4234.635712460209	1
2	5586	4235.449416204686	0
2	5645	4294.267770145357	1
2	5646	4294.621169168549	0
2	5650	4294.758375545721	1
2	5651	4295.508154875646	0
2	5695	4331.557179342106	1
2	5696	4331.646620272539	0
2	5960	4586.872504471427	1
2	5961	4586.938095161133	0
2	5975	4607.638783136687	1
2	5976	4608.708550164815	0
2	6045	4721.497106050731	1
2	6046	4722.336266195699	0
2	6070	4751.654979961326	1
2	6071	4751.69872459299	0
2	6090	4762.988469256244	1
2	6091	4763.673527092014	0
2	6145	4838.344257308553	1
2	6146	4839.493115600832	0
2	6165	4843.936889678813	1
2	6166	4844.666964749322	0
2	6285	4926.718666484389	1
2	6286	4927.305060316004	0
2	6320	4948.730701227634	1
2	6321	4949.36992436886	0
2	6332	4951.424476796884	1
2	6333	4951.626869824586	0
2	6385	4999.292138738122	1
2	6386	4999.376719371151	0
2	6390	4999.741711333931	1
2	6391	5000.527034809083	0
2	6400	5004.312431455519	1
2	6401	5004.788545152156	0
2	6415	5009.819740832598	1
2	6416	5010.48769369713	0
2	6455	5040.307417301737	1
2	6456	5040.491034385138	0
2	6460	5041.084189272275	1
2	6461	5041.505762664457	0
2	6475	5044.948600154026	1
2	6476	5045.704216327228	0
2	6585	5150.152515544282	1
2	6586	5150.517571946261	0
2	6602	5156.683859319789	1
2	6603	5157.082762412133	0
2	6630	5184.90686330733	1
2	6631	5185.709851100604	0
2	6640	5187.017748537595	1
2	6641	5187.665856285422	0
2	6705	5255.499379017758	1
2	6706	5256.435014777103	0
2	6752	5273.794662610248	1
2	6753	5274.746237637659	0
2	6765	5276.956258082477	1
2	6766	5277.882938815244	0
2	6780	5286.654676602243	1
2	6781	5287.062297341525	0
2	6835	5338.779543820032	1
2	6836	5339.240639563913	0
2	6857	5365.19714267939	1
2	6858	5365.651753927264	0
2	6862	5366.325863732385	1
2	6863	5366.651674852483	0
2	6940	5413.994990156531	1
2	6942	5414.368099185568	2
2	6943	5414.670607081001	1
2	6946	5415.750658498557	0
2	6950	5415.802698444118	1
2	6951	5416.717160702349	0
2	7005	5453.879922487094	1
2	7006	5454.061607981338	0
2	7040	5484.95178158672	1
2	7041	5485.013962388411	0
2	7135	5568.570600463159	1
2	7136	5569.159446088672	0
2	7140	5569.328312983831	1
2	7141	5570.345181369018	0
2	7145	5570.757018397679	1
2	7146	5571.384487170242	0
2	7170	5577.027279681841	1
2	7171	5577.912882348966	0
2	7215	5619.277831415506	1
2	7216	5620.145405840258	0
2	7250	5655.439667426886	1
2	7251	5655.927552844399	0
2	7265	5661.994956292791	1
2	7266	5662.793078603031	0
2	7320	5728.052907368373	1
2	7321	5728.203258161441	0
2	7335	5730.960799353326	1
2	7336	5731.901186725613	0
2	7465	5831.312378933336	1
2	7466	5831.396516183521	0
2	7470	5831.632984456585	1
2	7471	5832.277311187554	0
2	7497	5843.868075256774	1
2	7498	5843.919302825885	0
2	7605	5913.680643837503	1
2	7606	5913.959370888599	0
2	7660	5969.354628088651	1
2	7661	5969.923210844666	0
2	7705	6008.641940463458	1
2	7706	6009.447752252	0
2	7760	6051.450707420545	1
2	7761	6052.025226596056	0
2	7825	6118.558814720905	1
2	7826	6118.988865692657	0
2	7845	6138.205841284799	1
2	7846	6138.894561860393	0
2	7885	6176.850504451645	1
2	7886	6177.422112156254	0
2	7895	6178.805089014508	1
2	7896	6179.308379182675	0
2	7910	6198.94104173943	1
2	7911	6199.795143480609	0
2	7920	6201.69230292811	1
2	7921	6201.899351141474	0
2	7930	6204.762668658359	1
2	7931	6205.435551219505	0
2	7945	6207.765005025406	1
2	7946	6208.450892373756	0
2	7995	6238.839098911195	1
2	7996	6239.151732317329	0
2	8030	6265.851288886353	1
2	8031	6266.847302592071	0
2	8037	6267.833758599165	1
2	8038	6267.936072591031	0
2	8045	6269.229669506847	1
2	8046	6270.026498236964	0
2	8095	6292.9621451258	1
2	8096	6293.762594961161	0
2	8125	6313.924391332689	1
2	8126	6314.569215013782	0
2	8130	6314.691172198356	1
2	8132	6315.46723740769	2
2	8133	6315.503302124093	1
2	8136	6316.456518726467	0
2	8155	6325.098904902977	1
2	8156	6325.531136212785	0
2	8160	6325.537097809553	1
2	8161	6326.696639444314	0
2	8230	6403.74264031767	1
2	8231	6404.838898136578	0
2	8270	6436.945786745587	1
2	8271	6437.704982636373	0
2	8340	6487.016110814377	1
2	8341	6487.235354761042	0
2	8355	6496.069204837827	1
2	8356	6496.834576816891	0
2	8380	6520.725134594665	1
2	8381	6521.120709077467	0
2	8415	6545.136994503033	1
2	8416	6545.367851924861	0
2	8450	6611.516758547538	1
2	8451	6612.030302065876	0
2	8490	6689.820053357854	1
2	8491	6689.845355123108	0
2	8522	6714.495425325554	1
2	8523	6714.498117348956	0
2	8527	6714.762562975141	1
2	8529	6714.854810088698	2
2	8530	6715.412718290867	1
2	8533	6716.518401253534	0
2	8540	6718.362252223943	1
2	8541	6718.696603667301	0
2	8610	6785.25454718541	1
2	8611	6785.692935542451	0
2	8620	6787.390127125788	1
2	8621	6787.627720113812	0
2	8735	6911.20246289954	1
2	8736	6912.125138711879	0
2	8765	6929.054814481843	1
2	8768	6929.424882542621	0
2	8775	6930.435361079564	1
2	8776	6931.250618900451	0
2	8865	7000.607785463407	1
2	8866	7001.24202835321	0
2	8870	7001.515519739024	1
2	8871	7002.237054912965	0
2	8895	7006.964966392555	1
2	8896	7007.894415738956	0
2	8980	7059.26849604507	1
2	8981	7060.162604224636	0
2	8990	7069.297590658156	1
2	8991	7069.871673902412	0
2	9000	7071.143655657928	1
2	9001	7072.109438137439	0
2	9020	7079.942873148635	1
2	9021	7080.786776613181	0
2	9032	7083.818927817578	1
2	9033	7083.903740641506	0
2	9037	7084.668617523342	1
2	9038	7084.747267733918	0
2	9055	7088.587972141936	1
2	9056	7089.358202352636	0
2	9070	7094.716366952288	1
2	9071	7095.145035119756	0
2	9075	7095.464895423595	1
2	9076	7096.329555854975	0
2	9080	7096.627107110037	1
2	9081	7097.470550042885	0
2	9095	7101.470460798166	1
2	9099	7102.241346390857	2
2	9100	7102.260824193247	1
2	9103	7103.444070367236	0
2	9135	7113.174332811463	1
2	9137	7113.46054307719	2
2	9138	7113.960967387778	1
2	9142	7114.198435625785	2
2	9143	7114.941805956659	1
2	9146	7116.072193591443	0
2	9155	7122.736671559507	1
2	9156	7122.86276550522	0
2	9175	7133.66448803883	1
2	9176	7133.842135844532	0
2	9180	7134.638756355279	1
2	9181	7134.730835498929	0
2	9240	7162.244271797362	1
2	9241	7162.356824153867	0
2	9415	7282.02080469091	1
2	9416	7282.601602587213	0
2	9545	7386.577995684252	1
2	9546	7386.826323692247	0
2	9555	7391.669749372809	1
2	9556	7392.265945990169	0
2	9590	7409.722560120321	1
2	9592	7409.729777679522	2
2	9593	7409.878237223722	1
2	9596	7410.93672450418	0
2	9600	7411.77384795461	1
2	9601	7411.891491100847	0
2	9605	7412.38063890231	1
2	9606	7413.003476048171	0
2	9610	7413.1000071406	1
2	9611	7414.084902510516	0
2	9620	7417.487752254791	1
2	9621	7418.238319916927	0
2	9630	7420.462247807333	1
2	9631	7420.85801495415	0
2	9715	7502.251924599456	1
2	9718	7502.659353879827	0
2	9730	7508.833201339146	1
2	9731	7509.747577772493	0
2	9740	7512.521829970114	1
2	9743	7513.54756382188	0
2	9800	7558.202235198426	1
2	9801	7559.30989840281	0
2	9915	7680.926259840769	1
2	9916	7681.748815996851	0
2	9970	7747.218644205172	1
2	9971	7747.555539903949	0
2	9990	7757.874016804476	1
2	9992	7757.942020394113	2
2	9993	7758.190132456689	1
2	9997	7759.212757526505	2
2	9998	7759.312368297155	1
2	10001	7760.364341802753	0
2	10007	7761.242992347526	1
2	10008	7761.414890128884	0
2	10015	7762.994158977957	1
2	10016	7763.300727464117	0
2	10020	7763.511231816998	1
2	10021	7764.145515872862	0
2	10100	7820.535730984104	1
2	10101	7821.500103635301	0
2	10160	7855.408490382838	1
2	10161	7855.975946428184	0
2	10175	7858.405947518663	1
2	10176	7859.288851404739	0
2	10205	7893.763365717943	1
2	10206	7893.952860057515	0
2	10225	7911.449025474103	1
2	10226	7911.564724599135	0
2	10257	7923.265190758403	1
2	10258	7923.985883931918	0
2	10455	8103.155025689569	1
2	10456	8104.035176427565	0
2	10555	8187.792406688099	1
2	10557	8188.156971898538	2
2	10558	8188.235974625214	1
2	10561	8189.133868523031	0
2	10565	8189.360217068803	1
2	10566	8190.178485006276	0
2	10575	8193.137660675368	1
2	10576	8193.939402920795	0
2	10655	8247.72997809191	1
2	10658	8248.485897599721	0
2	10662	8248.84187376166	1
2	10663	8249.60943955714	0
2	10750	8333.939657249679	1
2	10751	8334.709218916977	0
2	10805	8375.919023997791	1
2	10806	8376.695429458888	0
2	10875	8418.030106302852	1
2	10876	8418.97157750267	0
2	10980	8528.114636572404	1
2	10983	8529.136977863521	0
2	10997	8532.021319678007	1
2	10998	8532.033787196245	0
2	11005	8533.784583709086	1
2	11006	8533.849032349627	0
2	11055	8560.140033994271	1
2	11056	8560.348132611749	0
2	11117	8600.914867701547	1
2	11120	8601.889628717703	0
2	11145	8607.853929380589	1
2	11148	8608.859279948242	0
2	11215	8661.502168956034	1
2	11217	8662.319199444815	2
2	11218	8662.387520105072	1
2	11223	8663.572905335908	0
2	11230	8664.801728425251	1
2	11231	8665.514240531583	0
2	11235	8665.76898096258	1
2	11236	8666.349649148208	0
2	11250	8671.624056309499	1
2	11251	8672.110514605411	0
2	11360	8758.219239012941	1
2	11361	8759.079079214778	0
2	11430	8829.94538796201	1
2	11431	8830.323852559609	0
2	11445	8833.76751554329	1
2	11446	8834.177784884461	0
2	11457	8851.069743294343	1
2	11458	8851.668988882049	0
2	11490	8873.38422109286	1
2	11491	8874.013734613996	0
2	11545	8916.888808119064	1
2	11546	8917.213452505807	0
2	11595	8979.376730124155	1
2	11596	8979.57584872321	0
2	11605	8981.606501734431	1
2	11606	8982.081587577468	0
2	11615	8983.853407918613	1
2	11616	8984.43147459578	0
2	11670	9046.073216344209	1
2	11671	9046.852719999835	0
2	11695	9057.585933785736	1
2	11696	9057.793384490846	0
2	11740	9083.036628001319	1
2	11741	9083.506032635268	0
2	11745	9083.555973049277	1
2	11748	9084.506975364682	0
2	11795	9125.406368252742	1
2	11796	9125.845008258798	0
2	11885	9194.879928009963	1
2	11886	9195.746405745693	0
2	11895	9202.993534047184	1
2	11896	9203.521564505426	0
2	12030	9288.127587796643	1
2	12031	9288.739111094042	0
2	12035	9289.308345178625	1
2	12036	9289.878180717263	0
2	12052	9293.311933581781	1
2	12053	9293.5877253794	0
2	12062	9295.047992180666	1
2	12063	9295.35642262426	0
2	12085	9302.006695279942	1
2	12086	9302.197414529038	0
2	12095	9305.704156621075	1
2	12096	9305.938021744192	0
2	12110	9309.945104186654	1
2	12111	9310.636082289062	0
2	12125	9325.507741289712	1
2	12126	9325.89794172141	0
2	12140	9330.315127551986	1
2	12141	9330.449033683458	0
2	12195	9382.405346823162	1
2	12196	9383.571594457544	0
2	12275	9446.263872110542	1
2	12276	9446.561559824614	0
2	12307	9462.263822866667	1
2	12308	9462.289931733647	0
2	12320	9468.349598306868	1
2	12321	9468.416307355103	0
2	12335	9490.461046601757	1
2	12336	9491.469462111338	0
2	12405	9537.130406683519	1
2	12406	9537.493716166762	0
2	12485	9595.848130568147	1
2	12486	9596.342929775532	0
2	12505	9611.202056131258	1
2	12506	9612.092934817442	0
2	12535	9639.746706696613	1
2	12536	9640.461482828878	0
2	12585	9668.952703188816	1
2	12586	9669.978931475363	0
2	12620	9693.845845606428	1
2	12621	9694.668213741411	0
2	12722	9788.936864242396	1
2	12723	9788.973936193214	0
2	12730	9790.824915168015	1
2	12731	9791.100286711902	0
2	12745	9796.914927981604	1
2	12746	9797.64383090111	0
2	12775	9809.987425213692	1
2	12776	9810.121559150328	0
2	12780	9810.575833821375	1
2	12781	9810.996858761736	0
2	12800	9845.536597457229	1
2	12801	9845.858484658477	0
2	12845	9873.425920285342	1
2	12846	9873.97577209079	0
2	12860	9878.044868242914	1
2	12861	9878.749983156728	0
2	12880	9897.096118567987	1
2	12881	9898.08186861558	0
2	13030	10007.126503643642	1
2	13033	10007.787276494801	0
2	13125	10046.271727928024	1
2	13126	10047.269740913069	0
2	13240	10168.051529670413	1
2	13241	10168.256697139875	0
2	13245	10168.445706793163	1
2	13248	10169.215402681832	0
2	13252	10169.412862772596	1
2	13253	10170.138737515718	0
2	13257	10170.861455191476	1
2	13258	10171.185561713748	0
2	13285	10179.887317556308	1
2	13287	10179.924883209384	2
2	13288	10180.413687255512	1
2	13292	10180.972790229392	2
2	13293	10181.600325884669	1
2	13296	10182.499597398749	0
2	13385	10278.158981896238	1
2	13388	10278.427460471267	0
2	13395	10279.770623224456	1
2	13397	10279.790653604496	2
2	13398	10280.553980310546	1
2	13401	10281.357421284733	0
2	13495	10396.822848310581	1
2	13496	10397.630148668757	0
2	13555	10444.903532090201	1
2	13556	10444.936674393045	0
2	13560	10445.66590676587	1
2	13561	10446.050408103394	0
2	13575	10455.352790790715	1
2	13576	10455.650683950484	0
2	13595	10470.247168673076	1
2	13598	10470.965946279235	0
2	13630	10529.148345817466	1
2	13631	10529.28166430444	0
2	13720	10609.39403208799	1
2	13721	10609.627020009043	0
2	13735	10612.815755889413	1
2	13736	10613.459641670154	0
2	13757	10621.669517930155	1
2	13758	10621.725871465415	0
2	13767	10622.858848972768	1
2	13768	10623.64671613431	0
2	13785	10626.386354873085	1
2	13786	10627.404511792538	0
2	13820	10649.374027713343	1
2	13821	10650.399004628269	0
2	13880	10700.945271898944	1
2	13882	10701.11606929328	2
2	13883	10701.415631748924	1
2	13886	10702.389262103664	0
2	13950	10747.355727600105	1
2	13951	10747.466249536248	0
2	14012	10794.493327213186	1
2	14014	10794.560956973418	2
2	14015	10794.847087144339	1
2	14018	10795.72020822172	0
2	14022	10795.847610034164	1
2	14024	10795.968340540351	2
2	14025	10796.884273442672	1
2	14029	10796.91171750097	2
2	14030	10797.937941447226	1
2	14034	10798.644444697009	2
2	14035	10799.071084029087	1
2	14039	10799.280728757322	2
2	14040	10800.205810898029	1
2	14043	10801.302437585638	0
2	14055	10804.016594755399	1
2	14058	10804.908166998878	0
2	14080	10822.230138257504	1
2	14081	10822.760448105318	0
2	14160	10897.571914231766	1
2	14161	10898.228097494634	0
2	14195	10934.972107865746	1
2	14196	10935.697594662832	0
2	14235	10957.360971750992	1
2	14236	10957.914266728052	0
2	14245	10962.079077941911	1
2	14246	10962.68026337983	0
2	14254	10963.331049912623	1
2	14255	10963.834128994084	0
2	14270	10977.69129017585	1
2	14271	10978.456922706677	0
2	14305	11018.642568204347	1
2	14306	11018.825065775848	0
2	14350	11039.774858815835	1
2	14351	11040.185420328615	0
2	14420	11109.73068371558	1
2	14421	11110.223042904043	0
2	14450	11163.024254671034	1
2	14451	11163.797548328394	0
2	14480	11197.071729592662	1
2	14483	11197.954186100201	0
2	14520	11228.165708492739	1
2	14523	11228.406142250917	0
2	14590	11265.1714941094	1
2	14591	11265.583630539329	0
2	14595	11266.344213349075	1
2	14596	11266.555741585178	0
2	14610	11269.813487207989	1
2	14613	11270.574528411903	0
2	14620	11272.535246649831	1
2	14621	11272.56075439382	0
2	14630	11274.390109279304	1
2	14631	11275.362151671688	0
2	14655	11302.454970084494	1
2	14656	11303.364269460472	0
2	14660	11303.672970915836	1
2	14661	11304.257394948615	0
2	14665	11304.377935405441	1
2	14666	11305.21925920566	0
2	14695	11335.31927031267	1
2	14696	11335.961625088868	0
2	14740	11361.353693787842	1
2	14742	11361.654542178835	2
2	14743	11362.264634576467	1
2	14747	11362.731300901975	2
2	14748	11363.424944989317	1
2	14751	11364.450988579661	0
2	14775	11396.202278030746	1
2	14776	11397.091326521544	0
2	14780	11397.151798430475	1
2	14781	11398.105846123139	0
2	14785	11398.508637839883	1
2	14787	11398.742544120159	2
2	14788	11399.103685313298	1
2	14791	11400.039684987462	0
2	14810	11410.17548016477	1
2	14811	11410.726450564784	0
2	14820	11412.887650964631	1
2	14821	11413.768657076751	0
2	14880	11482.597509957774	1
2	14881	11483.397898401789	0
2	14900	11508.208426804903	1
2	14901	11508.318314772942	0
2	14920	11518.046154969062	1
2	14921	11518.684260920385	0
2	14955	11544.847199519883	1
2	14956	11545.860676928189	0
2	14980	11568.065451562487	1
2	14981	11568.570124966819	0
2	15060	11644.144830423686	1
2	15061	11644.679844655765	0
2	15160	11710.97292434448	1
2	15161	11711.991288512523	0
2	15250	11828.363582873777	1
2	15251	11828.861027635585	0
2	15255	11829.143128113423	1
2	15256	11830.033828248407	0
2	15270	11841.093587672572	1
2	15271	11841.638913784016	0
2	15295	11848.337585011555	1
2	15296	11848.456974981377	0
2	15365	11907.8778675488	1
2	15366	11908.177357422338	0
2	15400	11926.168580017977	1
2	15401	11926.83736105254	0
2	15465	11995.386869910093	1
2	15466	11995.853323483881	0
2	15490	12006.825184702544	1
2	15491	12007.407239267516	0
2	15550	12101.405682350082	1
2	15551	12101.970036852265	0
2	15555	12102.581733235761	1
2	15556	12103.106765450536	0
2	15565	12107.543067903527	1
2	15566	12107.832188609056	0
2	15630	12171.70309819643	1
2	15631	12172.316735134964	0
2	15670	12191.971951117682	1
2	15671	12192.264806526275	0
2	15700	12222.013859582301	1
2	15701	12222.645077006159	0
2	15710	12224.222241867653	1
2	15711	12224.460601063108	0
2	15715	12224.634442285845	1
2	15717	12225.352427510406	2
2	15718	12225.366786429601	1
2	15721	12226.227563790454	0
2	15755	12257.666381399461	1
2	15756	12258.493871312244	0
2	15760	12258.596733484663	1
2	15761	12259.532842028355	0
2	15805	12283.931146788368	1
2	15806	12284.757738849639	0
2	15815	12288.010596722226	1
2	15816	12288.308733153984	0
2	15820	12288.890616859589	1
2	15821	12289.349429779489	0
2	15840	12308.851459696008	1
2	15841	12309.923139963391	0
2	15845	12310.763773070118	1
2	15846	12311.06493667066	0
2	15865	12333.971512505088	1
2	15866	12334.571391970082	0
2	15870	12334.596550985644	1
2	15873	12335.762052437174	0
2	15880	12337.718018121049	1
2	15881	12337.8312658048	0
2	15930	12358.842850126507	1
2	15931	12358.959182724273	0
2	15965	12378.125803715079	1
2	15966	12378.776533837469	0
2	15980	12382.18191843963	1
2	15981	12382.488726019243	0
2	16015	12389.384158235974	1
2	16016	12390.199464427688	0
2	16020	12390.235559344711	1
2	16022	12390.822666461767	2
2	16023	12391.292671611168	1
2	16026	12392.251618758597	0
2	16042	12421.531070623697	1
2	16043	12421.69340325813	0
2	16070	12432.777993708081	1
2	16071	12433.248266678063	0
2	16100	12459.120456937018	1
2	16101	12459.184162696664	0
2	16105	12459.226473625511	1
2	16107	12459.26101773981	2
2	16108	12460.14259094729	1
2	16112	12460.306891715615	2
2	16113	12461.339209163589	1
2	16116	12462.537958065448	0
2	16130	12477.983795731928	1
2	16131	12478.262304895655	0
2	16195	12556.695357970432	1
2	16197	12556.842220663302	2
2	16198	12557.192380841135	1
2	16201	12558.167543091963	0
2	16230	12576.69127152394	1
2	16231	12576.996860744461	0
2	16260	12595.272312597174	1
2	16261	12595.523407332144	0
2	16290	12617.151933855566	1
2	16291	12617.984842591336	0
2	16330	12648.468392161382	1
2	16331	12649.064415169361	0
2	16410	12735.647729934004	1
2	16411	12735.858358464498	0
2	16430	12756.615158077803	1
2	16431	12756.639051548765	0
2	16525	12879.173612713442	1
2	16526	12879.599406334616	0
2	16550	12896.079334310129	1
2	16552	12896.328447838838	2
2	16553	12896.467361200415	1
2	16556	12897.517722684052	0
2	16560	12897.716234925963	1
2	16562	12898.146705796666	2
2	16563	12898.344942683168	1
2	16566	12899.459271107987	0
2	16570	12899.557204580256	1
2	16571	12900.430060484913	0
2	16575	12901.12456505671	1
2	16576	12901.23097288739	0
2	16605	12935.218669122987	1
2	16606	12936.281620289789	0
2	16625	12951.61830709906	1
2	16626	12951.776914304567	0
2	16630	12952.728075684472	1
2	16631	12952.740884855927	0
2	16745	13040.485378187795	1
2	16746	13041.141300427179	0
2	16750	13041.773098179192	1
2	16751	13042.150849911674	0
2	16780	13069.249285159683	1
2	16781	13070.005115796693	0
2	16825	13096.925436354327	1
2	16826	13097.533647120463	0
2	16835	13099.228822223303	1
2	16836	13099.496161991356	0
2	16845	13102.373918037883	1
2	16846	13102.976964824747	0
2	16880	13114.498273105586	1
2	16881	13115.450782921072	0
2	16945	13169.636465534097	1
2	16947	13169.887061219684	2
2	16948	13170.348160902383	1
2	16955	13171.349615019718	0
2	16962	13173.021327869837	1
2	16963	13173.393777278783	0
2	16975	13175.39139841945	1
2	16977	13175.933767361188	2
2	16978	13176.132541364217	1
2	16981	13177.104132495513	0
2	17000	13190.111971587276	1
2	17001	13190.527683884214	0
2	17040	13206.357555666371	1
2	17041	13206.918876774261	0
2	17070	13243.776915396117	1
2	17071	13243.933676022289	0
2	17075	13244.106575125661	1
2	17076	13245.114537215883	0
2	17115	13287.393334087341	1
2	17118	13288.040187762464	0
2	17122	13288.227380342871	1
2	17123	13289.18069943457	0
2	17127	13289.372873980586	1
2	17128	13290.115018382455	0
2	17132	13290.204734485601	1
2	17133	13291.263175146627	0
2	17145	13293.737994133533	1
2	17146	13294.252538102299	0
2	17155	13296.027564745028	1
2	17157	13296.285497013943	2
2	17158	13296.906894886777	1
2	17161	13298.040088255335	0
2	17180	13308.473723372619	1
2	17181	13309.488780337435	0
2	17202	13334.720688521157	1
2	17203	13334.797956828835	0
2	17210	13336.005348769167	1
2	17213	13336.703868345978	0
2	17227	13339.241304388178	1
2	17228	13339.987691358166	0
2	17237	13341.173028740878	1
2	17238	13341.729491706626	0
2	17260	13352.854479971504	1
2	17261	13353.888070945774	0
2	17330	13392.088579932758	1
2	17332	13392.212749597116	2
2	17333	13392.490417297032	1
2	17337	13392.648922299505	2
2	17338	13393.626204840314	1
2	17341	13394.621643189561	0
2	17345	13395.473774038635	1
2	17346	13395.661047978174	0
2	17380	13423.855048300515	1
2	17383	13424.772973256166	0
2	17420	13457.068819090462	1
2	17421	13457.89902080184	0
2	17425	13458.367056399286	1
2	17426	13458.728777988238	0
2	17445	13465.85850173339	1
2	17446	13466.226784146323	0
2	17530	13532.590368495351	1
2	17531	13532.607082750334	0
2	17565	13559.548931981135	1
2	17569	13559.860627506831	2
2	17570	13559.907526948738	1
2	17573	13560.836068229999	0
2	17675	13645.762323773975	1
2	17676	13646.263514821998	0
2	17715	13694.955162180513	1
2	17716	13694.96896367585	0
2	17800	13780.699108706803	1
2	17801	13781.397163553542	0
2	17815	13799.459354297679	1
2	17816	13799.749330332822	0
2	17820	13799.792153425003	1
2	17821	13800.765879147167	0
2	17865	13849.172371017916	1
2	17866	13850.324129009695	0
2	17925	13896.435229447452	1
2	17926	13897.257043947056	0
2	17975	13954.658836903871	1
2	17976	13954.886792228842	0
2	17985	13956.480339934051	1
2	17986	13956.752753782929	0
2	18007	13961.172456831379	1
2	18008	13961.87119984745	0
2	18015	13963.671000044989	1
2	18016	13963.868141931453	0
2	18030	13976.778190176803	1
2	18031	13977.584354867818	0
2	18035	13977.634343889593	1
2	18037	13978.654257407644	2
2	18038	13978.668289878065	1
2	18041	13979.835775086316	0
2	18055	13988.245071188549	1
2	18056	13988.870130087058	0
2	18065	14010.644149035585	1
2	18066	14011.659231761174	0
2	18085	14024.876775504606	1
2	18086	14025.230755614795	0
2	18100	14033.895836602137	1
2	18101	14034.701096728235	0
2	18160	14077.932386032013	1
2	18163	14078.448927332018	0
2	18227	14167.228000906756	1
2	18228	14167.453019160172	0
2	18232	14167.896117056941	1
2	18233	14168.337917667022	0
2	18295	14228.30242628043	1
2	18296	14228.581437990065	0
2	18310	14249.139768428561	1
2	18311	14249.218323492581	0
2	18325	14253.290790855317	1
2	18326	14253.390857262965	0
2	18340	14259.398241457223	1
2	18341	14259.845589208876	0
2	18440	14314.009111380594	1
2	18441	14314.712030590403	0
2	18455	14331.932749904386	1
2	18456	14332.287299060412	0
2	18465	14340.686535516269	1
2	18466	14341.478655879875	0
2	18480	14344.955282824028	1
2	18481	14345.836903636956	0
2	18485	14345.930973653093	1
2	18486	14346.641724099179	0
2	18495	14348.202197422776	1
2	18496	14348.791968083156	0
2	18500	14349.598476548446	1
2	18501	14349.784722015688	0
2	18555	14414.988274904034	1
2	18556	14415.810650484567	0
2	18595	14433.824445491734	1
2	18596	14434.057634945351	0
2	18600	14434.297174677979	1
2	18602	14434.88941163315	2
2	18603	14435.212912405419	1
2	18606	14436.160531507849	0
2	18615	14438.004972238075	1
2	18616	14438.229773568499	0
2	18645	14451.676174193125	1
2	18646	14452.648667185511	0
2	18680	14481.955282018396	1
2	18681	14481.996326791965	0
2	18727	14519.572692598556	1
2	18728	14519.59463633625	0
2	18845	14615.006667824273	1
2	18846	14615.716606297283	0
2	18865	14642.309199526902	1
2	18866	14642.496765642268	0
2	18935	14700.350438460216	1
2	18936	14700.705081983953	0
2	18945	14705.220724622831	1
2	18946	14705.527241301018	0
2	18950	14706.208276512291	1
2	18951	14706.409929959889	0
2	18990	14729.669355486042	1
2	18991	14730.021191522725	0
2	18995	14730.191770797459	1
2	18997	14730.868906987212	2
2	18998	14731.173367741391	1
2	19002	14732.061000456851	2
2	19003	14732.206960677415	1
2	19007	14732.631821379145	2
2	19008	14733.070285224508	1
2	19011	14733.963587012294	0
2	19085	14804.785146558755	1
2	19086	14804.989106874288	0
2	19110	14815.377342707698	1
2	19113	14816.117044743036	0
2	19120	14817.353888821772	1
2	19121	14818.404486060121	0
2	19155	14840.221895552537	1
2	19156	14841.082025829399	0
2	19170	14844.752914212151	1
2	19171	14845.08568330471	0
2	19180	14848.47239957513	1
2	19182	14849.194613384355	2
2	19183	14849.545054764826	1
2	19186	14850.47039665474	0
2	19300	14947.034883211698	1
2	19301	14947.136247229341	0
2	19335	14979.166422192688	1
2	19336	14980.200442652589	0
2	19345	14981.513845799412	1
2	19347	14981.934674790173	2
2	19348	14982.365660925714	1
2	19351	14983.303857415208	0
2	19380	15006.974479688203	1
2	19381	15006.97508439752	0
2	19435	15048.851813717389	1
2	19436	15049.628820526703	0
2	19530	15126.695046577711	1
2	19531	15126.789779785264	0
2	19640	15247.922973237901	1
2	19641	15247.981386706656	0
2	19645	15248.163732223225	1
2	19646	15248.817228477312	0
2	19692	15276.481650098625	1
2	19693	15276.733919838811	0
2	19710	15288.332379725582	1
2	19711	15289.166451969233	0
2	19805	15368.230046757264	1
2	19806	15368.533171494057	0
2	19930	15530.734542396296	1
2	19931	15531.804736972193	0
2	20045	15669.236579546888	1
2	20046	15669.538323485437	0
2	20050	15670.501776506693	1
2	20051	15670.696955807652	0
2	20065	15672.964334300444	1
2	20066	15673.77101759685	0
2	20075	15681.387109574149	1
2	20076	15682.043913896375	0
2	20215	15854.730752490015	1
2	20216	15855.560015307802	0
2	20222	15855.619286245901	1
2	20226	15856.073650326993	2
2	20227	15856.387162648111	1
2	20230	15857.48061102458	0
2	20310	15909.422349164931	1
2	20311	15909.855007484576	0
2	20365	15989.8090569159	1
2	20366	15990.302615532343	0
2	20375	15997.865687840017	1
2	20376	15998.793797531209	0
2	20400	16010.438966291113	1
2	20401	16010.746423466636	0
2	20522	16107.881011768472	1
2	20523	16107.994996015029	0
2	20530	16109.167456353993	1
2	20533	16110.137185048824	0
2	20560	16138.28797293298	1
2	20561	16138.299225277799	0
2	20640	16243.882366929842	1
2	20641	16244.046638195361	0
2	20680	16273.223899250633	1
2	20681	16273.474315379539	0
2	20700	16288.176364495517	1
2	20701	16288.845213635488	0
2	20760	16347.827414654394	1
2	20761	16347.954120909167	0
2	20765	16349.029363705425	1
2	20766	16349.046146358666	0
2	20887	16441.205495824784	1
2	20888	16441.409236808224	0
2	20892	16441.62699496908	1
2	20893	16442.339610246579	0
2	20900	16443.759492918783	1
2	20901	16444.340323932852	0
2	20910	16450.328073804117	1
2	20911	16450.559679412748	0
2	21020	16560.825041250074	1
2	21021	16560.830596360219	0
2	21125	16624.026005838958	1
2	21126	16624.845243120751	0
2	21180	16664.199819087494	1
2	21181	16665.03648976099	0
2	21210	16681.229155873362	1
2	21211	16682.038092197102	0
2	21215	16682.108086228423	1
2	21216	16683.196625608948	0
2	21310	16793.069527312829	1
2	21312	16793.338027364066	2
2	21313	16793.43040580479	1
2	21317	16793.492262049323	2
2	21318	16794.359327549762	1
2	21323	16795.295318217943	0
2	21370	16821.703951403663	1
2	21371	16822.197364305433	0
2	21395	16829.937598428758	1
2	21396	16830.031594480614	0
2	21490	16932.866397708646	1
2	21491	16933.325051116939	0
2	21510	16942.487745219294	1
2	21511	16942.98294975575	0
2	21520	16946.006335167659	1
2	21521	16946.080977590193	0
2	21615	17049.395506782899	1
2	21616	17049.867438965898	0
2	21620	17050.625685818625	1
2	21621	17050.720019076534	0
2	21645	17075.259136530398	1
2	21646	17076.117594351994	0
2	21660	17085.414149103646	1
2	21661	17085.712180718582	0
2	21680	17102.745673116215	1
2	21681	17103.227993593768	0
2	21695	17109.769796444538	1
2	21696	17109.942003099881	0
2	21700	17110.05268678638	1
2	21701	17111.007738076225	0
2	21765	17200.801433694551	1
2	21766	17201.690389753528	0
2	21790	17210.951825739376	1
2	21791	17211.568798781248	0
2	21795	17211.821237372452	1
2	21796	17212.509123904599	0
2	21855	17265.03662023642	1
2	21856	17265.832510915308	0
2	21900	17295.309994089518	1
2	21901	17295.723312748214	0
2	21970	17353.181357854056	1
2	21971	17353.834589197862	0
2	22025	17391.095517456592	1
2	22026	17391.985671626668	0
2	22060	17406.049538692967	1
2	22061	17406.768160804925	0
2	22070	17408.851362470504	1
2	22071	17409.229156329296	0
2	22090	17416.329165939802	1
2	22091	17416.352690898579	0
2	22165	17473.215775997533	1
2	22166	17474.222194288192	0
2	22235	17536.810867778107	1
2	22240	17537.276016033069	0
2	22295	17566.322115051065	1
2	22296	17566.825856122076	0
2	22320	17589.400861955344	1
2	22321	17589.562930308124	0
2	22410	17679.594232517271	1
2	22411	17679.899914533911	0
2	22415	17680.490161528406	1
2	22416	17680.849327860573	0
2	22425	17681.865339654845	1
2	22427	17682.485049178831	2
2	22428	17682.57124266457	1
2	22432	17682.618953532621	2
2	22433	17683.717356829068	1
2	22436	17684.517729470322	0
2	22465	17710.94185060155	1
2	22466	17711.030713382798	0
2	22485	17716.683662873418	1
2	22486	17717.319189197502	0
2	22525	17765.450746570706	1
2	22526	17765.83927550435	0
2	22535	17767.494605221381	1
2	22538	17768.529911352372	0
2	22575	17786.783444111746	1
2	22576	17786.958972854713	0
2	22665	17847.089279115998	1
2	22666	17847.594534055264	0
2	22710	17894.732216771589	1
2	22711	17894.83905442903	0
2	22715	17894.943958644454	1
2	22716	17895.947296174301	0
2	22770	17936.273270613937	1
2	22771	17937.203080721008	0
2	22775	17937.927064630849	1
2	22776	17938.18495942838	0
2	22790	17941.702436229327	1
2	22791	17942.41057492128	0
2	22810	17957.688194163873	1
2	22811	17958.026058499071	0
2	22815	17958.491786672192	1
2	22816	17958.868304427921	0
2	22835	17969.929514384067	1
2	22836	17970.776779613106	0
2	22855	17975.0392794619	1
2	22856	17975.34718972297	0
2	22900	18020.778110208472	1
2	22901	18021.125718646627	0
2	22950	18048.336290713976	1
2	22951	18049.070627986225	0
2	22955	18049.479078216391	1
2	22956	18050.266729311044	0
2	22965	18053.129781370527	1
2	22968	18053.976878264846	0
2	22980	18057.431980637492	1
2	22981	18058.129773517065	0
2	23025	18112.994967393683	1
2	23026	18113.94064060503	0
2	23040	18127.064927616693	1
2	23041	18127.334005512704	0
2	23140	18223.314848903316	1
2	23141	18224.257352874053	0
2	23152	18239.19131304961	1
2	23153	18239.351040981826	0
2	23162	18240.709225838484	1
2	23163	18241.068560230289	0
2	23172	18242.340015954732	1
2	23173	18243.371334605593	0
2	23195	18261.071326912338	1
2	23197	18261.457424605002	2
2	23198	18261.87480263838	1
2	23201	18262.881240044696	0
2	23250	18298.364012102945	1
2	23251	18298.546865955284	0
2	23275	18323.693947408707	1
2	23276	18324.081216705008	0
2	23280	18324.802110280959	1
2	23281	18325.010250495723	0
2	23285	18325.149552812976	1
2	23286	18325.934046104061	0
2	23295	18331.100818580838	1
2	23296	18331.172535432622	0
2	23335	18348.054821498261	1
2	23336	18348.456302783535	0
2	23370	18374.334446794155	1
2	23371	18374.761100142052	0
2	23400	18381.901397456695	1
2	23401	18382.055409773305	0
2	23485	18432.636491736509	1
2	23486	18432.89668693825	0
2	23530	18475.018905467739	1
2	23532	18475.093872516594	2
2	23533	18475.649994300891	1
2	23536	18476.687199193918	0
2	23545	18478.100421303641	1
2	23547	18478.499609735598	2
2	23548	18478.6274317038	1
2	23551	18479.626160801178	0
2	23560	18480.449988935421	1
2	23561	18481.492817469197	0
2	23640	18525.022667145491	1
2	23641	18526.009570703013	0
2	23645	18526.62764232867	1
2	23646	18526.964847977655	0
2	23770	18612.244333978027	1
2	23771	18612.855102770369	0
2	23950	18782.264620837292	1
2	23951	18782.736272245984	0
2	23960	18783.937016311935	1
2	23961	18784.971238797217	0
2	23980	18794.345010984316	1
2	23981	18794.582796792037	0
2	24000	18803.716937846709	1
2	24001	18804.552404466262	0
2	24005	18805.338379066908	1
2	24006	18805.476137646278	0
2	24055	18872.000205426118	1
2	24056	18872.709435229835	0
2	24100	18888.899939792048	1
2	24101	18889.282558075092	0
2	24110	18891.990144493898	1
2	24111	18892.535656225049	0
2	24115	18892.669199635685	1
2	24116	18893.380935401396	0
2	24145	18908.005268218464	1
2	24146	18908.579002474835	0
2	24150	18909.370459000783	1
2	24151	18909.425508613074	0
2	24225	18990.036265606074	1
2	24226	18990.241237819028	0
2	24235	18991.688370371619	1
2	24236	18992.52330440499	0
2	24270	19017.940976553466	1
2	24271	19018.201377841951	0
2	24280	19028.259171356242	1
2	24281	19028.523870948792	0
2	24310	19056.265183416189	1
2	24311	19056.895058723624	0
2	24380	19100.596004115809	1
2	24381	19100.628185680922	0
2	24590	19297.528037749782	1
2	24591	19298.569579005197	0
2	24700	19422.269083535986	1
2	24701	19422.752580076582	0
2	24730	19437.73596372897	1
2	24731	19438.252174433256	0
2	24760	19451.369964630662	1
2	24761	19452.053995448535	0
2	24765	19452.093566551044	1
2	24767	19452.852593164772	2
2	24768	19453.151837493663	1
2	24771	19453.973100853336	0
2	24855	19523.927069092287	1
2	24856	19523.941593620142	0
2	24865	19528.258610005549	1
2	24866	19528.289623900992	0
2	24885	19536.827896882348	1
2	24887	19537.202526500225	2
2	24888	19537.490630611295	1
2	24891	19538.618907903118	0
2	24900	19541.244250438007	1
2	24902	19541.551532119007	2
2	24903	19541.918844887469	1
2	24906	19542.972764663719	0
2	24910	19543.047051491417	1
2	24911	19543.83925843094	0
2	24920	19546.996314676082	1
2	24921	19547.62890572223	0
2	25050	19651.604457923466	1
2	25051	19651.710003610909	0
2	25070	19660.755677968802	1
2	25072	19660.966106789671	2
2	25073	19661.231644866569	1
2	25078	19662.306753743952	0
2	25140	19721.176969372091	1
2	25141	19721.383558516148	0
2	25210	19810.565139850487	1
2	25211	19811.183983975295	0
2	25265	19880.35238255513	1
2	25266	19880.366164975524	0
2	25275	19882.019091330628	1
2	25276	19882.590186140546	0
2	25285	19884.460811764718	1
2	25286	19884.744062902492	0
2	25290	19885.56405647699	1
2	25291	19885.847117844124	0
2	25310	19889.902700611493	1
2	25311	19890.04183261769	0
2	25335	19900.103137965849	1
2	25336	19900.2630133279	0
2	25340	19900.482177851309	1
2	25341	19901.439165299698	0
2	25350	19902.648123654016	1
2	25352	19903.130178170404	2
2	25353	19903.527945475557	1
2	25357	19903.7322279186	2
2	25358	19904.693153347072	1
2	25361	19905.618333946817	0
2	25535	20094.504561923388	1
2	25536	20095.363771537894	0
2	25545	20105.806397915772	1
2	25546	20106.094504611842	0
2	25570	20126.026675584926	1
2	25571	20126.844588321588	0
2	25605	20169.134577691514	1
2	25606	20169.388809858251	0
2	25670	20241.241459369361	1
2	25671	20241.260300823119	0
2	25697	20249.071372853625	1
2	25698	20249.861154338465	0
2	25710	20258.604536106584	1
2	25711	20258.842817628674	0
2	25745	20290.587274696337	1
2	25748	20291.484071921258	0
2	25805	20356.84758022415	1
2	25806	20357.025314781107	0
2	25810	20357.693476567405	1
2	25811	20358.206545192413	0
2	25815	20358.418123252927	1
2	25816	20359.320151346307	0
2	25840	20375.437962348141	1
2	25841	20376.500717338314	0
2	25865	20389.494321471443	1
2	25866	20389.710576603874	0
2	25885	20396.037921834015	1
2	25886	20396.272631268755	0
2	25915	20413.893512623409	1
2	25916	20415.085012557045	0
2	25940	20437.621774796618	1
2	25941	20438.403507397697	0
2	25980	20463.190050451516	1
2	25981	20463.658662043262	0
2	25985	20464.508122868178	1
2	25986	20464.833466198232	0
2	26030	20503.610337993292	1
2	26031	20504.051642472365	0
2	26150	20603.996333246015	1
2	26151	20604.308054128788	0
2	26165	20606.623497951873	1
2	26167	20607.040829611693	2
2	26168	20607.252970047048	1
2	26171	20608.301314966972	0
2	26185	20612.250179773478	1
2	26187	20613.016022164503	2
2	26188	20613.232805938564	1
2	26191	20614.235574798297	0
2	26195	20614.589775565825	1
2	26197	20614.8664173634	2
2	26198	20615.125835938483	1
2	26201	20616.277046641159	0
2	26205	20616.600355850649	1
2	26206	20617.079319504659	0
2	26210	20617.959098558695	1
2	26211	20618.111752598091	0
2	26330	20752.723896960515	1
2	26331	20753.282455068046	0
2	26335	20753.286847619313	1
2	26336	20754.268883073201	0
2	26340	20754.888656189073	1
2	26341	20755.408040597068	0
2	26350	20758.930067556686	1
2	26351	20759.398907104466	0
2	26365	20770.060946821397	1
2	26366	20770.497138403386	0
2	26390	20800.660310316781	1
2	26393	20801.527225365311	0
2	26415	20807.593878197093	1
2	26416	20808.331723136331	0
2	26475	20875.546485157368	1
2	26476	20875.868851344751	0
2	26500	20921.884745119109	1
2	26501	20921.997806028894	0
2	26520	20928.174971545877	1
2	26521	20928.737613523206	0
2	26545	20941.234925001295	1
2	26546	20941.360714804916	0
2	26575	20963.743819066334	1
2	26576	20964.182144573212	0
2	26600	20994.797543022837	1
2	26601	20995.206201922608	0
2	26672	21077.394638926903	1
2	26673	21077.686627117018	0
2	26740	21128.466318198987	1
2	26742	21128.799403729225	2
2	26743	21128.898154995835	1
2	26746	21129.802451381425	0
2	26755	21130.971210899605	1
2	26758	21131.954354116472	0
2	26810	21195.559249333044	1
2	26811	21196.004527379124	0
2	26835	21216.818489479926	1
2	26836	21216.822233748743	0
2	26860	21227.439995925226	1
2	26861	21227.50941772931	0
2	26875	21238.012121615613	1
2	26876	21238.718762909866	0
2	26980	21298.409283194121	1
2	26982	21298.784506254758	2
2	26983	21299.415516472481	1
2	26986	21300.286156058371	0
2	26990	21300.655250355933	1
2	26992	21301.268810401679	2
2	26993	21301.355830816612	1
2	26997	21301.962175300431	2
2	26998	21302.450579791762	1
2	27004	21303.068919574728	2
2	27005	21303.533641527839	1
2	27008	21304.516538218375	0
2	27070	21363.109248453536	1
2	27071	21363.650798451714	0
2	27095	21372.375990005178	1
2	27096	21372.753607887644	0
2	27175	21463.58269424151	1
2	27177	21463.742798912472	2
2	27178	21463.959202378311	1
2	27183	21464.798213339385	0
2	27187	21464.965678207143	1
2	27188	21465.637339020495	0
2	27192	21465.81126402955	1
2	27193	21466.780728260216	0
2	27305	21570.306302149763	1
2	27306	21570.378483206627	0
2	27325	21585.721255829388	1
2	27326	21586.589550828272	0
2	27335	21589.026965680435	1
2	27336	21589.595804004224	0
2	27340	21590.37317911667	1
2	27341	21590.405790787974	0
2	27410	21632.6128300268	1
2	27411	21633.357183062177	0
2	27470	21657.160159716689	1
2	27471	21657.487933698326	0
2	27485	21663.393514711652	1
2	27486	21663.941115832782	0
2	27550	21706.140929118187	1
2	27551	21706.720223799793	0
2	27555	21707.191697820706	1
2	27556	21707.611396285219	0
2	27560	21707.67226940875	1
2	27562	21708.192041719622	2
2	27563	21708.723452212082	1
2	27566	21709.849183414483	0
2	27610	21731.746151150775	1
2	27611	21732.225690873983	0
2	27625	21736.090021621498	1
2	27626	21736.750826362426	0
2	27640	21769.670677194664	1
2	27641	21769.759143499258	0
2	27645	21770.094801302441	1
2	27646	21770.908711895506	0
2	27675	21801.33862700936	1
2	27677	21802.139811113691	2
2	27678	21802.263628574408	1
2	27681	21803.133027982938	0
2	27695	21817.25843286628	1
2	27696	21817.743450917697	0
2	27740	21854.939272190806	1
2	27741	21856.006401554999	0
2	27827	21967.084786676836	1
2	27828	21967.554428449289	0
2	27855	21984.822455338381	1
2	27856	21984.855966731623	0
2	27900	22047.212963559586	1
2	27901	22047.713834254369	0
2	27952	22093.68956157103	1
2	27953	22094.574198493769	0
2	27962	22095.65477583026	1
2	27963	22096.541582872381	0
2	28120	22209.770274675273	1
2	28121	22209.856170718075	0
2	28130	22210.923359653188	1
2	28133	22211.721761021466	0
2	28140	22213.253926592696	1
2	28141	22213.521935274248	0
2	28150	22214.85106387454	1
2	28151	22215.55683671821	0
2	28155	22215.963975952304	1
2	28156	22216.366291645803	0
2	28165	22218.883988777604	1
2	28167	22219.090783669796	2
2	28168	22219.765684566538	1
2	28173	22220.683322760261	0
2	28330	22383.743501882524	1
2	28331	22384.038540949869	0
2	28335	22384.290650315846	1
2	28336	22384.963310651678	0
2	28455	22509.387760396498	1
2	28456	22509.491349101515	0
2	28460	22509.63507505829	1
2	28461	22510.663267266454	0
2	28475	22543.728113205824	1
2	28476	22544.022393759828	0
2	28492	22547.636673202978	1
2	28493	22547.644770060846	0
2	28530	22575.249206337076	1
2	28531	22575.799296475522	0
2	28595	22629.13752251196	1
2	28596	22629.963467286742	0
2	28670	22673.637228343391	1
2	28671	22673.696625629929	0
2	28680	22680.967276170456	1
2	28681	22681.638697406361	0
2	28755	22734.833313065627	1
2	28756	22735.559503919637	0
2	28845	22822.714450290648	1
2	28846	22823.240422065474	0
2	28877	22848.963875707067	1
2	28878	22849.160643560418	0
2	28985	22919.354069100015	1
2	28986	22919.824758642061	0
2	29070	23000.577316583369	1
2	29071	23000.654497194471	0
2	29120	23027.160826723674	1
2	29121	23027.459586984113	0
2	29125	23027.803914724512	1
2	29127	23028.096261561405	2
2	29130	23028.475149603848	1
2	29133	23029.49617087134	0
2	29235	23143.597312917607	1
2	29236	23144.01297919597	0
2	29240	23144.827695945622	1
2	29241	23145.167929748217	0
2	29280	23168.041259580131	1
2	29281	23168.767406498487	0
2	29285	23169.006447159829	1
2	29286	23169.708935910123	0
2	29365	23242.507304407514	1
2	29366	23243.304662818569	0
2	29400	23276.288965500408	1
2	29403	23277.098126391915	0
2	29407	23277.798591184957	1
2	29408	23278.098575724324	0
2	29435	23291.279007967033	1
2	29436	23291.915398754455	0
2	29450	23301.114155314849	1
2	29452	23301.615822851326	2
2	29453	23302.168476156358	1
2	29456	23303.176974479322	0
2	29540	23361.687736871246	1
2	29541	23362.042716511394	0
2	29600	23408.885196480493	1
2	29601	23409.405402451015	0
2	29615	23425.095557861298	1
2	29616	23425.404569459404	0
2	29665	23471.951786109938	1
2	29666	23472.403344922454	0
2	29757	23522.875055693387	1
2	29758	23523.603716527904	0
2	29775	23535.166607177362	1
2	29776	23535.911829733453	0
2	29805	23556.060958168184	1
2	29806	23557.143392560488	0
2	29850	23625.447089602911	1
2	29851	23626.224009212791	0
2	29855	23626.28211736248	1
2	29856	23627.390284966989	0
2	29900	23669.351218364777	1
2	29901	23669.393589726367	0
2	29905	23670.326664631277	1
2	29906	23670.439026638118	0
2	29910	23670.91529603722	1
2	29911	23671.344201028624	0
2	29925	23674.126926418845	1
2	29926	23674.514249012715	0
2	29955	23686.294028590978	1
2	29956	23686.566075153327	0
2	29970	23690.098928360507	1
2	29971	23690.955914419152	0
2	30005	23713.886711985224	1
2	30006	23714.117848234556	0
2	30025	23717.455825397551	1
2	30026	23718.467624267075	0
2	30040	23725.018106018451	1
2	30041	23725.691803518348	0
2	30050	23727.107313168637	1
2	30051	23727.684298237638	0
2	30055	23728.80302853861	1
2	30056	23728.820120272824	0
2	30070	23733.029963410829	1
2	30071	23733.773377170555	0
2	30077	23734.076670459835	1
2	30078	23734.940035364173	0
2	30082	23735.882518371571	1
2	30083	23736.08365025255	0
2	30170	23787.197071939475	1
2	30171	23787.307254529339	0
2	30197	23822.008359355671	1
2	30198	23822.373701112075	0
2	30205	23824.47508826252	1
2	30206	23824.521141334633	0
2	30210	23825.331021226274	1
2	30211	23825.715592105417	0
2	30215	23826.071940846365	1
2	30216	23826.830553290165	0
2	30220	23827.081987539575	1
2	30221	23827.916770493063	0
2	30325	23915.845647203082	1
2	30326	23915.92678972238	0
2	30340	23930.996224616812	1
2	30341	23931.631702372617	0
2	30375	23945.985577147347	1
2	30376	23946.002263913929	0
2	30395	23970.020539298592	1
2	30396	23970.67472482831	0
2	30525	24094.786968969287	1
2	30526	24095.856956749238	0
2	30535	24097.436060103634	1
2	30536	24098.082126111274	0
2	30700	24223.790565186312	1
2	30701	24224.13504731911	0
2	30705	24224.13760169132	1
2	30708	24225.256981232993	0
2	30715	24226.583227466266	1
2	30716	24227.080793386835	0
2	30725	24231.951539069996	1
2	30726	24232.296568418426	0
2	30825	24339.75907727931	1
2	30826	24339.775191274837	0
2	30835	24342.153672874391	1
2	30836	24342.783081398898	0
2	30850	24351.145565365613	1
2	30851	24351.828948763566	0
2	30880	24384.239061057468	1
2	30881	24384.752815510703	0
2	30937	24433.361855833116	1
2	30938	24433.464459903033	0
2	30947	24434.679521577638	1
2	30948	24435.252625496833	0
2	30955	24436.880612358932	1
2	30956	24437.272608328293	0
2	30960	24437.367958916255	1
2	30962	24438.336454049193	2
2	30963	24438.406094244829	1
2	30966	24439.526867801937	0
2	30995	24451.568473537614	1
2	30996	24451.694518213268	0
2	31005	24452.789890837178	1
2	31006	24453.464626437067	0
2	31060	24494.796486397269	1
2	31061	24495.737929583929	0
2	31065	24496.016865103895	1
2	31067	24496.265922068472	2
2	31068	24496.569938933413	1
2	31071	24497.402455962386	0
2	31085	24502.543644570355	1
2	31086	24503.64078996577	0
2	31100	24519.547709947043	1
2	31101	24519.571347408404	0
2	31130	24528.878071599826	1
2	31131	24529.377991566807	0
2	31155	24535.406103467809	1
2	31156	24535.603058013709	0
2	31190	24552.954913382756	1
2	31191	24553.398388713508	0
2	31220	24583.837500175319	1
2	31221	24584.803415993176	0
2	31235	24601.977005369976	1
2	31236	24602.322421041938	0
2	31300	24643.846908730627	1
2	31301	24644.550476185086	0
2	31340	24664.88579240858	1
2	31341	24665.290012491003	0
2	31355	24667.418872788522	1
2	31357	24667.870273647966	2
2	31358	24668.467103732966	1
2	31361	24669.630549111247	0
2	31365	24670.416696944419	1
2	31366	24670.721925846331	0
2	31395	24698.0451263451	1
2	31396	24698.860892300817	0
2	31415	24705.787736969814	1
2	31416	24706.680778415872	0
2	31445	24720.38815996685	1
2	31446	24720.644706297321	0
2	31460	24729.820640184542	1
2	31461	24730.136354193893	0
2	31505	24751.053730078375	1
2	31506	24751.32349605754	0
2	31535	24791.611056358549	1
2	31536	24791.972672743944	0
2	31557	24826.058634150892	1
2	31558	24826.876389780035	0
2	31605	24848.999239799983	1
2	31606	24849.595762810044	0
2	31720	24939.973169380246	1
2	31723	24940.534196324341	0
2	31729	24941.168458327594	1
2	31730	24941.732049901851	0
2	31737	24942.975643570701	1
2	31738	24943.678635710266	0
2	31780	24976.722181440675	1
2	31781	24977.156143712594	0
2	31785	24977.6418286604	1
2	31786	24978.13848286743	0
2	31850	25079.327702517745	1
2	31851	25080.080676192154	0
2	31855	25080.103480966041	1
2	31856	25081.203017431234	0
2	31885	25105.617962061409	1
2	31886	25106.383497002567	0
2	31890	25106.406966081295	1
2	31891	25107.244445713921	0
2	31942	25156.571694444106	1
2	31943	25156.575378529528	0
2	31970	25190.464749693155	1
2	31971	25191.148534525597	0
2	32030	25237.516703131597	1
2	32032	25237.78251209164	2
2	32033	25237.811458371716	1
2	32036	25238.815676024134	0
2	32055	25247.592740500265	1
2	32056	25248.572773727346	0
2	32085	25267.425722114218	1
2	32086	25268.521397205745	0
2	32110	25293.855957025006	1
2	32111	25294.006281550356	0
2	32120	25304.943868492359	1
2	32121	25304.98398673475	0
2	32150	25327.391208297487	1
2	32151	25328.160133813138	0
2	32160	25329.299934082836	1
2	32162	25329.869072592989	2
2	32163	25330.192474949331	1
2	32166	25331.29537285787	0
2	32170	25331.373573568664	1
2	32171	25332.333004032978	0
2	32205	25367.549169734256	1
2	32206	25367.867982041612	0
2	32210	25368.028838471981	1
2	32211	25368.685099799614	0
2	32235	25398.128934545028	1
2	32236	25398.14117080316	0
2	32275	25414.252339034034	1
2	32276	25414.715798807391	0
2	32500	25625.341565915731	1
2	32501	25625.389910562977	0
2	32505	25625.445435043234	1
2	32506	25626.512039801281	0
2	32550	25650.155556855626	1
2	32551	25650.489845721122	0
2	32585	25695.628078478916	1
2	32586	25695.945489341069	0
2	32660	25752.616663147913	1
2	32661	25753.654213461915	0
2	32685	25763.047532475182	1
2	32686	25763.697247782216	0
2	32710	25800.237626459503	1
2	32711	25800.752566693309	0
2	32715	25801.716662689113	1
2	32716	25801.784139021724	0
2	32725	25805.077827309926	1
2	32726	25805.640558626832	0
2	32755	25820.67392004409	1
2	32756	25821.345255168524	0
2	32760	25821.375805129398	1
2	32761	25822.326867475823	0
2	32795	25833.369752024476	1
2	32796	25833.480338662066	0
2	32805	25835.794723822638	1
2	32806	25836.456989240064	0
2	32810	25837.062032621176	1
2	32811	25837.509741572081	0
2	32820	25838.743789979889	1
2	32823	25839.866943435659	0
2	32830	25841.368647109385	1
2	32831	25841.959558861245	0
2	32865	25864.817356937656	1
2	32866	25864.956840583933	0
2	32870	25865.712369539709	1
2	32871	25865.920741177974	0
2	32880	25868.548053055795	1
2	32881	25868.864488652269	0
2	32885	25869.473739933449	1
2	32886	25869.701649484704	0
2	32910	25886.906519922307	1
2	32911	25887.492580460864	0
2	32925	25896.569214568042	1
2	32926	25897.397811149966	0
2	33000	25963.023234619116	1
2	33001	25963.286513529762	0
2	33050	25992.69889437326	1
2	33053	25992.98371449806	0
2	33060	25994.150456047193	1
2	33061	25995.13711198358	0
2	33075	26016.527129165389	1
2	33076	26016.894710312468	0
2	33085	26019.548421866408	1
2	33086	26020.29635374213	0
2	33127	26069.625684969944	1
2	33128	26070.184702349238	0
2	33140	26072.755442105205	1
2	33141	26073.187306958129	0
2	33150	26077.484467727511	1
2	33151	26078.362196858222	0
2	33155	26078.800761526436	1
2	33156	26079.182606388158	0
2	33180	26110.289355915547	1
2	33181	26110.377813286493	0
2	33245	26161.377177166664	1
2	33246	26161.810063217149	0
2	33260	26181.20299430252	1
2	33261	26181.427450456469	0
2	33265	26181.940112870685	1
2	33266	26182.288922542705	0
2	33280	26191.626977123959	1
2	33281	26192.315703954663	0
2	33300	26198.637295462188	1
2	33301	26198.955660945023	0
2	33395	26277.88052417277	1
2	33396	26278.116058398393	0
2	33400	26278.655677688777	1
2	33401	26278.948550936003	0
2	33420	26282.953612584382	1
2	33421	26283.290027367463	0
2	33425	26284.219832651084	1
2	33426	26284.489195221895	0
2	33430	26285.317969484506	1
2	33431	26285.538937687641	0
2	33450	26299.212043020223	1
2	33452	26300.177593363301	2
2	33453	26300.279424519006	1
2	33458	26301.174825364638	0
2	33462	26301.285674468961	1
2	33463	26302.027894598067	0
2	33467	26302.481499890707	1
2	33468	26302.912129586943	0
2	33474	26303.338346074786	1
2	33476	26303.814120092534	2
2	33477	26303.863089457535	1
2	33480	26304.691809662067	0
2	33500	26310.313430818212	1
2	33501	26311.190754380326	0
2	33515	26314.001201517904	1
2	33516	26314.587238170481	0
2	33590	26355.753284846367	1
2	33591	26356.218003382929	0
2	33655	26427.596656179829	1
2	33657	26428.161550192579	2
2	33658	26428.355003175783	1
2	33661	26429.325865166347	0
2	33665	26429.520830539054	1
2	33666	26430.373413165092	0
2	33745	26514.052635632216	1
2	33747	26514.14804707223	2
2	33748	26514.254940270521	1
2	33755	26515.229865665436	0
2	33790	26552.261820094757	1
2	33791	26552.674304677161	0
2	33812	26573.611968109894	1
2	33813	26574.032256698855	0
2	33820	26575.270711340682	1
2	33821	26576.035288458564	0
2	33870	26599.060805382346	1
2	33871	26599.242316107037	0
2	33875	26599.46754749833	1
2	33876	26600.154176066773	0
2	33880	26600.380002429662	1
2	33882	26600.582366337274	2
2	33883	26601.207195602315	1
2	33886	26602.336343260812	0
2	33890	26602.411992001225	1
2	33891	26603.455400097607	0
2	33925	26633.337968602261	1
2	33927	26633.915225910513	2
2	33928	26634.19867745691	1
2	33932	26634.743795154972	2
2	33933	26635.347723488668	1
2	33936	26636.190589084355	0
2	33985	26679.585794078762	1
2	33986	26679.681152207057	0
2	33995	26681.541684561485	1
2	33996	26681.766135673958	0
2	34035	26712.515936425665	1
2	34036	26712.516163381539	0
2	34150	26850.863732500743	1
2	34152	26850.979790561355	2
2	34153	26851.735452216724	1
2	34156	26852.890045801131	0
2	34170	26862.129265838713	1
2	34171	26862.212480743107	0
2	34175	26863.056903256494	1
2	34176	26863.388783590373	0
2	34215	26903.725513909491	1
2	34216	26904.654943420074	0
2	34235	26934.89207524924	1
2	34236	26934.907661451141	0
2	34240	26934.981141856508	1
2	34241	26935.748110548055	0
2	34245	26935.781379944834	1
2	34246	26936.847914579997	0
2	34300	26983.250035416329	1
2	34301	26983.324398524467	0
2	34330	27024.240041235147	1
2	34331	27024.657789525044	0
2	34365	27064.142155977928	1
2	34366	27064.325358300619	0
2	34390	27072.899160062	1
2	34393	27073.725361547957	0
2	34420	27115.126351561218	1
2	34421	27115.762647394342	0
2	34465	27187.019289265764	1
2	34466	27187.849503010237	0
2	34585	27316.028079746749	1
2	34586	27316.994061673445	0
2	34605	27322.719857546703	1
2	34607	27322.947750763491	2
2	34608	27323.320779558989	1
2	34611	27324.44850044909	0
2	34615	27324.452594464241	1
2	34617	27324.882058683155	2
2	34618	27325.573241161155	1
2	34621	27326.510519647012	0
2	34630	27333.16797415081	1
2	34631	27333.562420691903	0
2	34640	27335.209348267989	1
2	34641	27335.280200326243	0
2	34650	27337.136573413806	1
2	34651	27337.999424035439	0
2	34715	27397.049999061486	1
2	34716	27397.24671319627	0
2	34725	27402.119658516325	1
2	34726	27402.329991745373	0
2	34735	27403.53199003173	1
2	34736	27404.478417723888	0
2	34745	27405.783905877448	1
2	34746	27406.602383325051	0
2	34915	27602.314059532837	1
2	34916	27602.879542274818	0
2	34940	27611.62540771543	1
2	34941	27612.430224899304	0
2	34950	27620.373641667326	1
2	34951	27620.547917247854	0
2	34995	27646.705352215416	1
2	34996	27647.493492334544	0
2	35045	27683.220187565193	1
2	35046	27684.28362637663	0
2	35110	27769.77341862433	1
2	35111	27770.023282283084	0
2	35230	27906.711418848239	1
2	35231	27907.341031005654	0
2	35310	28000.417016095538	1
2	35311	28000.443423868997	0
2	35325	28016.073568359596	1
2	35326	28016.222408181293	0
2	35350	28028.545590190861	1
2	35351	28029.122932378763	0
2	35415	28107.934237665756	1
2	35416	28108.152858731617	0
2	35490	28172.111552747141	1
2	35491	28172.755396404003	0
2	35510	28182.219828826775	1
2	35511	28182.810955686598	0
2	35590	28219.345017520135	1
2	35591	28219.925197336907	0
2	35600	28221.755473293016	1
2	35601	28222.146972405569	0
2	35620	28227.062811627301	1
2	35622	28227.62125491413	2
2	35623	28228.036893819708	1
2	35626	28229.220311626389	0
2	35635	28230.220421843388	1
2	35636	28230.894188662402	0
2	35655	28234.935918461209	1
2	35656	28236.008351536063	0
2	35730	28287.347217606134	1
2	35731	28287.761917076767	0
2	35745	28291.751714339385	1
2	35746	28292.018162103706	0
2	35765	28301.523499207094	1
2	35766	28301.552932098382	0
2	35880	28417.359101047167	1
2	35881	28417.882182431176	0
2	35890	28420.543691838437	1
2	35891	28420.936774710527	0
2	35895	28421.058565094616	1
2	35900	28422.124731356332	0
2	35935	28437.630250506133	1
2	35936	28438.64238138531	0
2	35985	28468.166156540215	1
2	35986	28468.71003122503	0
2	36000	28476.373043718365	1
2	36001	28477.106683567742	0
2	36015	28484.245452272833	1
2	36016	28484.75841855683	0
2	36185	28667.37159636548	1
2	36186	28667.845806687022	0
2	36325	28804.712049102472	1
2	36326	28805.211829626551	0
2	36362	28837.799532096535	1
2	36363	28838.348691984489	0
2	36407	28860.836855144971	1
2	36408	28861.45697509246	0
2	36420	28865.776718994564	1
2	36421	28866.354711861251	0
2	36460	28918.533968976473	1
2	36461	28918.712971874292	0
2	36520	28969.975589275197	1
2	36521	28969.993364619089	0
2	36530	28971.705339386889	1
2	36531	28972.131949740046	0
2	36550	28986.234729109797	1
2	36551	28986.663770544741	0
2	36555	28987.813660958187	1
2	36556	28987.84315735719	0
2	36560	28988.262482578669	1
2	36561	28988.901968573526	0
2	36570	28991.466638614543	1
2	36571	28991.892725484645	0
2	36615	29028.904382363472	1
2	36616	29029.100964508773	0
2	36620	29029.34208258795	1
2	36623	29030.109030510494	0
2	36630	29031.637570518596	1
2	36631	29032.309376226375	0
2	36640	29035.009717200046	1
2	36641	29035.470364663247	0
2	36700	29083.925585690389	1
2	36701	29084.101675166018	0
2	36715	29086.709336033691	1
2	36716	29087.725587075621	0
2	36725	29095.204917981119	1
2	36726	29096.00360503364	0
2	36745	29101.236279502013	1
2	36746	29101.335519222489	0
2	36750	29102.382588702619	1
2	36751	29102.44057576027	0
2	36790	29130.571612707015	1
2	36791	29130.787184191673	0
2	36820	29150.163864350374	1
2	36822	29150.348210443751	2
2	36823	29151.026480592857	1
2	36826	29152.009458312555	0
2	36830	29152.473433049871	1
2	36831	29152.831136147002	0
2	36840	29155.521050433513	1
2	36841	29155.713301730088	0
2	36885	29185.811040915127	1
2	36886	29186.283728715494	0
2	36890	29187.147193907968	1
2	36891	29187.446635260243	0
2	36905	29198.414129720337	1
2	36907	29199.139337090715	2
2	36908	29199.322208670801	1
2	36911	29200.362333236164	0
2	37015	29329.320964544903	1
2	37016	29329.515214811094	0
2	37030	29341.584385158118	1
2	37031	29341.764718450755	0
2	37190	29437.347327601847	1
2	37191	29437.486999620892	0
2	37200	29465.572599970473	1
2	37201	29466.084642869719	0
2	37205	29466.572069705987	1
2	37206	29467.161269781851	0
2	37210	29467.516147701135	1
2	37211	29468.079520222657	0
2	37225	29475.719979156935	1
2	37226	29476.171089485071	0
2	37285	29524.494419602202	1
2	37286	29524.889402490035	0
2	37360	29620.983816573025	1
2	37361	29620.991320118965	0
2	37375	29625.411663987423	1
2	37376	29625.45643599086	0
2	37425	29668.529411138175	1
2	37427	29668.746150270099	2
2	37428	29669.306435831103	1
2	37434	29670.078799642189	2
2	37435	29670.373736650336	1
2	37440	29671.544609185893	0
2	37447	29673.01891362419	1
2	37450	29673.554881672028	0
2	37460	29676.337842204041	1
2	37461	29676.533304069962	0
2	37490	29716.099067160516	1
2	37491	29716.789111446359	0
2	37510	29746.935370967642	1
2	37511	29747.661074345683	0
2	37515	29747.773911973617	1
2	37516	29748.791406044022	0
2	37600	29840.704202984435	1
2	37601	29841.082445037282	0
2	37605	29841.538741528663	1
2	37606	29841.927261823426	0
2	37670	29893.235668633922	1
2	37671	29893.315601080751	0
2	37745	29950.913556122576	1
2	37746	29951.072147254285	0
2	37765	29963.29067300119	1
2	37766	29963.530948825742	0
2	37800	29980.128111340963	1
2	37802	29980.31248556222	2
2	37803	29980.923285338565	1
2	37806	29981.822664341147	0
2	37810	29982.149722527729	1
2	37811	29982.955509736112	0
3	0	0	0
3	12	3.122812830835	1
3	16	4.100051488613	0
3	27	5.410742983801	1
3	36	8.366949002238	0
3	115	94.574823117737	1
3	116	94.97935823587	0
3	157	124.870056166353	1
3	161	126.058338273381	0
3	252	188.026203720462	1
3	269	191.493018919088	2
3	274	192.024593711294	3
3	275	192.744150276468	2
3	278	193.589167522904	1
3	281	194.681746820719	0
3	290	195.668053443601	1
3	292	195.800637449087	2
3	293	196.768025251557	1
3	296	197.89146931347	0
3	335	226.220366868802	1
3	337	226.392515381209	2
3	338	227.141607536745	1
3	341	228.165681786366	0
3	365	237.867136113943	1
3	366	238.413577252395	0
3	420	286.71981138008	1
3	421	287.374249416327	0
3	440	304.183710828558	1
3	441	304.93334422694	0
3	450	305.931710828972	1
3	451	306.970018451153	0
3	565	402.808409176382	1
3	566	403.528047942094	0
3	612	435.085161635642	1
3	616	435.972909168415	0
3	645	446.666529629126	1
3	646	447.422491361585	0
3	650	447.558343697398	1
3	656	449.405711594608	0
3	720	502.046361668391	1
3	721	502.274745720937	0
3	725	503.002363490432	1
3	726	503.443201902448	0
3	730	503.629380817927	1
3	731	504.330497236023	0
3	740	506.793656994413	1
3	741	507.575820282946	0
3	775	524.010537316483	1
3	776	524.370912569038	0
3	785	530.499308981395	1
3	786	531.39937282194	0
3	865	590.828235799491	1
3	866	591.357857126279	0
3	920	630.320567703547	1
3	921	630.880717017264	0
3	1025	747.145666718983	1
3	1026	747.408299393071	0
3	1035	750.137572136849	1
3	1036	750.258399860242	0
3	1060	757.345365834478	1
3	1061	758.144969627237	0
3	1105	820.446615581208	1
3	1106	821.454353285235	0
3	1115	835.468926148088	1
3	1116	835.606620413233	0
3	1120	835.640131990778	1
3	1126	837.727525828109	0
3	1170	893.120788463201	1
3	1171	893.535706660194	0
3	1235	951.940751224992	1
3	1236	952.547212258426	0
3	1285	983.259870755976	1
3	1286	983.772048737102	0
3	1315	1005.247269749112	1
3	1316	1005.951512200679	0
3	1355	1034.252698089631	1
3	1356	1034.683683057	0
3	1365	1036.851893879378	1
3	1366	1037.898850531372	0
3	1370	1037.908981308606	1
3	1371	1038.820786060541	0
3	1390	1055.596606537938	1
3	1391	1055.608840502318	0
3	1405	1059.528921031283	1
3	1406	1060.586729806379	0
3	1410	1061.427595779233	1
3	1411	1061.636850602363	0
3	1420	1067.105499296602	1
3	1421	1067.466351159161	0
3	1457	1114.795227075039	1
3	1462	1115.676693200734	2
3	1463	1116.479467986995	1
3	1466	1117.466978820139	0
3	1470	1117.925077296945	1
3	1471	1118.277891666727	0
3	1475	1118.705586718378	1
3	1476	1119.316448452515	0
3	1505	1160.725814249084	1
3	1506	1161.509577997612	0
3	1510	1161.657120470895	1
3	1511	1162.458753133217	0
3	1525	1169.780750231474	1
3	1526	1170.004379316672	0
3	1535	1171.30410281185	1
3	1536	1172.237920855983	0
3	1580	1209.633648688744	1
3	1581	1210.687203826026	0
3	1605	1221.151054772325	1
3	1606	1221.411602844209	0
3	1615	1223.905693194521	1
3	1616	1223.995347820439	0
3	1630	1241.73970047428	1
3	1631	1241.884599875189	0
3	1635	1242.548569640125	1
3	1636	1242.887413113746	0
3	1960	1504.494220368638	1
3	1961	1505.029752528059	0
3	2040	1614.480538737642	1
3	2041	1614.902591986225	0
3	2130	1669.154176683618	1
3	2131	1669.749369356813	0
3	2202	1713.775803597643	1
3	2211	1715.907864053198	0
3	2225	1727.235871320166	1
3	2226	1727.74476327699	0
3	2265	1745.057065120125	1
3	2266	1745.443842609254	0
3	2290	1754.898410649666	1
3	2291	1755.823058263278	0
3	2340	1843.73708973692	1
3	2341	1844.649710481207	0
3	2360	1851.204581090383	1
3	2361	1851.723495687241	0
3	2475	1959.527044187232	1
3	2476	1959.858235608462	0
3	2542	1999.153066831769	1
3	2546	2000.875264403543	0
3	2565	2008.218549616983	1
3	2566	2009.228652911836	0
3	2570	2009.306608166891	1
3	2571	2010.34467054039	0
3	2655	2083.436574070784	1
3	2656	2084.07587276923	0
3	2740	2121.807804470054	1
3	2752	2124.631096080977	2
3	2753	2125.200460612513	1
3	2762	2126.266740192078	2
3	2763	2127.05556732092	1
3	2766	2127.894371401537	0
3	2915	2261.323725803024	1
3	2916	2262.179352863281	0
3	2935	2266.766828756272	1
3	2936	2267.313331630775	0
3	3075	2389.249378815289	1
3	3076	2389.680258562822	0
3	3135	2413.803113692377	1
3	3136	2414.163858545797	0
3	3165	2432.670653974955	1
3	3166	2432.679597727033	0
3	3240	2492.426273700697	1
3	3241	2492.861532603157	0
3	3327	2563.278123846747	1
3	3334	2563.896528867024	2
3	3338	2565.642058162972	1
3	3341	2566.497393239125	0
3	3435	2640.053174200218	1
3	3436	2640.520602597107	0
3	3497	2704.255911687505	1
3	3519	2709.150414013349	2
3	3523	2710.444513774749	1
3	3531	2712.528429955516	0
3	3615	2794.282633507769	1
3	3617	2794.84404288204	2
3	3618	2794.878581137595	1
3	3622	2795.15579567431	2
3	3623	2795.96720140233	1
3	3626	2796.773055113492	0
3	3635	2799.881167793183	1
3	3642	2800.886253363533	2
3	3643	2800.914701816836	1
3	3646	2801.754107405176	0
3	3650	2801.823645912509	1
3	3651	2802.834362913878	0
3	3655	2803.573248893354	1
3	3656	2803.885365180043	0
3	3665	2805.158273479748	1
3	3666	2806.107226052345	0
3	3740	2855.457247469101	1
3	3741	2856.194423041906	0
3	3830	2941.063637190362	1
3	3831	2941.300305608611	0
3	3840	2942.864127357172	1
3	3841	2943.201905866776	0
3	3870	2981.71766509532	1
3	3871	2981.848630124472	0
3	3900	3005.201852577069	1
3	3901	3005.983882889266	0
3	3955	3053.837490244364	1
3	3956	3053.934439512965	0
3	3960	3054.173183206157	1
3	3961	3054.964885039598	0
3	4000	3087.200367968678	1
3	4001	3087.555418725027	0
3	4005	3087.865851877723	1
3	4007	3088.499138473648	2
3	4008	3088.721707045654	1
3	4011	3089.915563572938	0
3	4115	3163.51210771231	1
3	4116	3164.139893357409	0
3	4140	3194.376760766724	1
3	4142	3194.702587195531	2
3	4143	3195.244053030339	1
3	4146	3196.326723113981	0
3	4260	3271.418495321272	1
3	4261	3271.481703837954	0
3	4285	3297.882941877219	1
3	4286	3298.317844876174	0
3	4295	3300.527995377601	1
3	4297	3300.913079548012	2
3	4299	3300.934041347997	3
3	4300	3300.991836848921	2
3	4309	3302.042785448317	3
3	4310	3303.035376950792	2
3	4314	3304.027960446134	3
3	4315	3304.096065856303	2
3	4318	3305.13302276942	1
3	4321	3306.2644133629	0
3	4360	3338.371000344612	1
3	4361	3339.414834764235	0
3	4460	3385.502161358148	1
3	4461	3385.637701116818	0
3	4542	3444.469855295505	1
3	4546	3445.732033676662	0
3	4555	3447.761131158905	1
3	4556	3448.396182998705	0
3	4705	3604.735059440975	1
3	4706	3605.306909985746	0
3	4750	3661.948074639025	1
3	4756	3662.977827182341	0
3	4760	3663.63133693144	1
3	4761	3663.835490663837	0
3	4770	3665.073825894269	1
3	4776	3666.945314073771	0
3	4815	3710.36596908749	1
3	4816	3711.072598960133	0
3	4835	3724.959981694877	1
3	4836	3725.24182088183	0
3	4875	3771.279397677289	1
3	4876	3771.987394242585	0
3	4960	3845.917830679524	1
3	4961	3846.35641241099	0
3	4970	3847.5145797943	1
3	4971	3848.440206671388	0
3	5045	3925.017692204116	1
3	5046	3925.447237776787	0
3	5050	3925.887254249487	1
3	5051	3926.452626777914	0
3	5055	3927.109682132393	1
3	5061	3928.643442854293	0
3	5137	3990.487043431106	1
3	5142	3991.107414085557	2
3	5143	3991.522739661952	1
3	5151	3993.475473456645	0
3	5162	3995.919287668594	1
3	5166	3997.157483279372	0
3	5175	3998.175883421162	1
3	5176	3998.981629790125	0
3	5297	4082.048974843305	1
3	5311	4085.744136731501	0
3	5320	4087.346506272559	1
3	5321	4087.803892595589	0
3	5330	4089.904191360802	1
3	5331	4090.512812053797	0
3	5365	4116.092099374843	1
3	5366	4116.33652328498	0
3	5395	4142.411386107969	1
3	5396	4142.608548920137	0
3	5440	4168.166294009376	1
3	5442	4168.378180173555	2
3	5443	4168.512266939375	1
3	5457	4170.956919192565	2
3	5458	4171.302853593751	1
3	5466	4173.046654409225	0
3	5477	4175.117440776639	1
3	5481	4176.450007780324	0
3	5540	4213.645766986098	1
3	5541	4214.046466637935	0
3	5545	4214.920292417037	1
3	5546	4215.060143512833	0
3	5625	4282.58991130629	1
3	5626	4282.729387442019	0
3	5715	4344.949786532718	1
3	5716	4345.006945323716	0
3	5730	4352.046180910017	1
3	5731	4352.655900852517	0
3	5785	4424.983989904979	1
3	5786	4425.911366324222	0
3	5935	4559.40754132291	1
3	5936	4559.659889756222	0
3	5950	4580.910393189495	1
3	5951	4580.915866793961	0
3	6075	4751.713435012177	1
3	6076	4752.741390365037	0
3	6155	4841.189436057905	1
3	6156	4841.825477732326	0
3	6215	4876.408047567169	1
3	6216	4877.374635206117	0
3	6240	4888.343971647179	1
3	6241	4889.137098968304	0
3	6265	4917.677038349051	1
3	6266	4917.688885700244	0
3	6325	4949.504654399637	1
3	6327	4950.165730163557	2
3	6328	4950.516351941937	1
3	6336	4952.637671224271	0
3	6340	4952.64964197267	1
3	6341	4953.465139714685	0
3	6500	5071.623597265786	1
3	6501	5072.726113363734	0
3	6600	5156.097811735702	1
3	6606	5158.039862079976	0
3	6635	5186.717542603269	1
3	6636	5186.849683917063	0
3	6670	5220.325149956573	1
3	6671	5220.767638912468	0
3	6730	5267.750677096133	1
3	6731	5267.76485415137	0
3	6750	5273.641997200825	1
3	6756	5275.834435469096	0
3	6830	5337.235247442646	1
3	6831	5338.201997426788	0
3	6855	5364.78937696769	1
3	6866	5367.549719757456	0
3	6930	5411.927965928287	1
3	6931	5412.736877074211	0
3	6955	5417.161236182311	1
3	6956	5417.846802146958	0
3	6960	5418.468873205821	1
3	6961	5418.776962298101	0
3	7015	5456.269409609779	1
3	7016	5456.910499414756	0
3	7020	5457.134968067935	1
3	7021	5457.81903114007	0
3	7155	5573.866747289299	1
3	7157	5574.43694865596	2
3	7158	5574.639548370033	1
3	7162	5575.31514355339	2
3	7163	5575.690301288269	1
3	7166	5576.865686647851	0
3	7175	5578.951692543895	1
3	7176	5579.008256351181	0
3	7260	5661.453596017927	1
3	7261	5661.676967416232	0
3	7310	5717.276079030756	1
3	7311	5717.869993969284	0
3	7325	5729.170311482666	1
3	7326	5729.260036801741	0
3	7340	5731.999400346266	1
3	7341	5732.797559725609	0
3	7475	5832.486992561631	1
3	7476	5833.41421993155	0
3	7495	5843.168354955375	1
3	7501	5844.94493973737	0
3	7525	5868.496838849512	1
3	7526	5868.621176344668	0
3	7540	5874.914264115815	1
3	7541	5875.23581099999	0
3	7575	5900.362215933205	1
[...]
6	30265	23862.174617022749	6.102346773442
6	30270	23868.762687487034	1.070504918881
6	30285	23877.228941492536	2.340098038126
6	30300	23885.602108527026	1.029733626824
6	30310	23894.799969223605	2.908600844788
6	30315	23902.773739781926	0.993254978769
6	30322	23915.089704417598	1.123134055268
6	30327	23915.92678972238	1.057378668857
6	30335	23928.964786415808	0.852092077862
6	30350	23933.620950473657	1.474696352949
6	30372	23944.971523959908	1.642738038385
6	30377	23946.002263913929	2.776979903225
6	30385	23957.038155517123	1.117283331882
6	30410	23986.375885488408	1.165878606681
6	30427	23997.346836625575	1.182284026034
6	30437	23999.17582107333	1.306764607793
6	30445	24001.351526145986	1.099525203985
6	30450	24003.200068817332	6.460262104619
6	30455	24008.781583931509	0.852563901618
6	30465	24036.073438418531	0.92977040587
6	30470	24040.707356909413	1.172361457441
6	30475	24044.057261284252	0.926975926571
6	30480	24046.718865806482	0.814862607326
6	30490	24059.305937970279	1.157744664513
6	30497	24062.623535176231	1.130414978787
6	30500	24063.472799751679	1.133217900231
6	30515	24079.291491225014	0.988790470383
6	30537	24098.082126111274	0.889540129714
6	30550	24106.442843767995	0.84746954767
6	30570	24120.96018379683	0.847702952754
6	30610	24145.540324336081	1.615150081033
6	30620	24148.889250587832	2.198911017004
6	30630	24165.278292757567	1.078230221383
6	30645	24170.383441567455	1.802729627621
6	30660	24185.722139377407	1.071527263708
6	30717	24227.080793386835	3.803604069352
6	30735	24234.234540685212	1.017629957876
6	30800	24329.881740850762	1.168196752295
6	30837	24342.783081398898	0.835818626639
6	30845	24347.585823347918	0.89335384639
6	30870	24359.404067832521	0.82157543581
6	30875	24366.33746872195	0.9209815301
6	30882	24384.752815510703	0.997448525298
6	30900	24393.106007280835	0.819753486663
6	30920	24423.78961335013	1.143009966146
6	30925	24425.260146103569	1.198253496271
6	30930	24429.337710298841	0.851689761598
6	30939	24433.464459903033	0.9009970502
6	30949	24435.252625496833	2.564809176773
6	30957	24437.272608328293	2.893249411182
6	31007	24453.464626437067	1.2095221969
6	31020	24457.995760879715	2.058740597421
6	31035	24464.139534234826	4.276107473901
6	31147	24533.623258464241	16.77210821757
6	31152	24534.691160966472	1.850012902965
6	31157	24535.603058013709	1.41355509339
6	31175	24542.730606210699	1.778841375474
6	31260	24612.130921446948	0.970451415982
6	31270	24615.303187811989	0.806586052477
6	31277	24617.677006021011	1.156499407254
6	31280	24618.546472807563	1.639167074754
6	31359	24668.467103732966	6.090391376493
6	31375	24674.411764783162	1.140887172613
6	31387	24688.055660130062	0.842818954587
6	31390	24689.15983096685	3.258555991271
6	31397	24698.860892300817	1.035413048696
6	31440	24719.047387667498	0.825579564832
6	31455	24723.108993658134	0.835238727648
6	31480	24739.660971695362	2.678223489771
6	31495	24747.64238908077	1.19723970371
6	31507	24751.32349605754	1.019194657076
6	31559	24826.876389780035	1.856669886868
6	31565	24828.561964607565	3.44618008876
6	31570	24830.32433161292	0.81743975319
6	31590	24844.386954465248	1.032384756571
6	31595	24846.256677355257	3.872647295327
6	31600	24847.736647479121	0.940821936075
6	31620	24861.359470982229	1.042092797719
6	31635	24881.447205693884	0.959927369095
6	31660	24893.01637632564	1.062110468
6	31675	24914.344865473084	0.869963237084
6	31692	24928.749479716503	1.152536018845
6	31697	24929.784973218803	3.995075141806
6	31700	24930.703256370918	1.121412959454
6	31739	24943.678635710266	3.587245180076
6	31745	24945.944192297917	6.476635955686
6	31750	24949.234776678477	0.805713828374
6	31770	24966.767502741222	5.76797164108
6	31795	24994.792563054698	0.981447485555
6	31800	25007.565332580123	1.091504013073
6	31830	25049.343202131871	1.091254897974
6	31905	25119.79473190382	1.094467197731
6	31915	25137.007000311592	1.024099811539
6	31944	25156.575378529528	2.187519529867
6	31950	25158.64467916804	10.857102209985
6	31980	25193.329999501949	3.019088557642
6	32005	25219.086793437971	0.94887718549
6	32015	25225.555089673689	2.269560443608
6	32034	25237.811458371716	1.171152732921
6	32045	25241.363575841327	0.855053813942
6	32050	25244.791572149829	1.118185381126
6	32057	25248.572773727346	1.125567890238
6	32070	25254.56397351612	0.880120178871
6	32100	25277.147036187434	1.021705025807
6	32122	25304.98398673475	0.924837397132
6	32130	25309.812050782644	1.119752015267
6	32145	25320.944471114037	1.154161779396
6	32164	25330.192474949331	1.163802897278
6	32180	25346.113933732014	0.814524663147
6	32185	25350.59074105835	0.811132747307
6	32230	25391.335364873155	0.989024829399
6	32277	25414.715798807391	1.649946904382
6	32325	25449.281138616542	1.138471249491
6	32350	25469.994049199078	1.028662979789
6	32375	25479.714589925106	0.895297195669
6	32390	25485.876122188627	1.084037495591
6	32400	25514.534595686325	0.987750470452
6	32405	25517.154414666192	1.024330975395
6	32420	25537.185659595168	0.994505741261
6	32437	25560.018045280207	1.002263016067
6	32440	25560.927410079431	1.853939847107
6	32450	25569.129993133034	2.268403111682
6	32455	25572.967395110512	0.936735156551
6	32460	25574.119963003174	0.877336702589
6	32465	25576.118446685014	1.032277986221
6	32477	25598.025794473726	1.718901467277
6	32480	25599.223487435903	1.365994784512
6	32522	25634.83208611459	1.178310816921
6	32535	25641.487476507277	6.807413805052
6	32560	25656.883078953	0.890889591444
6	32565	25661.688540891952	0.845948556252
6	32575	25677.528322509075	0.939548672177
6	32600	25711.954354296857	1.186000714451
6	32612	25715.578786517362	0.983866207302
6	32615	25716.630411925687	3.922998436482
6	32620	25723.847642995887	1.157268096879
6	32625	25726.268214141356	0.868128625304
6	32630	25733.297439603975	1.113938410021
6	32640	25736.61764072009	0.90149545325
6	32662	25753.654213461915	1.193980410416
6	32687	25763.697247782216	1.354708080437
6	32705	25799.569197873303	2.668284644349
6	32727	25805.640558626832	1.009951662924
6	32757	25821.345255168524	1.029128417
6	32770	25824.347111494836	1.958972916384
6	32790	25830.172566569741	4.45968508111
6	32797	25833.480338662066	0.968780184817
6	32807	25836.456989240064	1.128372327797
6	32824	25839.866943435659	1.138353913464
6	32832	25841.959558861245	3.048730455277
6	32867	25864.956840583933	0.918482980598
6	32895	25878.432573959233	0.875412626937
6	32900	25881.266378388944	0.901433931012
6	32905	25884.132473988955	0.938771756366
6	32940	25905.159716760422	1.136751578096
6	32987	25955.737420900008	0.82828766983
6	32990	25956.673031307878	1.450138909774
6	32995	25958.539334136154	0.870461192261
6	33002	25963.286513529762	0.975921466015
6	33010	25965.132802844185	1.204134987459
6	33040	25989.13658710487	0.841842697375
6	33062	25995.13711198358	2.25906707334
6	33110	26027.538387920882	1.176173078269
6	33120	26060.39928248413	0.868492136616
6	33137	26072.385558819183	3.281908775445
6	33142	26073.187306958129	1.73111134176
6	33192	26114.667692330311	5.141038356394
6	33195	26115.478388345352	1.648236421219
6	33205	26131.29212639276	0.96261988841
6	33220	26140.809337800931	1.192669671122
6	33225	26143.300998664085	0.95746265864
6	33230	26154.397644677334	0.993782238849
6	33257	26180.368612994997	0.925712938886
6	33262	26181.427450456469	1.587168237537
6	33282	26192.315703954663	1.13632626828
6	33295	26196.253016678014	0.862508502975
6	33310	26208.921261911618	1.00921035558
6	33330	26223.025679811537	1.048059888557
6	33365	26251.587929999536	1.634877379283
6	33410	26281.345266113979	1.065612054337
6	33422	26283.290027367463	1.622987150141
6	33440	26293.722503146289	0.871894985996
6	33445	26295.378493794111	1.00486191595
6	33487	26307.037529418812	7.885239255522
6	33490	26308.093824842394	5.047362955973
6	33502	26311.190754380326	1.369114177567
6	33527	26316.643359712227	3.091586910188
6	33535	26319.215901690794	3.251371295074
6	33545	26326.77427109457	1.012640433852
6	33555	26333.029133666663	4.660737324372
6	33575	26342.772849946346	1.400037222909
6	33580	26352.877286874842	0.830170208868
6	33592	26356.218003382929	1.694727042389
6	33610	26377.130243478186	1.188291286025
6	33625	26389.921015932817	1.864569630226
6	33640	26398.866064239293	2.356009987286
6	33650	26419.664253233263	0.831990209222
6	33659	26428.355003175783	1.097390384134
6	33690	26448.607042661547	1.135391085409
6	33705	26488.29754782838	1.01841645129
6	33715	26493.280364743125	1.098562247208
6	33725	26500.67856394192	0.884846159909
6	33730	26502.848079122358	1.107175025623
6	33735	26509.398091337297	0.830872238986
6	33762	26517.383658614457	2.843816886544
6	33765	26518.396404570695	3.534625671379
6	33770	26524.376129402312	1.114974953793
6	33822	26576.035288458564	2.872732928804
6	33835	26581.570657123421	1.154461503401
6	33840	26588.010451939789	0.866293038242
6	33855	26594.126549985559	1.337538011925
6	33872	26599.242316107037	1.560921126821
6	33900	26612.88821011476	0.896142523922
6	33950	26640.729686499516	0.966418035794
6	33970	26664.228614988873	1.045126832556
6	33977	26674.838998420645	1.122525283415
6	33980	26675.692852092457	1.954476464292
6	34007	26695.083114697475	0.830258704349
6	34010	26695.888531584356	0.886343658917
6	34015	26702.481116607686	1.008157818764
6	34025	26706.595926231593	1.284293370605
6	34037	26712.516163381539	2.12518883393
6	34070	26759.259201460643	0.942118988745
6	34085	26777.256930333068	1.023167607561
6	34095	26793.177327861896	0.89796644859
6	34100	26806.086750774259	0.853006339259
6	34105	26807.631783169172	0.914270593133
6	34120	26828.156420681234	5.771459561164
6	34130	26840.317320108829	0.92453304939
6	34135	26847.709101980335	0.817344043031
6	34154	26851.735452216724	1.088022501759
6	34165	26860.592717633682	0.875138638634
6	34190	26871.888661466714	1.289077670901
6	34225	26921.919334015739	1.05364046637
6	34295	26981.92314115478	2.009434957207
6	34350	27049.703205962367	1.027295446955
6	34360	27059.605470498458	0.88949606847
6	34375	27069.43455269946	1.007795961201
6	34385	27072.295993779576	1.326383794772
6	34394	27073.725361547957	1.012622426357
6	34400	27075.784257858957	2.346513994164
6	34410	27085.733642496107	1.027728885598
6	34422	27115.762647394342	1.119361321535
6	34435	27135.213610551354	1.008121208102
6	34445	27162.596830477583	1.152251717914
6	34467	27187.849503010237	5.619775984823
6	34475	27193.602500798809	0.927783457562
6	34485	27205.197018142836	0.941327194683
6	34495	27217.316381961792	0.993120515533
6	34500	27220.562595911547	1.018473155797
6	34510	27227.624343988579	1.133103474323
6	34515	27234.267098013729	1.161257639527
6	34525	27244.642996818668	1.143223118596
6	34535	27250.920963245453	0.938897444028
6	34545	27270.36360969294	0.818111679237
6	34555	27273.694549463172	0.898255881481
6	34560	27282.337006442191	0.827322825976
6	34565	27288.28446847771	0.824175076
6	34570	27290.419864075461	0.883575846255
6	34580	27297.493590783511	0.970245170034
6	34652	27337.999424035439	1.195124549046
6	34665	27355.746481296872	0.924070839956
6	34675	27360.793186158941	2.774594229557
6	34695	27386.52852221219	1.0844255968
6	34700	27390.937286555729	0.906377134006
6	34705	27393.461583430657	0.939568368252
6	34737	27404.478417723888	3.026228275895
6	34775	27437.59863346183	3.756394122317
6	34780	27447.18729808613	1.096398078743
6	34805	27494.12472694933	1.084481064696
6	34815	27502.511064136869	0.990595837869
6	34820	27507.582355542948	0.972156047076
6	34825	27511.841109629498	0.873657941725
6	34840	27543.330690844551	1.146018293034
6	34850	27554.687897128696	0.857695696969
6	34870	27571.473579335929	1.191380199417
6	34875	27576.193054194564	1.190603460371
6	34890	27583.851795364118	0.934305506106
6	34900	27587.694516423734	8.333216044902
6	34910	27599.056833928214	2.341921040146
6	34935	27610.131340660916	2.825936453527
6	34960	27622.605151978239	3.083880883828
6	34967	27633.874309865539	1.148218046129
6	34975	27635.762306062394	2.716074527915
6	35035	27674.347225555103	0.94897528505
6	35040	27679.005617692931	1.088235395402
6	35055	27690.517876386733	0.882494339533
6	35060	27697.01417151174	1.140103651956
6	35065	27704.08758420103	1.045122354385
6	35070	27711.387047852505	0.842888795584
6	35090	27753.402625142503	1.155331249069
6	35100	27760.472663718773	3.660007137291
6	35120	27772.458341391473	1.024497138523
6	35135	27780.700975589454	1.112858860847
6	35140	27792.418830634867	0.881930277869
6	35150	27807.85416557289	0.854917467013
6	35155	27811.820918140047	1.196300728153
6	35165	27823.398510634639	1.190666832309
6	35187	27870.423245306754	1.082044719532
6	35195	27873.771791663982	4.363700373119
6	35205	27880.581948911075	0.923063189816
6	35215	27894.951416105384	1.107817255892
6	35240	27913.893481774326	9.909965291005
6	35260	27958.03701292175	0.830647275597
6	35265	27964.457246169187	0.987111428659
6	35280	27982.649969802883	3.299481436978
6	35285	27984.274072611802	1.119812674448
6	35290	27986.550021280131	1.118788117357
6	35295	27990.984625021029	1.152987451479
6	35300	27994.732315164483	1.194215839636
6	35312	28000.443423868997	0.893235764652
6	35335	28018.169755251756	2.775966275018
6	35345	28024.815357721716	0.808937633038
6	35370	28046.871202155364	1.041521321051
6	35375	28063.380326093706	0.990037131682
6	35380	28075.28458115716	0.912432337739
6	35385	28085.658924268586	1.003157858644
6	35390	28094.655821902572	0.977841551322
6	35405	28101.362876707301	0.903521494288
6	35417	28108.152858731617	1.013241112139
6	35427	28113.993024825208	1.176411495637
6	35435	28116.8286878616	3.766064963923
6	35470	28155.850014069919	0.847037504893
6	35475	28165.425474771448	1.113565497287
6	35480	28166.241399687265	0.811343106069
6	35540	28194.696096650369	4.066411774154
6	35555	28200.93019268033	1.872421490874
6	35570	28205.228454454941	1.542572881279
6	35592	28219.925197336907	2.726910286802
6	35602	28222.146972405569	1.005670621991
6	35610	28224.376011377325	1.884159626457
6	35617	28227.015808809518	1.105716675986
6	35637	28230.894188662402	4.244907194626
6	35652	28234.810002157991	1.137437747605
6	35657	28236.008351536063	2.146230018187
6	35665	28240.469873687033	1.120462810621
6	35670	28242.765154171243	1.177068248671
6	35700	28266.886712573932	1.130012594163
6	35710	28271.529739171989	1.078002274223
6	35732	28287.761917076767	1.503008525533
6	35747	28292.018162103706	0.892364984658
6	35755	28295.715372023696	0.976045570709
6	35760	28299.76546231418	0.982564874925
6	35775	28304.664880591054	1.084439563379
6	35780	28308.04008195643	1.158044504188
6	35785	28320.381674255809	0.998225898109
6	35797	28331.92156969218	1.303844262889
6	35805	28334.595865514453	4.820109826255
6	35815	28342.452370777093	3.194145396459
6	35830	28353.931270699183	2.456877775907
6	35870	28394.20579580649	0.962096804474
6	35875	28415.622906658084	0.959571070317
6	35910	28425.028210818541	3.102585217539
6	35915	28426.745739764287	9.892202356721
6	35937	28438.64238138531	1.769056085854
6	35945	28441.043070425244	0.898831460718
6	35955	28442.952833707261	1.094466908342
6	35965	28448.247047200666	1.108918925188
6	35980	28451.710633579205	2.934453386774
6	35987	28468.71003122503	0.820892716944
6	36002	28477.106683567742	1.98261425618
6	36032	28489.642151076006	0.982401599549
6	36035	28490.595333358212	6.662245009624
6	36040	28491.65898726904	0.833544931095
6	36070	28529.449248690936	1.156298169959
6	36080	28558.179384899386	2.953092394948
6	36085	28580.845400742085	1.020084508508
6	36095	28603.715418311618	1.152068886533
6	36100	28612.492219519849	1.036739385501
6	36105	28613.998847732914	1.150021008868
6	36165	28658.504936441415	2.151642860745
6	36175	28662.431435210039	1.120687587559
6	36187	28667.845806687022	0.848597005662
6	36200	28674.380865859665	1.090055390354
6	36240	28722.535033193206	4.230948705311
6	36260	28738.385983734994	3.73259943412
6	36270	28749.848229411688	2.970626594578
6	36290	28779.799606076171	1.794178376344
6	36327	28805.211829626551	1.020098907687
6	36364	28838.348691984489	1.58869584998
6	36370	28840.271615906189	3.107722897419
6	36375	28846.659587024095	0.879929025192
6	36382	28850.530126126142	0.950884774607
6	36385	28851.536605864422	1.851894830382
6	36395	28853.947787054061	1.455847468691
6	36415	28863.380931728241	3.075253435234
6	36422	28866.354711861251	0.842264565732
6	36430	28873.878327749124	1.008540421911
6	36455	28917.014103699114	0.97241727002
6	36475	28924.205294554661	1.09170251321
6	36480	28927.125528912455	0.971398814768
6	36485	28932.694191714064	1.08042625431
6	36510	28967.268157121975	1.15761653278
6	36532	28972.131949740046	0.983095188532
6	36540	28978.894382708883	1.161977154482
6	36545	28981.502800897718	1.078203589004
6	36590	29008.463045879018	0.95316140363
6	36595	29014.452537108509	0.947910523135
6	36617	29029.100964508773	5.703150693634
6	36632	29032.309376226375	2.259582278128
6	36655	29042.205065066371	1.707883305067
6	36685	29073.537434320144	1.13805459151
6	36702	29084.101675166018	0.915429418907
6	36717	29087.725587075621	1.03067679517
6	36747	29101.335519222489	0.91036867518
6	36765	29108.290391522491	0.951142674778
6	36777	29127.014998157157	0.826413347572
6	36780	29128.205129629953	1.856074891073
6	36792	29130.787184191673	1.809064884982
6	36824	29151.026480592857	0.951454020571
6	36850	29157.708313865146	1.435301284563
6	36865	29172.665413902535	1.037565649208
6	36870	29176.924904820918	0.896678497735
6	36880	29184.076808942754	1.522531962879
6	36909	29199.322208670801	1.19164295299
6	36925	29221.980244827556	4.848690712554
6	36945	29235.638465263227	1.07699345611
6	36960	29249.80197730043	0.84478446506
6	36972	29277.923914177342	1.14880005708
6	36975	29278.981880360095	1.578673902742
6	36985	29291.158599827733	1.078306684736
6	37007	29310.502827221548	0.852169042081
6	37010	29311.65511319034	1.939507678068
6	37040	29343.774081130102	1.341755238307
6	37050	29350.930180682831	1.100169608183
6	37055	29357.916512375258	0.930632307101
6	37065	29363.366090858925	2.02432723608
6	37070	29372.028334442592	1.166487288382
6	37090	29380.226718615658	1.865801042608
6	37100	29390.245806962059	0.943457112554
6	37125	29399.207809437961	8.064864617826
6	37145	29409.646915073142	0.953527943417
6	37155	29414.033020195044	1.102577694133
6	37177	29432.411941543075	1.091702184454
6	37182	29433.507257133762	1.669344014356
6	37185	29434.329233571461	1.343952186973
6	37220	29473.045055054792	1.139034232218
6	37240	29484.685789574801	1.013488588482
6	37275	29512.645487533736	0.987376445159
6	37280	29517.223012627268	1.101576033048
6	37307	29541.188476581499	3.781887522404
6	37310	29542.281925121788	1.413050480877
6	37315	29559.359274487007	0.911396908015
6	37335	29596.222536995889	3.633007991301
6	37370	29622.960295648226	3.810502437824
6	37390	29641.552890940265	1.133493259363
6	37395	29643.810586519527	0.979746174533
6	37405	29656.75107365085	0.944818181172
6	37415	29667.449985242109	0.895364935882
6	37429	29669.306435831103	0.868033740752
6	37451	29673.554881672028	6.015920271725
6	37457	29675.433208396218	4.946520927584
6	37462	29676.533304069962	3.297621132132
6	37470	29678.182277780611	1.291452227937
6	37480	29692.967316136855	0.927272569761
6	37500	29718.70630530543	2.744873612375
6	37505	29719.668419447831	0.913911184017
6	37525	29755.20566522597	0.802805417497
6	37540	29774.379892660737	0.964296934474
6	37545	29784.379844579233	1.089107678737
6	37560	29805.902195809447	1.197707143798
6	37565	29811.952868536005	1.126835092902
6	37580	29822.900200575305	2.820836207253
6	37595	29829.347529599986	3.628887876648
6	37640	29878.867343211059	2.614193089806
6	37645	29880.565716324554	1.057331638131
6	37655	29886.32883344821	1.46427752733
6	37672	29893.315601080751	0.802420229651
6	37682	29897.369963759796	1.037814443838
6	37685	29898.21510922495	1.278665065222
6	37690	29904.851359915721	0.991580843087
6	37695	29907.206355776577	0.881321120728
6	37700	29910.512709129811	1.15441053845
6	37710	29927.335830065417	0.917339390889
6	37720	29933.312666390793	1.132417534851
6	37735	29941.55230073938	0.987865223084
6	37780	29969.401864947762	0.953619650379
6	37790	29972.187034495221	1.574158462705
6	37825	29987.231558366479	1.186407520529

