version 2
run Second_exit_2-14-20191023-00:19:51-5175
attr configname Second_exit_2
attr datetime 20191023-00:19:51
attr experiment Second_exit_2
attr inifile omnetpp.ini
attr iterationvars ""
attr iterationvarsf ""
attr measurement ""
attr network ResponseTimeNetwork
attr processid 5175
attr repetition 14
attr replication #14
attr resultdir results
attr runnumber 14
attr seedset 14
param **.Source.interArrivalTime exponential(5s)
param **.jobPriority bernoulli(0.6)
param **.PS.serviceTimeU1 "uniform(0.8s, 1.2s)"
param **.PS.serviceTimeU2 "uniform(1.8s, 2.2s)"
param **.SS1.serviceTime exponential(1s)
param **.SS2.serviceTime exponential(1.2s)
param **.PS.exitProbability bernoulli(0.2)

vector 0 ResponseTimeNetwork.SS1 queueLength:vector ETV
attr interpolationmode sample-hold
attr title "queue length, vector"
vector 1 ResponseTimeNetwork.SS2 queueLength:vector ETV
attr interpolationmode sample-hold
attr title "queue length, vector"
vector 2 ResponseTimeNetwork.QueueU1 queueLength:vector ETV
attr interpolationmode sample-hold
attr title "queue length, vector"
vector 3 ResponseTimeNetwork.QueueU2 queueLength:vector ETV
attr interpolationmode sample-hold
attr title "queue length, vector"
vector 4 ResponseTimeNetwork.sink lifeTimeU2:vector ETV
attr interpolationmode none
attr title "lifetime of arrived jobs U2, vector"
attr unit s
vector 5 ResponseTimeNetwork.sink lifeTime:vector ETV
attr interpolationmode none
attr title "lifetime of arrived jobs, vector"
attr unit s
vector 6 ResponseTimeNetwork.sink lifeTimeU1:vector ETV
attr interpolationmode none
attr title "lifetime of arrived jobs U1, vector"
attr unit s
0	0	0	0
0	1925	1716.368357215556	1
0	1926	1716.389178887745	0
0	5630	4698.020016654723	1
0	5631	4700.094184949583	0
0	6755	5689.332104850636	1
0	6756	5689.340737367444	0
0	13220	11063.403602856002	1
0	13221	11066.209711611664	0
0	15250	12718.956863012821	1
0	15251	12719.210776945492	0
0	15362	12774.412666194683	1
0	15369	12775.661634526812	0
0	16225	13390.045349718342	1
0	16226	13391.065043049036	0
0	16230	13392.20941962638	1
0	16231	13392.854810703662	0
0	17655	14438.460742285423	1
0	17656	14438.854569920837	0
0	23349	18937.341919768545	1
0	23351	18937.442770505004	0
0	23810	19308.409523143821	1
0	23811	19308.779832198771	0
0	24375	19737.259865926232	1
0	24376	19738.061544296585	0
0	26645	21636.100098812657	1
0	26646	21636.490497290758	0
0	26950	21880.639351839292	1
0	26951	21880.668819685319	0
0	29595	23903.830684060558	1
0	29596	23904.737181913849	0
0	30982	25000.541388844775	1
0	30984	25001.005947436372	0
0	31485	25363.164210201088	1
0	31486	25363.685009493948	0
0	34755	28059.37409451409	1
0	34756	28061.213603284972	0
0	35595	28868.732219266589	1
0	35604	28871.399020052989	0
1	0	0	0
1	6155	5234.870103411012	1
1	6156	5236.794085618069	0
1	6240	5277.228975381481	1
1	6241	5279.013859972531	0
1	10380	8678.690269073857	1
1	10381	8678.762030860686	0
1	15982	13219.07785150524	1
1	15984	13219.324743348978	0
1	24450	19807.974894403091	1
1	24451	19807.980282640162	0
1	26240	21317.292920228881	1
1	26241	21318.23647921453	0
1	33095	26582.597901578578	1
1	33096	26583.741266602363	0
2	0	0	0
2	135	132.594522885716	1
2	136	132.834394750982	0
2	180	181.867090013879	1
2	181	182.720090997038	0
2	210	197.9032731958	1
2	212	198.205160456364	2
2	213	198.497765924081	1
2	217	198.562441284337	2
2	218	199.683577636208	1
2	222	200.433503674785	2
2	223	200.77576973303	1
2	226	201.612814066883	0
2	230	202.05000863596	1
2	231	202.622393807161	0
2	297	280.191765550329	1
2	298	280.241141346112	0
2	305	282.388911950413	1
2	306	282.454895086602	0
2	360	313.299092241861	1
2	361	313.918444871332	0
2	455	407.697053808345	1
2	456	407.981868421155	0
2	465	413.074535175878	1
2	466	413.842326566258	0
2	525	486.411275142497	1
2	526	487.1009487641	0
2	530	487.408365560705	1
2	531	488.107688697051	0
2	535	488.712483240972	1
2	536	489.061786104362	0
2	545	491.410072981161	1
2	546	491.970190295822	0
2	570	502.840626108535	1
2	571	502.917206684665	0
2	595	513.950956892577	1
2	596	514.116908544217	0
2	620	519.551374832372	1
2	621	519.717061254597	0
2	625	519.75625980751	1
2	626	520.769895869801	0
2	640	541.132910536906	1
2	641	542.010421062503	0
2	720	645.298517627991	1
2	721	645.8729292495	0
2	780	708.69654801626	1
2	781	709.352567397172	0
2	790	710.91127792397	1
2	791	711.438558515372	0
2	905	811.590444015768	1
2	906	811.607361926263	0
2	910	812.429451921559	1
2	911	812.478010719953	0
2	985	914.889066641905	1
2	986	915.534015186984	0
2	1020	948.263010632374	1
2	1021	948.330828083093	0
2	1035	963.853990370036	1
2	1036	964.485111137923	0
2	1080	984.800285326651	1
2	1081	985.749370638331	0
2	1105	991.758537992991	1
2	1106	991.983311443833	0
2	1190	1059.408908607354	1
2	1191	1059.776066175803	0
2	1235	1111.027407037492	1
2	1236	1111.556235349659	0
2	1240	1112.554053744529	1
2	1241	1112.571036816776	0
2	1265	1118.878829895551	1
2	1266	1118.96303394678	0
2	1305	1172.734746872189	1
2	1306	1173.279977982545	0
2	1312	1174.024125521943	1
2	1313	1174.439454618802	0
2	1320	1175.740814316893	1
2	1321	1176.44315090725	0
2	1370	1214.679811139079	1
2	1371	1215.193910698554	0
2	1375	1216.00491474885	1
2	1376	1216.189692816845	0
2	1390	1260.083853404696	1
2	1391	1260.285745606684	0
2	1395	1260.521822063922	1
2	1396	1261.120522355866	0
2	1430	1286.918691895734	1
2	1431	1287.086056505018	0
2	1437	1287.45828718794	1
2	1438	1288.107055440419	0
2	1442	1288.690317037753	1
2	1443	1289.305763358124	0
2	1530	1413.91774284625	1
2	1531	1415.008538539902	0
2	1550	1419.459667142637	1
2	1551	1419.782454099971	0
2	1555	1420.004332442602	1
2	1556	1420.604252631961	0
2	1570	1429.353378100528	1
2	1571	1430.011862867135	0
2	1665	1499.369282343308	1
2	1667	1499.496228180384	2
2	1668	1499.930196434364	1
2	1671	1500.944728452537	0
2	1690	1510.034295465599	1
2	1691	1510.966007619234	0
2	1745	1575.287755316003	1
2	1746	1576.372868644211	0
2	1765	1594.558965893001	1
2	1766	1594.621602780439	0
2	1775	1595.857489724189	1
2	1776	1596.943585560162	0
2	1790	1612.981688905667	1
2	1791	1613.25680378996	0
2	1825	1650.316562499093	1
2	1826	1651.17314393739	0
2	1842	1653.921517559882	1
2	1843	1654.369880887539	0
2	1920	1715.022024976628	1
2	1921	1715.398014371018	0
2	1930	1716.725924188776	1
2	1933	1717.552195964092	0
2	1980	1782.595518534015	1
2	1981	1783.355484189891	0
2	2060	1831.915270940254	1
2	2061	1832.949328240581	0
2	2070	1839.373615191418	1
2	2071	1839.857622470606	0
2	2075	1840.6368290406	1
2	2076	1840.683923003908	0
2	2095	1860.832889055804	1
2	2096	1861.551942097564	0
2	2135	1882.816921951097	1
2	2136	1883.41327638159	0
2	2160	1901.972373609091	1
2	2161	1902.469542353991	0
2	2165	1902.826998925979	1
2	2166	1903.445865230746	0
2	2180	1906.107551195465	1
2	2183	1906.660340515371	0
2	2225	1942.009237403087	1
2	2226	1942.45294272094	0
2	2280	1994.539678033722	1
2	2281	1995.430229587108	0
2	2395	2096.624303717823	1
2	2396	2097.279782171131	0
2	2440	2121.182157896646	1
2	2441	2121.450856275947	0
2	2445	2121.552515938805	1
2	2446	2122.344548895301	0
2	2480	2153.058863317132	1
2	2481	2153.169710001051	0
2	2527	2173.641506796069	1
2	2528	2173.726707569114	0
2	2535	2175.590369257587	1
2	2536	2175.885433755233	0
2	2542	2176.636876993059	1
2	2543	2176.798628190695	0
2	2547	2177.6517873452	1
2	2548	2177.883917677751	0
2	2552	2178.571096920908	1
2	2553	2179.072201680368	0
2	2630	2238.643077075145	1
2	2631	2239.265429364305	0
2	2650	2246.491913093169	1
2	2651	2247.294271025641	0
2	2675	2262.40810408456	1
2	2676	2263.216530613215	0
2	2720	2292.203964748943	1
2	2721	2292.372745330555	0
2	2750	2320.22397478738	1
2	2751	2320.763443328774	0
2	2760	2322.626719966714	1
2	2761	2323.192506550967	0
2	2770	2328.265557666524	1
2	2771	2328.746174922655	0
2	2830	2373.85269711922	1
2	2831	2374.27083560927	0
2	2840	2376.54027133901	1
2	2841	2377.472986448654	0
2	2910	2428.322913561043	1
2	2911	2429.473645862559	0
2	2930	2456.648501722418	1
2	2931	2457.17379175496	0
2	2950	2481.997457099019	1
2	2951	2482.140750749699	0
2	2955	2482.224975019003	1
2	2956	2482.956550802953	0
2	2965	2487.384034546594	1
2	2966	2487.456583202799	0
2	2980	2494.223877521444	1
2	2981	2494.281069770801	0
2	3030	2539.812492346301	1
2	3032	2540.007592733806	2
2	3033	2540.524413210919	1
2	3037	2541.343167817324	2
2	3038	2541.603209625019	1
2	3041	2542.418351812029	0
2	3060	2553.152332222693	1
2	3061	2553.685539884083	0
2	3075	2561.176442789319	1
2	3078	2561.931646580432	0
2	3100	2567.948877234397	1
2	3101	2568.56527100031	0
2	3145	2600.992646506421	1
2	3146	2601.813885474269	0
2	3150	2602.655578697139	1
2	3151	2602.890917119075	0
2	3255	2681.695916512152	1
2	3257	2681.879375592523	2
2	3258	2682.662434011231	1
2	3261	2683.786978570091	0
2	3290	2694.18476501163	1
2	3291	2694.258890188403	0
2	3390	2772.915685769914	1
2	3391	2773.185087710528	0
2	3440	2804.763860336167	1
2	3441	2805.658785106586	0
2	3445	2806.799085445673	1
2	3446	2806.809406882683	0
2	3450	2807.437365226912	1
2	3451	2807.678211559514	0
2	3462	2817.138968951552	1
2	3463	2817.214189341055	0
2	3510	2855.079074219956	1
2	3511	2855.14580183414	0
2	3545	2894.219642720042	1
2	3546	2894.956013343622	0
2	3555	2898.50894220422	1
2	3556	2899.244434529811	0
2	3690	3088.632699662297	1
2	3691	3089.0236879992	0
2	3725	3120.270974823994	1
2	3726	3120.50666254655	0
2	3780	3176.50756972	1
2	3781	3176.847736609235	0
2	3855	3225.53564494716	1
2	3856	3226.275055796974	0
2	3875	3236.464122691705	1
2	3876	3236.821512543716	0
2	3900	3253.699782769719	1
2	3901	3254.348897769166	0
2	3920	3259.471346919087	1
2	3921	3260.195312778221	0
2	3925	3260.245880267093	1
2	3930	3261.332181112783	0
2	3934	3262.096865927096	1
2	3935	3262.438484342711	0
2	3955	3267.771804518351	1
2	3956	3268.450254180565	0
2	4005	3318.845685104564	1
2	4006	3318.904361300393	0
2	4012	3319.224422618472	1
2	4015	3319.958522116802	0
2	4019	3320.663963287919	1
2	4020	3320.885761479604	0
2	4030	3323.515372223196	1
2	4031	3323.738675026166	0
2	4065	3365.743560060484	1
2	4066	3366.177910965225	0
2	4080	3373.777677701748	1
2	4081	3374.43259386336	0
2	4135	3415.548583319513	1
2	4136	3416.392658352089	0
2	4145	3421.22716152869	1
2	4146	3421.766015607712	0
2	4190	3492.577551908853	1
2	4192	3492.600220969547	2
2	4193	3493.295413439555	1
2	4196	3494.197278088165	0
2	4230	3512.582294495592	1
2	4231	3512.92397109064	0
2	4285	3540.238287460996	1
2	4286	3541.290971083362	0
2	4290	3541.309190900446	1
2	4291	3542.394623829499	0
2	4310	3561.838494373055	1
2	4311	3562.475964572971	0
2	4320	3564.252803243516	1
2	4321	3564.366153318381	0
2	4345	3578.565385037804	1
2	4347	3578.607721973357	2
2	4348	3578.990828673826	1
2	4352	3579.293974911872	2
2	4353	3580.131156146438	1
2	4356	3581.199020525166	0
2	4365	3582.469332886905	1
2	4366	3583.00133943698	0
2	4385	3601.869054120986	1
2	4386	3602.651509819153	0
2	4580	3789.460123573894	1
2	4581	3790.340076414242	0
2	4675	3879.066484886415	1
2	4676	3879.182769758897	0
2	4700	3892.987924735258	1
2	4701	3893.741063658285	0
2	4710	3894.833202221	1
2	4712	3894.984403097666	2
2	4715	3895.74785817065	1
2	4719	3896.255786421411	2
2	4720	3896.931789768904	1
2	4724	3896.954270783646	2
2	4725	3897.857306935124	1
2	4728	3898.976789604451	0
2	4732	3899.754165651035	1
2	4733	3899.879630960755	0
2	4742	3901.444198288143	1
2	4743	3901.877324386917	0
2	4750	3902.99882651943	1
2	4751	3904.086458815213	0
2	4780	3935.761783604064	1
2	4781	3936.428926660816	0
2	4812	3952.23215686811	1
2	4813	3952.266073304178	0
2	4960	4127.534679480329	1
2	4961	4128.455614967224	0
2	5055	4226.957558686578	1
2	5056	4227.366642467282	0
2	5080	4249.155324464727	1
2	5081	4250.022212293121	0
2	5290	4454.682451446466	1
2	5291	4455.109755219039	0
2	5337	4474.429490769034	1
2	5338	4474.469713272475	0
2	5345	4476.188509260676	1
2	5346	4476.42930685677	0
2	5350	4476.676504687977	1
2	5351	4477.294370596059	0
2	5380	4498.618691863596	1
2	5381	4499.171806703759	0
2	5395	4501.989286060199	1
2	5397	4502.22499536772	2
2	5398	4502.487752723716	1
2	5401	4503.551966831017	0
2	5430	4555.760784823507	1
2	5431	4556.450651312816	0
2	5440	4557.957051556114	1
2	5441	4558.774469537506	0
2	5500	4607.560482254267	1
2	5501	4608.319560600416	0
2	5535	4634.335840884951	1
2	5536	4635.217987667591	0
2	5570	4661.112994417857	1
2	5571	4661.458970876135	0
2	5625	4696.449864436934	1
2	5626	4696.956910798189	0
2	5635	4700.980746424387	1
2	5636	4701.14901055103	0
2	5660	4752.509151160015	1
2	5661	4753.346088547681	0
2	5670	4754.529552938034	1
2	5671	4755.411346824725	0
2	5730	4835.580502358776	1
2	5732	4836.209268045692	2
2	5733	4836.65334209061	1
2	5736	4837.810492942638	0
2	5740	4837.929531163104	1
2	5741	4838.966871449041	0
2	5785	4893.547404943745	1
2	5786	4893.908198469359	0
2	5860	4973.782156284937	1
2	5861	4974.046713207172	0
2	5870	4989.682819531985	1
2	5871	4990.072471077	0
2	5900	5033.744002317331	1
2	5901	5034.411907357615	0
2	5915	5043.943957321026	1
2	5917	5044.016618090545	2
2	5918	5044.021904507227	1
2	5921	5044.873905469518	0
2	6005	5115.074892434037	1
2	6006	5115.330090771117	0
2	6045	5160.524096371629	1
2	6047	5160.990077661243	2
2	6048	5161.368134648284	1
2	6051	5162.468792753132	0
2	6055	5162.783173632921	1
2	6056	5163.572671079101	0
2	6060	5164.095538891315	1
2	6061	5164.72022602961	0
2	6065	5164.849531478065	1
2	6066	5165.910637274688	0
2	6115	5222.034292973316	1
2	6116	5222.375309306605	0
2	6125	5226.259405925118	1
2	6126	5226.873023974491	0
2	6205	5257.918202933804	1
2	6206	5258.729135100267	0
2	6355	5393.206501724634	1
2	6356	5393.704219124726	0
2	6380	5406.41083052658	1
2	6381	5407.157986431562	0
2	6435	5442.192605709286	1
2	6436	5442.700984747282	0
2	6445	5444.87842469212	1
2	6446	5445.839465575997	0
2	6450	5446.090615816607	1
2	6451	5446.639670642331	0
2	6472	5450.99666250639	1
2	6473	5451.723713857779	0
2	6480	5453.581834829475	1
2	6481	5453.804441432195	0
2	6550	5523.069083924886	1
2	6551	5523.498757031059	0
2	6565	5538.787484130906	1
2	6566	5539.940401621118	0
2	6680	5654.880403006638	1
2	6681	5654.884547318126	0
2	6685	5654.902726260887	1
2	6688	5656.021594395935	0
2	6692	5656.043624044514	1
2	6693	5656.917189803142	0
2	6700	5658.309318485028	1
2	6701	5658.913425313663	0
2	6715	5667.710796027146	1
2	6716	5668.749758164148	0
2	6745	5685.407854423769	1
2	6746	5686.040862196136	0
2	6760	5689.369149007611	1
2	6761	5690.503442718111	0
2	6780	5703.403420787357	1
2	6781	5703.68208685498	0
2	6795	5711.311950229019	1
2	6796	5712.035339411984	0
2	6845	5760.110702722074	1
2	6846	5760.894182857964	0
2	6865	5766.954879969648	1
2	6866	5767.545133626415	0
2	6930	5817.76245324169	1
2	6932	5818.158605475763	2
2	6933	5818.663700443599	1
2	6936	5819.522819422464	0
2	7100	5975.33277127864	1
2	7101	5976.098955827378	0
2	7105	5976.647378490245	1
2	7106	5977.230399240446	0
2	7125	5981.709385383579	1
2	7126	5982.32346091517	0
2	7130	5983.04307359874	1
2	7131	5983.237870064236	0
2	7145	5986.759912294786	1
2	7146	5987.830176590352	0
2	7195	6034.34323400681	1
2	7196	6034.7470980142	0
2	7205	6037.01770587636	1
2	7208	6038.007751697129	0
2	7215	6039.56861363033	1
2	7216	6040.009832658073	0
2	7260	6069.620445249934	1
2	7261	6070.029453063354	0
2	7270	6071.667010099381	1
2	7271	6072.108715502794	0
2	7345	6183.112490892968	1
2	7346	6183.73789370828	0
2	7375	6195.296161308817	1
2	7378	6195.69155785498	0
2	7385	6197.57614118223	1
2	7386	6197.741453295954	0
2	7490	6314.857771471977	1
2	7491	6315.061373041587	0
2	7507	6326.773004594238	1
2	7508	6327.202499365994	0
2	7525	6332.785912502383	1
2	7526	6332.901224710439	0
2	7545	6357.704604018156	1
2	7546	6358.605123518806	0
2	7620	6454.180239012874	1
2	7621	6455.25293543443	0
2	7640	6460.833527187084	1
2	7645	6461.618044915495	0
2	7775	6552.920840012605	1
2	7776	6553.980725898341	0
2	7790	6570.165355467346	1
2	7791	6570.554487418569	0
2	7815	6598.980657242298	1
2	7816	6599.83267186455	0
2	7820	6600.470611866791	1
2	7822	6600.561310250756	2
2	7823	6600.775528607457	1
2	7826	6601.706309366538	0
2	7845	6607.582272316566	1
2	7846	6607.979786300816	0
2	7850	6608.223798979142	1
2	7851	6609.061880364426	0
2	7875	6620.16582669486	1
2	7876	6620.171428418127	0
2	7915	6645.723045896968	1
2	7918	6646.373323348305	0
2	7935	6666.472728276891	1
2	7936	6666.725411114723	0
2	7970	6718.425837627729	1
2	7971	6718.921970247655	0
2	8035	6757.623250905042	1
2	8037	6757.871381245793	2
2	8038	6757.966152496979	1
2	8041	6758.973958809644	0
2	8120	6795.263655404603	1
2	8121	6795.841040875919	0
2	8125	6796.731217998282	1
2	8126	6796.761363141581	0
2	8185	6875.231093843337	1
2	8186	6875.355589983714	0
2	8225	6906.51622590268	1
2	8226	6906.737706273844	0
2	8230	6906.832215132134	1
2	8233	6907.614275471543	0
2	8250	6915.223318206668	1
2	8251	6915.247434311515	0
2	8270	6920.929371928146	1
2	8271	6921.644342329965	0
2	8275	6921.990256653359	1
2	8278	6922.817213849497	0
2	8325	6950.344083848152	1
2	8327	6950.546122738731	2
2	8328	6950.934690910433	1
2	8331	6952.132601678879	0
2	8335	6952.28058547155	1
2	8336	6953.078852220667	0
2	8385	6992.509779503704	1
2	8386	6993.541763125031	0
2	8400	7000.238109186811	1
2	8401	7000.475988597535	0
2	8405	7001.180337614076	1
2	8406	7001.652271361761	0
2	8455	7041.488481280548	1
2	8456	7042.446179903531	0
2	8525	7104.988602920645	1
2	8526	7105.175833889773	0
2	8595	7174.944225947977	1
2	8596	7175.658757762373	0
2	8630	7192.783303613192	1
2	8631	7193.852740388865	0
2	8655	7204.117942700584	1
2	8656	7204.352589898234	0
2	8690	7212.96922549991	1
2	8692	7213.123569965372	2
2	8694	7213.491746876122	3
2	8695	7213.722490165323	2
2	8698	7214.908701181259	1
2	8701	7215.961144790646	0
2	8740	7266.072446899335	1
2	8741	7266.753469098442	0
2	8755	7272.322475090787	1
2	8756	7272.71568187075	0
2	8840	7381.674435309314	1
2	8841	7382.004689459868	0
2	8940	7466.549114472498	1
2	8941	7466.745091687774	0
2	8975	7508.842075490764	1
2	8976	7508.877962096617	0
2	8995	7520.769833943446	1
2	8996	7521.113954944763	0
2	9115	7635.680534891958	1
2	9116	7636.031223959236	0
2	9170	7673.617009446337	1
2	9171	7673.843198151782	0
2	9290	7793.008396314426	1
2	9291	7793.92846169984	0
2	9315	7814.692801347812	1
2	9316	7815.454215493166	0
2	9325	7816.93808558217	1
2	9326	7817.571854622589	0
2	9340	7822.831601512206	1
2	9341	7823.929981135175	0
2	9360	7837.839577240478	1
2	9361	7838.236754796439	0
2	9385	7856.307304650376	1
2	9386	7857.059199477479	0
2	9440	7892.989133192367	1
2	9441	7893.286132138618	0
2	9450	7898.238704360188	1
2	9451	7898.404607165898	0
2	9465	7906.10638915797	1
2	9469	7906.552481247822	2
2	9470	7906.987019382874	1
2	9473	7907.988138769931	0
2	9510	7936.18760480614	1
2	9511	7937.282688858267	0
2	9575	8024.899851518978	1
2	9576	8025.845248000662	0
2	9650	8098.704723130424	1
2	9651	8099.054338096798	0
2	9670	8112.297381687387	1
2	9671	8112.507356112106	0
2	9710	8137.636079098135	1
2	9711	8137.660804602905	0
2	9715	8138.388002950369	1
2	9716	8138.805370680644	0
2	9735	8154.631942855851	1
2	9736	8155.090799118625	0
2	9755	8166.734688674565	1
2	9756	8167.598641643047	0
2	9760	8168.457862748657	1
2	9761	8168.645138101492	0
2	9785	8189.87099714887	1
2	9786	8190.252492387083	0
2	9800	8193.331063452989	1
2	9803	8193.632383151942	0
2	9845	8219.301214159887	1
2	9846	8219.598959291012	0
2	9877	8244.936282394371	1
2	9879	8245.002728594803	2
2	9880	8245.497021584917	1
2	9883	8246.690465768851	0
2	9887	8247.210955939736	1
2	9888	8247.779095963534	0
2	9895	8249.191903609265	1
2	9896	8249.969610884558	0
2	9910	8253.557723240879	1
2	9911	8253.867021219301	0
2	10035	8380.936345291375	1
2	10036	8381.285923671569	0
2	10055	8390.112440991557	1
2	10056	8390.646587496441	0
2	10070	8401.116667501646	1
2	10071	8402.173250310406	0
2	10100	8424.972342848126	1
2	10102	8425.036708874358	2
2	10103	8425.336251021897	1
2	10106	8426.154840158647	0
2	10130	8465.84855240359	1
2	10132	8465.9667980541	2
2	10133	8465.996973761588	1
2	10136	8467.005793128673	0
2	10205	8563.72755437427	1
2	10206	8564.398186673188	0
2	10235	8598.224232277054	1
2	10236	8598.846536835103	0
2	10275	8621.619193222761	1
2	10278	8622.425479743333	0
2	10285	8623.50648526274	1
2	10286	8624.080660932214	0
2	10340	8658.029320797277	1
2	10342	8658.379423122487	2
2	10343	8658.510048921314	1
2	10346	8659.49675680101	0
2	10372	8676.321214581163	1
2	10373	8676.991915618083	0
2	10480	8776.591844629948	1
2	10481	8777.136446736142	0
2	10490	8788.908213877169	1
2	10493	8789.524548459036	0
2	10575	8867.363454486317	1
2	10576	8867.365701301244	0
2	10630	8923.744170043879	1
2	10631	8924.079515753156	0
2	10647	8938.847442518266	1
2	10648	8939.406728432345	0
2	10685	8979.830726340713	1
2	10686	8980.486389577535	0
2	10720	9014.882828289969	1
2	10721	9015.121393592405	0
2	10745	9039.857993348176	1
2	10746	9039.938532236744	0
2	10767	9047.083315637771	1
2	10768	9047.673696054477	0
2	10800	9095.635295495892	1
2	10801	9096.040292127638	0
2	10810	9097.912763474203	1
2	10813	9098.819035148903	0
2	10855	9163.77668136805	1
2	10856	9164.552190896154	0
2	10880	9182.475938907433	1
2	10881	9182.823063224642	0
2	10910	9204.758366586942	1
2	10911	9205.403167742409	0
2	10940	9227.972232899947	1
2	10941	9228.350484441135	0
2	10945	9229.210900510855	1
2	10946	9229.326215254802	0
2	10990	9261.104737453877	1
2	10991	9261.682714492171	0
2	10995	9261.866827886636	1
2	10996	9262.515420644446	0
2	11005	9264.923405638936	1
2	11006	9265.37242218251	0
2	11055	9323.607244469518	1
2	11056	9324.246708604729	0
2	11060	9325.028871828888	1
2	11061	9325.117999170291	0
2	11095	9373.055180352436	1
2	11096	9373.257819277144	0
2	11100	9373.905224929637	1
2	11101	9374.069506693448	0
2	11105	9374.527690895067	1
2	11106	9375.059119458499	0
2	11110	9375.637606323451	1
2	11111	9376.224482176921	0
2	11225	9490.114536467044	1
2	11226	9490.797849586516	0
2	11230	9491.258343594882	1
2	11233	9491.947846792548	0
2	11237	9492.048175741238	1
2	11238	9492.914268713447	0
2	11340	9592.622393771543	1
2	11341	9593.380318198439	0
2	11410	9637.385480165043	1
2	11411	9637.793868456965	0
2	11490	9735.765099390358	1
2	11491	9736.606335233141	0
2	11545	9782.839371175481	1
2	11549	9783.057946806021	2
2	11550	9783.249142605044	1
2	11553	9784.395824420616	0
2	11590	9809.891059635752	1
2	11591	9810.625776203524	0
2	11605	9815.979584049416	1
2	11606	9816.487188305386	0
2	11680	9876.60036033614	1
2	11681	9877.489020406433	0
2	11695	9894.001951588401	1
2	11696	9894.231460388526	0
2	11735	9921.535137178191	1
2	11737	9921.92569519617	2
2	11738	9922.074593817468	1
2	11741	9923.080626643009	0
2	11805	9977.50681996011	1
2	11806	9977.824576081498	0
2	11965	10081.042022380831	1
2	11966	10081.265670764278	0
2	11995	10107.656428782179	1
2	11996	10107.910393481664	0
2	12002	10108.625956369393	1
2	12004	10108.632248302277	2
2	12005	10108.948269568719	1
2	12008	10109.766040552743	0
2	12012	10110.376992815777	1
2	12013	10110.571651040819	0
2	12022	10112.529646114308	1
2	12024	10112.566340851772	2
2	12025	10112.750483589397	1
2	12031	10113.772394802412	2
2	12032	10113.816738344972	1
2	12035	10114.755660107137	0
2	12080	10174.632206203101	1
2	12081	10175.592302948499	0
2	12120	10256.157564375031	1
2	12121	10256.928299730165	0
2	12190	10290.20722409876	1
2	12191	10290.894532673562	0
2	12220	10314.115410971148	1
2	12221	10314.846800234474	0
2	12235	10318.620305024285	1
2	12236	10319.452784553301	0
2	12270	10341.453509550133	1
2	12271	10341.453596175984	0
2	12275	10341.692087416027	1
2	12276	10342.494732981511	0
2	12287	10344.034438749779	1
2	12288	10344.32062829394	0
2	12297	10345.726447502496	1
2	12298	10346.35454368122	0
2	12320	10357.748544723879	1
2	12321	10358.030144117166	0
2	12325	10358.850153079393	1
2	12326	10358.879811616753	0
2	12395	10412.4886002055	1
2	12396	10412.564749399598	0
2	12450	10466.814784342373	1
2	12451	10467.630993226612	0
2	12495	10487.888185456353	1
2	12496	10488.494415336036	0
2	12560	10571.886649920041	1
2	12561	10572.93641946196	0
2	12580	10579.047698898441	1
2	12581	10580.04678040001	0
2	12585	10580.516747527646	1
2	12586	10581.237864400758	0
2	12590	10581.731969426886	1
2	12591	10582.068440908878	0
2	12595	10582.365086670936	1
2	12596	10583.159526031869	0
2	12600	10583.440926450217	1
2	12601	10584.049721654816	0
2	12640	10635.403351926367	1
2	12641	10635.761762163341	0
2	12652	10638.448160336246	1
2	12655	10638.561219326052	0
2	12740	10696.549577529765	1
2	12741	10696.660079188889	0
2	12750	10698.336582993716	1
2	12751	10699.04466867055	0
2	12755	10699.723236943857	1
2	12756	10699.901975848518	0
2	12760	10700.042113331476	1
2	12761	10700.978721226372	0
2	12765	10701.638982179366	1
2	12766	10702.101225125503	0
2	12825	10750.637577603541	1
2	12826	10751.65094475481	0
2	12850	10765.743846077966	1
2	12851	10766.197475030024	0
2	12855	10766.291369467738	1
2	12856	10767.191358932883	0
2	12880	10781.35352013099	1
2	12881	10781.873545122959	0
2	12930	10847.989651567473	1
2	12931	10848.218346015872	0
2	13065	11007.748982156598	1
2	13066	11008.095653358314	0
2	13105	11032.969030158579	1
2	13106	11033.000029719401	0
2	13125	11038.239299795632	1
2	13128	11038.483618267284	0
2	13135	11039.820632000011	1
2	13136	11040.550463326399	0
2	13150	11042.669928969008	1
2	13151	11043.480216060631	0
2	13180	11050.077532441985	1
2	13181	11050.603239878724	0
2	13195	11058.079825421334	1
2	13198	11058.489834814782	0
2	13205	11059.818116328278	1
2	13206	11060.479771680089	0
2	13210	11060.829204266572	1
2	13211	11061.279860242347	0
2	13225	11066.361618676374	1
2	13226	11067.010878317917	0
2	13240	11073.309263678218	1
2	13241	11073.357531734521	0
2	13255	11086.97123116355	1
2	13256	11086.990673211705	0
2	13260	11087.01624578578	1
2	13261	11087.953663427498	0
2	13265	11088.436820087445	1
2	13268	11089.119202128354	0
2	13280	11098.724711480146	1
2	13281	11098.882924455196	0
2	13305	11117.743024182862	1
2	13307	11117.760824901213	2
2	13308	11118.481354461255	1
2	13311	11119.371301598305	0
2	13380	11182.545849529913	1
2	13381	11183.266237391507	0
2	13410	11202.919729771254	1
2	13411	11203.01170677912	0
2	13420	11210.903575604959	1
2	13421	11210.953352631506	0
2	13485	11293.161280146607	1
2	13486	11293.902304719393	0
2	13560	11356.287774476319	1
2	13561	11356.912739649679	0
2	13690	11471.00277023386	1
2	13691	11471.587978262853	0
2	13710	11480.578866243258	1
2	13712	11480.845469822142	2
2	13713	11481.514913278739	1
2	13718	11482.505034382935	0
2	13722	11483.385360044397	1
2	13723	11483.51779206201	0
2	13740	11487.222307081059	1
2	13741	11487.558832962247	0
2	13770	11524.889062058666	1
2	13771	11525.085514213121	0
2	13805	11542.194038430161	1
2	13806	11542.574596452473	0
2	13907	11634.085953959288	1
2	13908	11634.248748617006	0
2	14010	11743.407345069898	1
2	14013	11744.158457179964	0
2	14070	11781.206929332495	1
2	14071	11781.926539080534	0
2	14080	11786.319541687627	1
2	14081	11787.374950112158	0
2	14085	11788.374832720648	1
2	14086	11788.380630634667	0
2	14090	11788.403574900109	1
2	14091	11789.435228314099	0
2	14135	11816.20166061875	1
2	14138	11817.136854878818	0
2	14150	11820.310520749229	1
2	14151	11820.477434379143	0
2	14165	11829.949996232604	1
2	14166	11830.597451279365	0
2	14210	11856.157637185244	1
2	14211	11856.914199629292	0
2	14220	11863.216261046137	1
2	14223	11863.427401623039	0
2	14257	11876.75793511751	1
2	14258	11877.147005903878	0
2	14270	11892.007745628575	1
2	14271	11892.380716530705	0
2	14295	11905.480493969627	1
2	14296	11906.083683896304	0
2	14300	11906.712111296718	1
2	14301	11907.077695955296	0
2	14305	11907.343996482369	1
2	14307	11907.954704773838	2
2	14308	11908.198681410362	1
2	14312	11908.820033963574	2
2	14313	11909.366123934702	1
2	14317	11910.040067921511	2
2	14318	11910.327478501347	1
2	14323	11911.333406784997	0
2	14420	12001.543227901864	1
2	14421	12001.915074466278	0
2	14425	12001.979387600701	1
2	14426	12002.763348688574	0
2	14530	12069.583777458	1
2	14531	12070.409826655146	0
2	14535	12070.527021677165	1
2	14536	12071.267323466689	0
2	14550	12085.00076673253	1
2	14551	12085.522203208466	0
2	14620	12152.419225154772	1
2	14621	12153.206409521513	0
2	14690	12217.962179226373	1
2	14691	12218.234173872295	0
2	14710	12229.223086660376	1
2	14711	12230.292709724456	0
2	14715	12230.890612777552	1
2	14716	12231.363518517408	0
2	14840	12344.302039155411	1
2	14842	12344.787527537543	2
2	14843	12345.18595385949	1
2	14846	12346.209049323172	0
2	14920	12413.922485794202	1
2	14923	12414.846158822677	0
2	14927	12415.288590355809	1
2	14929	12415.427964509584	2
2	14930	12415.697789285756	1
2	14933	12416.811253190651	0
2	14937	12417.00917024778	1
2	14938	12417.677068247884	0
2	14980	12448.196934887444	1
2	14981	12448.988268881944	0
2	15020	12492.153891005494	1
2	15021	12492.641854488839	0
2	15105	12568.85942663188	1
2	15106	12569.49064112021	0
2	15160	12614.073007005251	1
2	15161	12614.534928727721	0
2	15255	12719.92388823943	1
2	15256	12720.130075918985	0
2	15270	12727.400085030119	1
2	15271	12728.228435144087	0
2	15280	12730.136423929363	1
2	15281	12730.247707448134	0
2	15305	12740.271861421875	1
2	15306	12740.929463600563	0
2	15370	12775.661634526812	1
2	15372	12775.822822783214	2
2	15373	12776.442483155971	1
2	15376	12777.349960155023	0
2	15380	12778.285320500275	1
2	15381	12778.312425410358	0
2	15395	12809.347018082907	1
2	15396	12809.357963954935	0
2	15410	12814.001459209769	1
2	15411	12814.122544083367	0
2	15510	12875.915943523481	1
2	15511	12876.614477841177	0
2	15530	12886.863095946917	1
2	15531	12887.595777623628	0
2	15550	12894.41318125879	1
2	15551	12894.732832261278	0
2	15565	12923.48824712462	1
2	15566	12924.006431400248	0
2	15600	12935.564129559227	1
2	15601	12936.276893547021	0
2	15635	12955.737866031865	1
2	15637	12956.096072631797	2
2	15638	12956.702245484551	1
2	15641	12957.62414991006	0
2	15680	12996.279973695967	1
2	15681	12996.519558620439	0
2	15690	13004.712974358064	1
2	15692	13005.577439741866	2
2	15693	13005.656219392578	1
2	15696	13006.564546707208	0
2	15715	13013.654351353906	1
2	15716	13014.236933642174	0
2	15780	13071.939921408704	1
2	15781	13072.085635764888	0
2	15800	13086.557707903838	1
2	15801	13086.690560304759	0
2	15805	13087.728087361019	1
2	15806	13087.849689113548	0
2	15815	13089.28424031341	1
2	15816	13089.704417947507	0
2	15925	13184.991632057457	1
2	15926	13185.144299391241	0
2	16030	13246.556018318948	1
2	16032	13246.668440250689	2
2	16034	13247.150508548369	3
2	16035	13247.326012834621	2
2	16038	13248.194962574256	1
2	16041	13249.157503239059	0
2	16045	13249.791295020883	1
2	16048	13250.14823741698	0
2	16115	13299.851054464594	1
2	16116	13300.57006357264	0
2	16140	13318.487717452039	1
2	16141	13319.115796819	0
2	16205	13383.799887598651	1
2	16206	13384.667052010122	0
2	16220	13388.736779877531	1
2	16221	13389.048407572871	0
2	16235	13392.979915310328	1
2	16236	13393.938739098259	0
2	16240	13393.970241599199	1
2	16241	13395.111369449575	0
2	16320	13469.406239843406	1
2	16321	13470.275348085302	0
2	16385	13534.674945205749	1
2	16387	13534.90182903127	2
2	16388	13535.607552001931	1
2	16393	13536.701461644963	0
2	16425	13551.447127080909	1
2	16426	13551.806003903023	0
2	16455	13566.629369682143	1
2	16456	13566.781093175542	0
2	16490	13584.43301975611	1
2	16491	13584.97999350935	0
2	16500	13608.019324204167	1
2	16501	13608.330789370041	0
2	16510	13610.069437477646	1
2	16511	13610.170506156746	0
2	16520	13611.470570195835	1
2	16521	13612.389345178113	0
2	16610	13684.321835140182	1
2	16611	13684.590266319385	0
2	16620	13694.701416331379	1
2	16621	13695.660722018331	0
2	16635	13700.679676041357	1
2	16640	13701.593876614178	0
2	16650	13703.554428833861	1
2	16651	13704.40558202736	0
2	16660	13707.060033232919	1
2	16661	13707.683902515335	0
2	16730	13758.74270564828	1
2	16731	13759.31217910385	0
2	16745	13765.143281247807	1
2	16746	13765.156436211338	0
2	16870	13881.418507879869	1
2	16871	13881.566159372941	0
2	16890	13888.379870492227	1
2	16891	13888.398699681654	0
2	16902	13891.141662981144	1
2	16904	13891.270702404066	2
2	16905	13891.402890424175	1
2	16908	13892.273615173461	0
2	16915	13893.76240098017	1
2	16917	13893.890345178374	2
2	16918	13894.511000010395	1
2	16921	13895.593017171999	0
2	16925	13895.992020036912	1
2	16927	13896.392909316259	2
2	16928	13896.55431006339	1
2	16932	13896.778030203418	2
2	16933	13897.700898604864	1
2	16936	13898.605083987513	0
2	16945	13900.705413816088	1
2	16946	13901.62964902599	0
2	16980	13930.583064187539	1
2	16981	13930.696407460556	0
2	16985	13930.752144225176	1
2	16986	13931.659858497553	0
2	17025	13961.95247569967	1
2	17026	13962.27019870454	0
2	17110	14017.214868324141	1
2	17111	14017.493811933357	0
2	17165	14058.537883507797	1
2	17166	14058.848771482806	0
2	17190	14080.122491257387	1
2	17191	14081.056822366113	0
2	17215	14088.949474306915	1
2	17216	14089.784864500306	0
2	17220	14090.066304721651	1
2	17221	14090.906479457721	0
2	17225	14091.152655975014	1
2	17226	14091.877037273116	0
2	17350	14229.072049583781	1
2	17351	14229.104022636733	0
2	17420	14280.850679084991	1
2	17421	14281.307612025129	0
2	17475	14343.323436339215	1
2	17476	14343.465594665892	0
2	17480	14343.509417389309	1
2	17481	14344.560389687027	0
2	17500	14352.186622774948	1
2	17501	14353.32032925178	0
2	17520	14360.193561776229	1
2	17521	14360.682297261648	0
2	17527	14361.587435121689	1
2	17528	14361.633502073709	0
2	17535	14362.929771235339	1
2	17536	14363.488094792824	0
2	17550	14371.407758250568	1
2	17551	14372.141909361204	0
2	17630	14422.046222186743	1
2	17631	14422.764681262824	0
2	17645	14433.541246571461	1
2	17646	14434.287653666978	0
2	17660	14439.038663562213	1
2	17661	14439.862813501838	0
2	17720	14514.845942277544	1
2	17721	14515.714919127403	0
2	17795	14587.90749787133	1
2	17796	14588.745160033171	0
2	17800	14589.338332744108	1
2	17801	14589.936762870186	0
2	17895	14687.915241743613	1
2	17896	14688.515193731628	0
2	17915	14697.954991702251	1
2	17916	14698.12074726168	0
2	17965	14735.694850743804	1
2	17966	14735.831583289703	0
2	17970	14735.973755728108	1
2	17973	14736.995611069625	0
2	18055	14800.413808049336	1
2	18058	14801.030299374236	0
2	18065	14802.219306938626	1
2	18066	14802.933051270022	0
2	18075	14812.67838909939	1
2	18076	14812.910198463233	0
2	18080	14813.421641563553	1
2	18081	14813.922125989118	0
2	18090	14815.869457567584	1
2	18091	14816.457184168872	0
2	18095	14816.801945660435	1
2	18096	14817.467172368698	0
2	18130	14846.332863602301	1
2	18131	14847.321742570015	0
2	18155	14857.323729627424	1
2	18156	14857.834566135612	0
2	18190	14882.298344942461	1
2	18191	14882.36281796531	0
2	18275	14984.22030643935	1
2	18276	14984.871652957704	0
2	18305	14996.636891949496	1
2	18306	14997.477887346814	0
2	18325	15017.330160887435	1
2	18326	15018.154605680099	0
2	18395	15087.284882312562	1
2	18396	15087.8922309169	0
2	18530	15199.285069827605	1
2	18531	15199.705020329442	0
2	18625	15289.233957874322	1
2	18626	15290.052442370634	0
2	18630	15290.568160064906	1
2	18631	15290.959784518275	0
2	18645	15298.933273562587	1
2	18646	15299.620977492431	0
2	18660	15307.22010472682	1
2	18661	15307.763114678722	0
2	18665	15308.079561251585	1
2	18666	15308.917077023957	0
2	18685	15313.86845116401	1
2	18686	15314.230894862252	0
2	18695	15317.102881088045	1
2	18696	15317.31380883914	0
2	18735	15337.409336446845	1
2	18736	15338.441822415554	0
2	18770	15357.988133949406	1
2	18771	15358.589633561922	0
2	18800	15366.184208485169	1
2	18801	15366.847736343032	0
2	18810	15370.313483830732	1
2	18811	15370.985736910404	0
2	18835	15397.537714777765	1
2	18836	15398.266385707969	0
2	18865	15419.223833662471	1
2	18867	15419.830713614916	2
2	18868	15420.010746164736	1
2	18871	15420.844351176009	0
2	18875	15421.30679095936	1
2	18876	15421.823354753968	0
2	18935	15452.806607082179	1
2	18936	15453.137990217718	0
2	18955	15464.191661109962	1
2	18958	15464.925108868162	0
2	18995	15489.379186179972	1
2	18996	15489.804756802261	0
2	19015	15512.291734026993	1
2	19016	15512.338690313186	0
2	19080	15568.367628361272	1
2	19081	15568.535835502688	0
2	19085	15569.364473217834	1
2	19088	15569.477117275745	0
2	19092	15569.975273351699	1
2	19093	15570.62096971415	0
2	19100	15572.069226394419	1
2	19101	15572.574187140093	0
2	19120	15585.242709011189	1
2	19121	15586.110672691041	0
2	19125	15586.444317171568	1
2	19126	15587.192966016238	0
2	19175	15638.69228273567	1
2	19176	15639.349655628696	0
2	19185	15640.440681036853	1
2	19187	15640.974669855013	2
2	19188	15641.523327262139	1
2	19194	15642.172111901693	2
2	19195	15642.705683160013	1
2	19198	15643.833397770485	0
2	19202	15644.012050154056	1
2	19203	15644.932534733692	0
2	19207	15644.963324117083	1
2	19208	15646.015548445003	0
2	19290	15699.459422471698	1
2	19291	15700.432588566371	0
2	19315	15719.729080776523	1
2	19316	15720.047516535899	0
2	19355	15758.61612183095	1
2	19356	15758.719790695684	0
2	19415	15810.587237516618	1
2	19416	15811.034588708156	0
2	19435	15824.609449754113	1
2	19436	15824.731984982471	0
2	19440	15824.829523335945	1
2	19441	15825.927769077308	0
2	19445	15826.084822399766	1
2	19446	15827.124734019041	0
2	19450	15827.642330268939	1
2	19451	15828.028245222215	0
2	19465	15832.070594474171	1
2	19466	15832.68528249011	0
2	19525	15890.123273349335	1
2	19528	15891.134038677407	0
2	19532	15891.583810654554	1
2	19533	15891.98477427146	0
2	19540	15893.215037388584	1
2	19541	15893.977030494033	0
2	19550	15895.426721819609	1
2	19551	15896.249834583578	0
2	19572	15916.678554691284	1
2	19573	15916.86952267162	0
2	19585	15919.311074146435	1
2	19586	15919.701127521082	0
2	19640	15955.866780598434	1
2	19641	15956.479042754793	0
2	19660	15976.77891373427	1
2	19661	15977.161307171013	0
2	19680	15996.15022616907	1
2	19681	15996.747281615712	0
2	19705	16021.298090651826	1
2	19706	16022.029145757877	0
2	19715	16023.879681037292	1
2	19716	16024.962020469155	0
2	19760	16066.158694295166	1
2	19761	16067.289598306008	0
2	19790	16099.798071977858	1
2	19791	16100.372971996239	0
2	19810	16121.043510002574	1
2	19811	16121.290801545847	0
2	19815	16121.827868020232	1
2	19816	16122.173245265204	0
2	19837	16138.254377036788	1
2	19838	16138.268384889236	0
2	19885	16174.703344850368	1
2	19886	16175.09494850272	0
2	19975	16279.284761459196	1
2	19976	16280.013733527068	0
2	19995	16287.038378247789	1
2	19996	16287.804581100755	0
2	20005	16288.958716824837	1
2	20006	16290.0263634458	0
2	20100	16348.093020287251	1
2	20101	16348.532591096573	0
2	20140	16388.62447803458	1
2	20141	16388.893972005812	0
2	20210	16456.296413455888	1
2	20211	16456.785362995932	0
2	20230	16468.547241139081	1
2	20231	16469.342626812553	0
2	20280	16517.38982754096	1
2	20281	16517.946238165001	0
2	20350	16603.545218395098	1
2	20351	16604.1445235748	0
2	20355	16605.288338146513	1
2	20356	16605.343216506128	0
2	20365	16606.564465917901	1
2	20366	16607.214536294543	0
2	20440	16688.678790974475	1
2	20441	16688.752814896667	0
2	20445	16688.829094983089	1
2	20448	16689.825865093508	0
2	20530	16773.366766876044	1
2	20531	16773.465818967614	0
2	20565	16795.05928181684	1
2	20566	16795.127277456037	0
2	20645	16880.468222130708	1
2	20646	16880.96687499142	0
2	20675	16903.998429661811	1
2	20676	16904.488407299261	0
2	20785	16972.741578577525	1
2	20788	16973.208794748117	0
2	20830	16994.854113844472	1
2	20831	16995.404148203983	0
2	20842	16997.198517704459	1
2	20843	16997.440922111655	0
2	20902	17027.565630629512	1
2	20903	17027.598819375404	0
2	20930	17033.905043090259	1
2	20931	17034.600632724487	0
2	20950	17055.236188491763	1
2	20951	17055.355909740609	0
2	20970	17068.332703300865	1
2	20971	17069.278206478692	0
2	21155	17243.06392793146	1
2	21156	17243.967635542374	0
2	21160	17244.149455482691	1
2	21161	17245.032770613894	0
2	21225	17284.727971221255	1
2	21226	17285.395175107458	0
2	21235	17287.007776997852	1
2	21236	17287.319633124939	0
2	21275	17342.699464788089	1
2	21276	17343.037570375025	0
2	21280	17343.874865252938	1
2	21281	17344.23743732861	0
2	21325	17379.846901356279	1
2	21326	17380.121344277487	0
2	21335	17384.648511218201	1
2	21336	17385.019417351547	0
2	21400	17446.3380358445	1
2	21401	17446.547379869291	0
2	21415	17452.094142110141	1
2	21416	17452.246204790362	0
2	21430	17467.610345122377	1
2	21431	17468.095803128915	0
2	21460	17484.166840467092	1
2	21461	17485.147095407401	0
2	21470	17488.310457093719	1
2	21471	17489.074303799402	0
2	21495	17518.780400513115	1
2	21496	17519.454376080019	0
2	21530	17542.434278602904	1
2	21531	17543.09996068127	0
2	21550	17565.234516759553	1
2	21551	17565.696793532638	0
2	21610	17599.516902644177	1
2	21611	17600.251170122267	0
2	21615	17601.168881856035	1
2	21616	17601.18655046012	0
2	21685	17664.499622214196	1
2	21686	17665.417849036996	0
2	21765	17752.009425847116	1
2	21766	17753.069619184396	0
2	21770	17753.087410791314	1
2	21772	17753.802963228349	2
2	21773	17754.120894745587	1
2	21776	17755.254461964069	0
2	21860	17854.329363616525	1
2	21861	17855.251612611161	0
2	22065	18022.221581515812	1
2	22066	18023.157156569774	0
2	22070	18023.484118874413	1
2	22071	18024.020026370122	0
2	22090	18038.933193597222	1
2	22092	18039.590591310926	2
2	22093	18039.723374083453	1
2	22096	18040.801207311639	0
2	22100	18041.107861183911	1
2	22101	18041.982376374958	0
2	22110	18044.498767408678	1
2	22111	18044.570813863318	0
2	22130	18058.329631438346	1
2	22131	18058.876877865892	0
2	22180	18096.280702433927	1
2	22181	18096.788652380207	0
2	22235	18132.293810305606	1
2	22236	18133.05081140003	0
2	22245	18134.87091913727	1
2	22246	18135.404269937696	0
2	22300	18166.671214700414	1
2	22305	18167.215750231508	0
2	22309	18167.502898340498	1
2	22310	18168.116099292327	0
2	22320	18171.072144439604	1
2	22321	18171.210185126783	0
2	22330	18173.5223470628	1
2	22331	18173.896011385731	0
2	22360	18196.234891390477	1
2	22361	18196.441524424405	0
2	22505	18309.865324239596	1
2	22507	18310.069370544722	2
2	22508	18310.571864461838	1
2	22511	18311.670735672055	0
2	22525	18316.730149420866	1
2	22526	18317.113738731557	0
2	22545	18319.931543519049	1
2	22550	18320.747545355355	0
2	22605	18374.70794301482	1
2	22606	18375.078331359629	0
2	22665	18422.990294248099	1
2	22666	18424.093398567258	0
2	22735	18470.38516484953	1
2	22736	18470.696040469342	0
2	22815	18540.418339399438	1
2	22816	18541.488924254545	0
2	22890	18617.135182459772	1
2	22891	18617.197048006508	0
2	22945	18680.297129748189	1
2	22947	18680.403082011976	2
2	22948	18680.727140117141	1
2	22951	18681.538991191129	0
2	22962	18683.176011212341	1
2	22965	18683.987962144007	0
2	22980	18687.227969941873	1
2	22981	18688.363028394942	0
2	23005	18694.067595999631	1
2	23006	18694.792620967264	0
2	23040	18723.649724945294	1
2	23041	18724.228358325853	0
2	23070	18741.560268617855	1
2	23071	18741.788856124924	0
2	23085	18748.303310138674	1
2	23086	18749.391160948579	0
2	23095	18751.551532385649	1
2	23096	18752.174487229307	0
2	23160	18809.367564643818	1
2	23161	18809.598335140486	0
2	23170	18814.475213756437	1
2	23171	18814.70349313319	0
2	23300	18926.903033047278	1
2	23303	18927.330163262851	0
2	23307	18927.540031175814	1
2	23308	18928.503134071055	0
2	23320	18930.893154400261	1
2	23321	18931.704602094992	0
2	23330	18933.811182786139	1
2	23332	18934.041769720523	2
2	23334	18934.145041429594	3
2	23336	18934.25099610009	4
2	23337	18934.308312823845	3
2	23340	18935.419704784023	2
2	23343	18936.23212063074	1
2	23348	18937.341919768545	0
2	23352	18937.442770505004	1
2	23354	18937.674396558352	2
2	23355	18938.345520912706	1
2	23358	18939.264497275128	0
2	23420	18955.898429155551	1
2	23421	18956.502443139074	0
2	23480	18995.541682605265	1
2	23483	18996.182343235057	0
2	23525	19017.729147193728	1
2	23526	19018.585664375848	0
2	23530	19019.086120092155	1
2	23531	19019.463614159613	0
2	23545	19024.539774087361	1
2	23546	19025.054120284587	0
2	23625	19106.493279166039	1
2	23626	19106.890517049187	0
2	23670	19146.439644237163	1
2	23671	19147.248181887251	0
2	23710	19184.255585959496	1
2	23711	19184.510714968593	0
2	23805	19307.179819631035	1
2	23806	19307.338122909345	0
2	23820	19310.34130128723	1
2	23821	19310.928119156672	0
2	23825	19311.519875639944	1
2	23826	19311.756808255775	0
2	23830	19312.4429077706	1
2	23831	19312.782354045542	0
2	23835	19313.110542386022	1
2	23836	19313.591889787814	0
2	23857	19324.153839395119	1
2	23858	19324.460145937016	0
2	23862	19324.620180846246	1
2	23863	19325.336685927508	0
2	24005	19437.362504370428	1
2	24006	19437.517901032017	0
2	24010	19437.605472404179	1
2	24013	19438.469310382539	0
2	24025	19441.039265294074	1
2	24026	19441.674666952872	0
2	24035	19452.975638118661	1
2	24036	19453.134128729562	0
2	24190	19600.752863241602	1
2	24191	19601.481405627776	0
2	24365	19734.71465576831	1
2	24366	19735.294338291444	0
2	24370	19735.343994279389	1
2	24371	19736.249600150928	0
2	24380	19738.865843781481	1
2	24381	19738.878765893329	0
2	24395	19757.162951306004	1
2	24396	19757.765940737979	0
2	24515	19873.49327351478	1
2	24517	19873.575473748136	2
2	24519	19873.818601471795	3
2	24520	19874.050454295981	2
2	24525	19875.197649549037	1
2	24529	19875.340161580796	2
2	24530	19876.047728088867	1
2	24534	19876.503305293793	2
2	24535	19876.917642820995	1
2	24539	19877.632503661909	2
2	24540	19878.05286712376	1
2	24543	19879.113889079258	0
2	24547	19879.631706112755	1
2	24548	19880.063768204764	0
2	24560	19883.044265174125	1
2	24561	19883.622268521082	0
2	24570	19884.573873069259	1
2	24571	19885.62226984803	0
2	24585	19897.721549596895	1
2	24586	19898.316799490874	0
2	24647	19958.355748405898	1
2	24648	19958.628309299855	0
2	24660	19961.105681966644	1
2	24661	19961.91988301978	0
2	24705	19982.625782777108	1
2	24708	19983.593292465974	0
2	24720	19987.279038402896	1
2	24721	19987.984572388445	0
2	24745	20005.617340246806	1
2	24746	20006.272075934958	0
2	24750	20006.342200301265	1
2	24753	20007.335552561719	0
2	24765	20009.969536784614	1
2	24766	20010.335828203306	0
2	24795	20040.881810068629	1
2	24796	20041.638455650343	0
2	24825	20056.935442527372	1
2	24826	20057.329398543517	0
2	24875	20113.13101246967	1
2	24876	20113.513126835537	0
2	24900	20132.283846599762	1
2	24902	20132.652370864851	2
2	24903	20133.103936918832	1
2	24908	20134.188882867347	0
2	24970	20196.951656485371	1
2	24971	20197.837210450174	0
2	24980	20198.85273949011	1
2	24981	20199.89877984599	0
2	25010	20228.082549567263	1
2	25011	20228.319407850674	0
2	25015	20228.405148774587	1
2	25016	20229.379445572926	0
2	25055	20270.585245789893	1
2	25056	20270.931637921632	0
2	25090	20309.061188351902	1
2	25091	20309.516510625005	0
2	25115	20337.615954466758	1
2	25116	20337.82910463109	0
2	25145	20366.222804461639	1
2	25146	20366.718395473291	0
2	25170	20378.47108517488	1
2	25171	20378.752379496368	0
2	25180	20380.513873992538	1
2	25181	20381.226660321777	0
2	25185	20382.344386490011	1
2	25186	20382.389264336632	0
2	25210	20393.735539525286	1
2	25212	20394.391009169178	2
2	25213	20394.6918225059	1
2	25216	20395.86311991454	0
2	25225	20398.235179402621	1
2	25226	20398.621349715146	0
2	25325	20476.197446298387	1
2	25326	20476.228789756833	0
2	25380	20536.828992671388	1
2	25381	20537.444072430395	0
2	25385	20537.491942133635	1
2	25386	20538.557231932506	0
2	25420	20578.789384164796	1
2	25423	20579.894549295375	0
2	25435	20587.477803355988	1
2	25436	20587.653731656479	0
2	25465	20623.901730138641	1
2	25466	20624.413100039795	0
2	25500	20652.354881280857	1
2	25501	20652.913495262803	0
2	25505	20653.929265968655	1
2	25506	20653.933181749468	0
2	25525	20685.153706999749	1
2	25526	20685.996769402917	0
2	25550	20706.167803667962	1
2	25551	20706.377117146379	0
2	25605	20767.197270359197	1
2	25606	20767.770506056994	0
2	25650	20795.728551674625	1
2	25651	20796.542836961144	0
2	25665	20799.667948950071	1
2	25666	20800.295943214701	0
2	25670	20800.420418376459	1
2	25672	20800.765291556499	2
2	25673	20801.349225010307	1
2	25676	20802.36206286955	0
2	25705	20820.449768216569	1
2	25706	20820.562053071338	0
2	25715	20829.018204727041	1
2	25716	20830.09982845178	0
2	25765	20868.356491338387	1
2	25766	20869.347067490214	0
2	25790	20887.606078414584	1
2	25791	20887.901833413798	0
2	25870	20946.370655295443	1
2	25871	20946.613773336697	0
2	25935	21018.818191247862	1
2	25936	21019.197492011771	0
2	25945	21023.143675075045	1
2	25946	21023.964156214481	0
2	25985	21056.613344316051	1
2	25986	21056.631638888822	0
2	26065	21170.548536498891	1
2	26066	21170.877433587116	0
2	26095	21206.868770850378	1
2	26096	21206.952899751467	0
2	26115	21228.412467218344	1
2	26116	21229.560368945465	0
2	26127	21234.166082800774	1
2	26130	21234.598043828967	0
2	26170	21259.040496849312	1
2	26171	21259.97270253468	0
2	26370	21404.690613578191	1
2	26371	21404.814935025511	0
2	26395	21432.752815064376	1
2	26396	21433.294061966059	0
2	26400	21434.079228730871	1
2	26401	21434.30855406961	0
2	26425	21442.412092355598	1
2	26426	21443.001778815492	0
2	26455	21469.251200247202	1
2	26456	21470.218063866622	0
2	26490	21509.508470749119	1
2	26491	21510.345589782114	0
2	26500	21511.257635863585	1
2	26501	21511.99455206646	0
2	26515	21533.071131241085	1
2	26516	21533.240136354999	0
2	26560	21569.223114832407	1
2	26562	21569.327945032291	2
2	26563	21569.872871967329	1
2	26567	21570.07323303348	2
2	26568	21570.691992520465	1
2	26572	21570.918525236724	2
2	26573	21571.803279602079	1
2	26576	21572.697259960806	0
2	26580	21573.01053234489	1
2	26581	21573.807669150101	0
2	26630	21631.820386203487	1
2	26631	21632.067190470103	0
2	26635	21632.465590586912	1
2	26636	21633.037134211439	0
2	26700	21685.153595595114	1
2	26701	21685.647797305652	0
2	26717	21696.828166005356	1
2	26718	21697.341576519231	0
2	26770	21729.56607784524	1
2	26773	21730.321032451391	0
2	26820	21759.012129059163	1
2	26821	21759.694874681945	0
2	26845	21778.904896868084	1
2	26846	21779.404950348769	0
2	26880	21807.259052597663	1
2	26881	21807.465694354661	0
2	26895	21809.387189660193	1
2	26896	21810.482236081343	0
2	26940	21877.621859648713	1
2	26942	21877.690055145492	2
2	26943	21878.295503200125	1
2	26946	21879.455730133317	0
2	26955	21881.192292392924	1
2	26956	21881.555448302293	0
2	26970	21904.393073697016	1
2	26971	21904.421427857891	0
2	27005	21927.279137300565	1
2	27006	21927.818399164347	0
2	27145	22070.012823391699	1
2	27146	22070.111924692481	0
2	27165	22076.951553759518	1
2	27167	22077.000209492513	2
2	27168	22077.420925194069	1
2	27171	22078.420476943671	0
2	27180	22079.883995653128	1
2	27181	22080.746561625444	0
2	27285	22178.97123215456	1
2	27286	22179.347702025919	0
2	27312	22193.343872912632	1
2	27313	22193.558188590265	0
2	27335	22202.492003603171	1
2	27336	22203.31946234161	0
2	27355	22222.934599191362	1
2	27356	22223.840814730368	0
2	27365	22226.732225131717	1
2	27366	22226.750120696461	0
2	27370	22226.76019015276	1
2	27371	22227.721140067222	0
2	27380	22231.914010246919	1
2	27381	22232.921830855041	0
2	27430	22272.313475854048	1
2	27433	22273.020044122663	0
2	27450	22279.296459287734	1
2	27451	22280.356351861713	0
2	27480	22294.093888020116	1
2	27481	22294.122214909745	0
2	27495	22299.432593903681	1
2	27496	22300.087502195159	0
2	27515	22320.833149558241	1
2	27516	22321.695217839268	0
2	27540	22332.717405266186	1
2	27541	22333.290054111351	0
2	27585	22425.422863742147	1
2	27586	22425.86016038695	0
2	27590	22426.460817892189	1
2	27591	22426.828236271084	0
2	27595	22427.719250598109	1
2	27596	22427.969170717259	0
2	27620	22470.734704841397	1
2	27623	22471.603878718656	0
2	27670	22511.558380767079	1
2	27671	22512.165141954652	0
2	27695	22533.082977240912	1
2	27696	22533.150557905399	0
2	27745	22554.851764195873	1
2	27748	22555.550449032159	0
2	27830	22622.176168943342	1
2	27831	22622.651890937546	0
2	27850	22637.760294770304	1
2	27851	22638.056045743273	0
2	27955	22689.125986060491	1
2	27956	22689.778273404088	0
2	27985	22712.945961169409	1
2	27986	22713.154221640415	0
2	28030	22765.802881511903	1
2	28031	22766.645921847134	0
2	28075	22791.285987121885	1
2	28076	22791.754300797631	0
2	28080	22792.565568721743	1
2	28081	22792.826076888286	0
2	28100	22797.730454098772	1
2	28101	22798.548551740055	0
2	28140	22842.626450154394	1
2	28143	22843.230965194676	0
2	28165	22848.056698290175	1
2	28166	22848.447964779718	0
2	28235	22904.546099184712	1
2	28238	22904.888591267064	0
2	28245	22906.716995463451	1
2	28246	22906.745427633904	0
2	28255	22909.951720247044	1
2	28256	22910.776069597431	0
2	28285	22937.114645026689	1
2	28286	22937.299723720081	0
2	28340	22975.824917913907	1
2	28341	22976.201006833731	0
2	28345	22976.928287036549	1
2	28346	22977.003056466474	0
2	28375	23006.818024139855	1
2	28376	23007.338873961357	0
2	28395	23026.302653278442	1
2	28396	23026.491659159313	0
2	28425	23037.634622317226	1
2	28426	23038.35744946201	0
2	28555	23162.637235791677	1
2	28556	23162.687493094745	0
2	28590	23172.58822682148	1
2	28591	23172.966939900371	0
2	28645	23218.483929521881	1
2	28646	23219.310419196954	0
2	28655	23220.58346489238	1
2	28656	23221.253246524559	0
2	28670	23237.89772047179	1
2	28671	23238.53408025904	0
2	28700	23253.371527033218	1
2	28701	23253.666793710113	0
2	28730	23282.941686069038	1
2	28732	23283.363790219608	2
2	28733	23283.450357596922	1
2	28736	23284.371388221226	0
2	28750	23295.563931920123	1
2	28751	23296.097195302703	0
2	28775	23304.970871375474	1
2	28776	23305.580691364198	0
2	29000	23479.241714543683	1
2	29001	23479.430216011304	0
2	29020	23490.55141416212	1
2	29021	23490.600979096692	0
2	29040	23501.80491195208	1
2	29041	23502.559036288333	0
2	29065	23529.823632402316	1
2	29066	23530.854112986511	0
2	29110	23563.024684549736	1
2	29111	23563.301432760619	0
2	29125	23568.711949776491	1
2	29128	23569.747182419295	0
2	29150	23578.096310583458	1
2	29151	23578.463379382753	0
2	29155	23578.931797154588	1
2	29156	23579.470077365023	0
2	29160	23579.808047049372	1
2	29161	23580.355042670426	0
2	29170	23581.388880283559	1
2	29172	23582.04819882146	2
2	29173	23582.08653774163	1
2	29176	23582.92861289209	0
2	29185	23584.21395039901	1
2	29186	23585.104996231424	0
2	29190	23585.241531695333	1
2	29191	23586.020985670613	0
2	29195	23586.68424583304	1
2	29196	23587.080099804925	0
2	29200	23587.290531446563	1
2	29201	23588.279201538621	0
2	29210	23590.854165733627	1
2	29211	23591.555125720287	0
2	29220	23594.176975066501	1
2	29221	23594.601986509529	0
2	29290	23639.053614303714	1
2	29291	23639.815807174702	0
2	29355	23719.768292650586	1
2	29356	23720.002588240367	0
2	29360	23720.28785310798	1
2	29361	23720.995395402641	0
2	29365	23721.28251989873	1
2	29366	23722.055672682852	0
2	29425	23764.033523081165	1
2	29426	23764.624055553778	0
2	29475	23819.521365918828	1
2	29476	23819.656748285791	0
2	29485	23824.695219689815	1
2	29486	23825.597026435783	0
2	29535	23865.608026184401	1
2	29536	23866.128566559092	0
2	29605	23906.163490306892	1
2	29606	23906.699034517435	0
2	29625	23923.357050032961	1
2	29626	23924.239060630216	0
2	29645	23937.676138349131	1
2	29646	23938.364406777609	0
2	29685	23977.717899624668	1
2	29686	23977.985170708453	0
2	29765	24052.061174436885	1
2	29766	24053.144912129336	0
2	29785	24065.526610947589	1
2	29786	24066.572797416574	0
2	29790	24067.528561056093	1
2	29791	24067.748325616638	0
2	29795	24068.010740858206	1
2	29796	24068.871924835867	0
2	29800	24069.615280020772	1
2	29801	24069.936218619584	0
2	29810	24071.7065681188	1
2	29811	24072.069426693429	0
2	29835	24082.127115484449	1
2	29836	24083.021797955831	0
2	29845	24085.341196734445	1
2	29846	24085.461317173917	0
2	29855	24087.145118234579	1
2	29856	24087.640308567662	0
2	29860	24087.677851618138	1
2	29862	24088.362913047482	2
2	29863	24088.443025879901	1
2	29868	24089.541533369724	0
2	29872	24089.654098115066	1
2	29873	24090.476727459546	0
2	29960	24147.591500706419	1
2	29961	24148.14219299799	0
2	30025	24231.052431553745	1
2	30026	24231.365566694653	0
2	30055	24287.342209885473	1
2	30056	24287.979086638045	0
2	30080	24300.399912029137	1
2	30081	24301.399044018764	0
2	30125	24327.278212684976	1
2	30126	24328.092180147589	0
2	30140	24335.345723922537	1
2	30141	24335.916002886552	0
2	30155	24342.018961801086	1
2	30156	24342.279577412382	0
2	30165	24343.321380203855	1
2	30166	24344.03384209035	0
2	30197	24350.725405328706	1
2	30198	24351.029668961529	0
2	30215	24365.945478847363	1
2	30216	24366.027790840354	0
2	30220	24366.240097382582	1
2	30221	24367.074564496998	0
2	30225	24367.296633561669	1
2	30226	24368.122363547899	0
2	30255	24386.099552870797	1
2	30256	24386.818889068671	0
2	30260	24387.060364732985	1
2	30261	24387.927938575715	0
2	30310	24428.906080067735	1
2	30311	24429.446369609954	0
2	30410	24520.112683993529	1
2	30411	24520.215357522727	0
2	30460	24560.947696417311	1
2	30461	24561.606050357492	0
2	30635	24759.425653368453	1
2	30636	24759.463598145971	0
2	30640	24759.923080923872	1
2	30641	24760.408233756067	0
2	30645	24761.438680829341	1
2	30646	24761.591864333635	0
2	30665	24771.282331252606	1
2	30666	24771.672290548283	0
2	30670	24772.075903272268	1
2	30672	24772.486295410533	2
2	30673	24772.742643429871	1
2	30676	24773.818525265317	0
2	30685	24775.75923747861	1
2	30686	24776.568514643141	0
2	30710	24801.461663624398	1
2	30711	24801.48632318655	0
2	30720	24802.748645807935	1
2	30721	24803.443633086309	0
2	30725	24803.652199707597	1
2	30726	24804.493523550015	0
2	30805	24884.801852776281	1
2	30806	24885.592978878001	0
2	30865	24922.634928064079	1
2	30867	24922.796467771194	2
2	30868	24923.442188336327	1
2	30871	24924.514857365842	0
2	30975	24999.059543225159	1
2	30976	24999.695538972674	0
2	30980	25000.349031992527	1
2	30981	25000.541388844775	0
2	30985	25001.005947436372	1
2	30987	25001.06992203284	2
2	30988	25001.46833009802	1
2	30991	25002.568277372683	0
2	31010	25016.213962426454	1
2	31011	25016.494381498628	0
2	31032	25022.618218776501	1
2	31033	25023.653260696803	0
2	31055	25032.244686983695	1
2	31056	25032.748758430681	0
2	31070	25036.046648985454	1
2	31071	25036.328649192578	0
2	31075	25037.093924429161	1
2	31076	25037.255410052831	0
2	31125	25066.015313455399	1
2	31126	25067.137680364183	0
2	31155	25097.572570358577	1
2	31156	25097.865457090149	0
2	31195	25128.547349072855	1
2	31198	25128.9432621432	0
2	31260	25182.175230184647	1
2	31261	25182.636480997572	0
2	31310	25228.88413081497	1
2	31311	25230.044971099676	0
2	31315	25230.728273363817	1
2	31316	25231.133891230443	0
2	31355	25259.416843057248	1
2	31358	25260.277848900605	0
2	31390	25288.502837036402	1
2	31391	25288.646340300559	0
2	31480	25361.535012838271	1
2	31481	25362.292504276834	0
2	31500	25382.489122553545	1
2	31501	25383.254085108339	0
2	31550	25409.91093517213	1
2	31551	25410.872353598447	0
2	31555	25411.270337719031	1
2	31556	25412.060805211095	0
2	31575	25436.565722635815	1
2	31576	25437.471553109006	0
2	31595	25442.458559486639	1
2	31596	25442.739682811911	0
2	31635	25460.877011265467	1
2	31636	25461.763385010937	0
2	31655	25491.011938058056	1
2	31656	25492.113596550564	0
2	31665	25493.907323193377	1
2	31666	25494.396857136483	0
2	31695	25512.910310527245	1
2	31696	25513.91470401405	0
2	31700	25514.24939835816	1
2	31701	25514.776411181098	0
2	31740	25560.36242519485	1
2	31743	25561.049707272889	0
2	31840	25666.829907320863	1
2	31841	25667.286273326777	0
2	31865	25698.256967953846	1
2	31866	25699.229652482278	0
2	31870	25699.991878491934	1
2	31871	25700.125787377551	0
2	31905	25722.764905274197	1
2	31906	25723.288561833389	0
2	32012	25817.230146777421	1
2	32013	25817.595101444035	0
2	32065	25842.098718991087	1
2	32066	25842.898894675195	0
2	32090	25865.213571255694	1
2	32092	25865.216300192036	2
2	32093	25865.242366948582	1
2	32096	25866.115624900207	0
2	32150	25894.914031873256	1
2	32152	25895.371625550556	2
2	32153	25895.876113644107	1
2	32158	25896.996248698099	0
2	32162	25898.02172883585	1
2	32163	25898.022575592487	0
2	32295	25982.786003422125	1
2	32296	25983.050178813622	0
2	32405	26079.355391925784	1
2	32406	26079.874349842586	0
2	32580	26224.565090230173	1
2	32581	26225.417151891349	0
2	32590	26226.921742338773	1
2	32591	26227.294692071228	0
2	32600	26228.9601628108	1
2	32602	26229.137952712427	2
2	32603	26229.475187746882	1
2	32606	26230.359282989502	0
2	32655	26284.385389482579	1
2	32656	26285.262586292152	0
2	32670	26290.249778471074	1
2	32671	26291.113904111566	0
2	32695	26313.481360187511	1
2	32696	26314.075275483083	0
2	32705	26333.572029389734	1
2	32706	26334.190561581245	0
2	32710	26334.93604666017	1
2	32711	26335.019537853105	0
2	32720	26336.60896154997	1
2	32721	26337.414754914085	0
2	32745	26359.408934574686	1
2	32746	26359.553778800333	0
2	32800	26386.260885088962	1
2	32801	26386.385200250594	0
2	32815	26397.053948444096	1
2	32817	26397.275854176296	2
2	32818	26397.303291732251	1
2	32822	26397.587230272085	2
2	32823	26398.206039600532	1
2	32827	26398.590218538519	2
2	32828	26399.203059586595	1
2	32832	26399.584681303124	2
2	32833	26400.033093957781	1
2	32836	26401.023466380491	0
2	32840	26401.931048444055	1
2	32841	26401.954111654489	0
2	32895	26435.059173003777	1
2	32896	26435.106947380635	0
2	32917	26444.943570517309	1
2	32918	26445.400975964021	0
2	33005	26531.739535216146	1
2	33007	26532.259048675348	2
2	33009	26532.496873873986	3
2	33010	26532.577855286744	2
2	33013	26533.75402266625	1
2	33017	26533.879335935608	2
2	33019	26534.171940543948	3
2	33020	26534.826672991362	2
2	33024	26535.640186716196	3
2	33025	26535.785932637562	2
2	33028	26536.617578474243	1
2	33032	26537.212597812777	2
2	33033	26537.620157190037	1
2	33036	26538.656652654612	0
2	33080	26579.260748702394	1
2	33081	26579.566797583695	0
2	33115	26589.411517484822	1
2	33116	26589.766387514472	0
2	33140	26616.495398245949	1
2	33141	26616.673319913789	0
2	33217	26698.61088818917	1
2	33218	26698.758377919132	0
2	33270	26737.916926319048	1
2	33271	26738.301362012457	0
2	33280	26739.661089874177	1
2	33281	26740.317297121917	0
2	33520	26992.225448235829	1
2	33521	26992.752280521358	0
2	33545	27011.98665227922	1
2	33546	27012.007145078467	0
2	33575	27040.382996609167	1
2	33576	27040.893247219707	0
2	33600	27051.809383344391	1
2	33601	27051.970076399296	0
2	33622	27064.560129380614	1
2	33623	27064.957107177818	0
2	33632	27065.941246617416	1
2	33633	27066.782245723879	0
2	33637	27066.892690701413	1
2	33638	27067.753984495321	0
2	33647	27069.282037041303	1
2	33648	27069.748219498968	0
2	33675	27085.45438918547	1
2	33676	27085.90425384448	0
2	33690	27088.921489401692	1
2	33691	27089.214859592105	0
2	33825	27220.044118361501	1
2	33826	27220.45108064528	0
2	33935	27351.528422409183	1
2	33936	27352.305123234502	0
2	33965	27366.125902234031	1
2	33966	27366.643691031097	0
2	34040	27424.082234366526	1
2	34043	27425.103624382102	0
2	34150	27564.004707415659	1
2	34151	27564.203704983144	0
2	34215	27598.769401972594	1
2	34216	27599.52776585443	0
2	34225	27601.113875083948	1
2	34226	27601.760349557618	0
2	34255	27616.902760762983	1
2	34256	27617.517161175842	0
2	34260	27618.067393650935	1
2	34261	27618.536311467598	0
2	34307	27676.461834715988	1
2	34308	27676.857486534982	0
2	34350	27707.322734007169	1
2	34351	27708.378571291146	0
2	34380	27755.331703029451	1
2	34382	27755.440533555938	2
2	34383	27755.854029225271	1
2	34387	27756.481953017674	2
2	34388	27756.811079478815	1
2	34391	27757.94748311666	0
2	34395	27758.577206708784	1
2	34396	27758.792468001406	0
2	34437	27773.393662169575	1
2	34438	27774.513218177787	0
2	34455	27803.991514267263	1
2	34456	27804.784496843038	0
2	34460	27805.148346158997	1
2	34461	27805.855016002027	0
2	34465	27806.118851817717	1
2	34466	27806.741370568206	0
2	34470	27807.50045492956	1
2	34471	27807.900790457675	0
2	34540	27889.044926318637	1
2	34541	27889.473286155529	0
2	34585	27924.348740484614	1
2	34587	27925.318346630902	2
2	34588	27925.337564083317	1
2	34591	27926.205843312328	0
2	34605	27933.512961281724	1
2	34608	27934.410782270365	0
2	34620	27936.821439502075	1
2	34621	27937.179753046062	0
2	34725	28033.669217939938	1
2	34726	28034.329157087186	0
2	34745	28056.364041686678	1
2	34746	28057.454772413994	0
2	34750	28057.726850361669	1
2	34751	28058.486720900896	0
2	34760	28061.417730903149	1
2	34761	28062.315883015393	0
2	34765	28062.335676987974	1
2	34766	28063.241874181124	0
2	34800	28080.622964490346	1
2	34801	28081.340022231539	0
2	34840	28129.149648436435	1
2	34841	28129.810370652562	0
2	34870	28144.944886221945	1
2	34871	28145.230961938243	0
2	34880	28151.421898794694	1
2	34881	28151.671488739479	0
2	34985	28324.641299935602	1
2	34986	28325.043246371209	0
2	35030	28348.715035355131	1
2	35031	28349.278335992073	0
2	35040	28352.203901618609	1
2	35041	28352.568453560999	0
2	35060	28357.436028883697	1
2	35061	28358.243367539226	0
2	35190	28507.859071033133	1
2	35191	28508.113748064393	0
2	35225	28534.026954687685	1
2	35226	28534.127106361929	0
2	35270	28587.380923733175	1
2	35271	28587.80827800922	0
2	35290	28598.3861353498	1
2	35291	28599.031783483068	0
2	35320	28625.250925427188	1
2	35321	28625.696926904338	0
2	35350	28652.479615210786	1
2	35351	28653.138996442874	0
2	35400	28682.129113935412	1
2	35402	28682.269989098894	2
2	35403	28682.932728608548	1
2	35406	28684.061465880498	0
2	35460	28729.723778165626	1
2	35461	28730.170034791978	0
2	35540	28826.298672338803	1
2	35541	28826.374215001168	0
2	35590	28867.401656552936	1
2	35591	28867.753524870682	0
2	35600	28870.632447271943	1
2	35601	28870.805304845698	0
2	35605	28871.399020052989	1
2	35607	28871.9450472105	2
2	35608	28871.98176005324	1
2	35611	28873.15786006441	0
2	35615	28873.780228923743	1
2	35616	28874.110629560329	0
2	35785	29050.602766708235	1
2	35786	29051.278849774401	0
2	35790	29051.28920025754	1
2	35793	29052.167612055398	0
2	35820	29078.063661746384	1
2	35821	29078.153254203509	0
2	35860	29120.397110143635	1
2	35861	29120.986815341793	0
2	35875	29150.275362979849	1
2	35876	29150.955746828681	0
2	35900	29165.594022216077	1
2	35901	29165.878348304026	0
2	35920	29178.131163361977	1
2	35921	29178.154973721168	0
2	35980	29234.390361977964	1
2	35981	29234.996586144951	0
2	35985	29235.72607557997	1
2	35986	29235.946874630221	0
2	36010	29250.229445469036	1
2	36011	29251.224419288377	0
2	36110	29331.708379489736	1
2	36111	29331.776508444266	0
2	36125	29338.928228086689	1
2	36126	29339.32139167722	0
2	36205	29416.704451882467	1
2	36206	29417.061951439078	0
2	36220	29419.593385254829	1
2	36221	29420.2358234789	0
2	36300	29472.008419269629	1
2	36301	29472.522703574981	0
2	36360	29513.688728930313	1
2	36361	29514.372219356631	0
2	36500	29648.750723841377	1
2	36501	29649.622890272562	0
2	36540	29673.720712641383	1
2	36541	29674.471430904049	0
2	36575	29702.6152239323	1
2	36576	29702.853473755882	0
2	36610	29725.303019944673	1
2	36611	29725.799378815336	0
2	36630	29747.94415794782	1
2	36631	29748.44959053923	0
2	36660	29767.159100896351	1
2	36661	29767.551923801252	0
2	36670	29768.932674914706	1
2	36673	29769.284085066304	0
2	36677	29769.6439478537	1
2	36678	29770.481672073681	0
2	36685	29772.1252480469	1
2	36686	29772.546649268888	0
2	36700	29789.137444374724	1
2	36702	29789.172329155301	2
2	36703	29789.235425989989	1
2	36706	29790.109501242924	0
2	36745	29817.791519239837	1
2	36746	29818.107426454598	0
2	36750	29818.478407949984	1
2	36751	29819.281557632429	0
2	36770	29828.837648699296	1
2	36771	29829.274980125138	0
2	36810	29851.392644656149	1
2	36811	29852.289593323123	0
2	36850	29886.512023075188	1
2	36851	29886.720904605457	0
2	36865	29901.558505187759	1
2	36868	29901.827489896707	0
2	36880	29905.639167080059	1
2	36881	29905.886964246274	0
2	36895	29908.62522208474	1
2	36896	29909.131231566018	0
2	36935	29922.964841354028	1
2	36936	29923.552185731497	0
2	36965	29936.347734006889	1
2	36966	29936.81453409508	0
2	37015	29979.987302623972	1
2	37016	29980.732602253499	0
3	0	0	0
3	55	51.570765223861	1
3	56	51.847107997603	0
3	70	57.801682434186	1
3	71	58.082038382418	0
3	75	58.806194572214	1
3	76	58.950199267897	0
3	80	58.982803561778	1
3	81	60.048824917688	0
3	85	60.126079219823	1
3	86	61.214925283636	0
3	95	70.156582214722	1
3	96	70.810571193426	0
3	155	163.410151352709	1
3	156	163.928962449741	0
3	185	183.139038809952	1
3	186	183.631605327321	0
3	290	278.256219034798	1
3	292	279.038372042739	2
3	293	279.320283381097	1
3	301	281.33726753296	0
3	320	296.075943123268	1
3	321	296.185328003432	0
3	330	298.208511536986	1
3	331	298.257788093915	0
3	390	345.779410406065	1
3	391	345.854717971554	0
3	605	516.216329363395	1
3	607	516.242053766265	2
3	608	516.65021549733	1
3	611	517.495093704291	0
3	660	553.589004256269	1
3	661	553.965782072583	0
3	795	712.463915187433	1
3	796	712.531904071221	0
3	805	715.026378063611	1
3	806	715.325975635878	0
3	835	727.670035835779	1
3	836	727.71109665901	0
3	840	727.923646768174	1
3	841	728.594351505195	0
3	945	886.742643772861	1
3	946	887.440934908308	0
3	1000	933.520768946972	1
3	1001	933.560622821139	0
3	1005	934.217849769592	1
3	1006	934.582028588602	0
3	1040	964.523249492591	1
3	1042	964.856218058046	2
3	1043	965.523049224798	1
3	1046	966.332560968005	0
3	1085	985.896153525036	1
3	1086	986.628191018154	0
3	1095	989.964054245791	1
3	1096	990.069090939184	0
3	1100	990.183083448771	1
3	1101	991.027653144264	0
3	1110	992.140663288277	1
3	1111	992.788852662743	0
3	1260	1117.610139404166	1
3	1261	1118.140900894152	0
3	1310	1173.88879327472	1
3	1316	1175.350352725347	0
3	1400	1261.784494877263	1
3	1402	1261.910718869494	2
3	1403	1262.229948238861	1
3	1406	1263.1584732325	0
3	1410	1263.247184432313	1
3	1411	1264.022650438659	0
3	1425	1285.518449495895	1
3	1426	1286.152714249925	0
3	1435	1287.439883606897	1
3	1446	1290.232153342352	0
3	1545	1418.517595942187	1
3	1546	1418.705674082319	0
3	1595	1446.812792695531	1
3	1597	1447.533389369508	2
3	1598	1447.636793351349	1
3	1601	1448.689277908568	0
3	1635	1479.972482567255	1
3	1636	1480.410569129073	0
3	1650	1492.03280718232	1
3	1651	1492.515054917926	0
3	1705	1534.115489157467	1
3	1706	1534.451420172221	0
3	1740	1574.37270918258	1
3	1741	1575.273404079068	0
3	1750	1576.381497321594	1
3	1751	1577.356057080019	0
3	1780	1597.376482532719	1
3	1781	1598.034849029936	0
3	1810	1647.003458619044	1
3	1812	1647.555055604046	2
3	1813	1647.940833290983	1
3	1816	1648.856362185013	0
3	1830	1651.302831564731	1
3	1832	1651.369887695363	2
3	1833	1652.286183003381	1
3	1836	1653.170787795492	0
3	1840	1653.324667604601	1
3	1846	1655.205915632703	0
3	1932	1717.185879814904	1
3	1936	1718.704393393071	0
3	2035	1819.024162372574	1
3	2036	1819.945526017503	0
3	2175	1905.204507140977	1
3	2176	1905.81441005956	0
3	2182	1906.245800112249	1
3	2186	1907.465228265091	0
3	2260	1971.61476069392	1
3	2261	1971.942440290494	0
3	2270	1976.648024854678	1
3	2271	1977.102577442823	0
3	2345	2053.165971417095	1
3	2346	2054.076204400066	0
3	2410	2103.278792864263	1
3	2411	2103.660020080219	0
3	2415	2104.536900000945	1
3	2416	2104.595178907095	0
3	2505	2166.82127084539	1
3	2506	2167.231310900077	0
3	2525	2172.874077326442	1
3	2531	2174.887711109943	0
3	2540	2176.298997938667	1
3	2556	2180.054986189654	0
3	2690	2266.300001877842	1
3	2691	2267.239772609347	0
3	2860	2392.902766515425	1
3	2861	2393.615987872498	0
3	3077	2561.679556667658	1
3	3081	2562.780112909709	0
3	3095	2566.555062740319	1
3	3096	2567.385843230437	0
3	3155	2603.371526037931	1
3	3156	2604.046920268581	0
3	3170	2608.291208384297	1
3	3171	2608.60545611284	0
3	3210	2643.210589526283	1
3	3211	2643.27670899661	0
3	3245	2665.251865192307	1
3	3246	2666.007341805504	0
3	3300	2696.48916047479	1
3	3301	2696.644426162586	0
3	3355	2742.903621515944	1
3	3356	2743.141453671396	0
3	3380	2767.038188603095	1
3	3381	2767.345873441068	0
3	3460	2816.927430300599	1
3	3466	2818.34887477527	0
3	3495	2842.25829393127	1
3	3496	2842.468764439722	0
3	3520	2861.738049503723	1
3	3521	2862.511151217585	0
3	3695	3089.058358358887	1
3	3696	3090.126726953376	0
3	3705	3104.748515170643	1
3	3706	3105.597888812787	0
3	3810	3205.511167636506	1
3	3811	3205.554407477563	0
3	3835	3217.720536838257	1
3	3836	3217.987821690174	0
3	3915	3258.771325719099	1
3	3916	3259.365536664461	0
3	3927	3260.279157986711	1
3	3929	3261.018210812669	2
3	3938	3263.506017170789	1
3	3941	3264.68755148243	0
3	4010	3319.091470060779	1
3	4014	3319.550610146742	2
3	4023	3321.835327232479	1
3	4026	3322.719664006437	0
3	4305	3560.621845092535	1
3	4306	3561.400932157264	0
3	4315	3563.499174759188	1
3	4316	3563.549049072379	0
3	4335	3568.319194701921	1
3	4336	3568.345561513975	0
3	4360	3581.347427841538	1
3	4361	3582.105135149607	0
3	4405	3632.404772174059	1
3	4406	3633.461709755843	0
3	4455	3684.227641612116	1
3	4456	3684.414693432244	0
3	4530	3765.54379607448	1
3	4531	3765.706805908806	0
3	4555	3779.422786004406	1
3	4556	3779.694969350427	0
3	4575	3788.386084325173	1
3	4576	3789.180902000635	0
3	4620	3819.336840698844	1
3	4621	3819.530820709554	0
3	4705	3893.773527619983	1
3	4706	3894.718566657088	0
3	4714	3895.323919393192	1
3	4737	3899.919735706173	2
3	4738	3900.697976456627	1
3	4746	3902.945117910996	0
3	4790	3943.654953779298	1
3	4791	3943.674188042445	0
3	4795	3944.228814264154	1
3	4796	3944.568250198675	0
3	4810	3951.836495160712	1
3	4816	3953.14589317855	0
3	4860	3998.193366907574	1
3	4861	3998.917631121323	0
3	4880	4017.36944722604	1
3	4881	4017.468722155967	0
3	4955	4126.523725831797	1
3	4956	4127.378979942527	0
3	5045	4221.605761303289	1
3	5046	4222.321491823232	0
3	5105	4273.187448330729	1
3	5106	4273.677752855064	0
3	5125	4285.561400030294	1
3	5126	4285.762955114912	0
3	5160	4304.615076694451	1
3	5161	4305.15718481684	0
3	5170	4312.747876571734	1
3	5171	4313.413180949943	0
3	5285	4453.386509431915	1
3	5286	4453.983382641789	0
3	5325	4471.963067323088	1
3	5327	4472.062217896497	2
3	5328	4472.25974112716	1
3	5331	4473.443326544058	0
3	5335	4474.317031694764	1
3	5341	4475.55590941491	0
3	5420	4539.7648675829	1
3	5421	4540.166335412453	0
3	5550	4650.305117862301	1
3	5551	4650.633790436547	0
3	5555	4651.347033445689	1
3	5556	4651.709505357008	0
3	5605	4687.784976583132	1
3	5606	4687.963681157179	0
3	5675	4756.325593084092	1
3	5676	4756.390674152949	0
3	5695	4796.026908327551	1
3	5696	4796.875189562632	0
3	5805	4924.273812443202	1
3	5806	4924.349961712597	0
3	5820	4936.082484149128	1
3	5821	4936.139407921867	0
3	5830	4939.733829276254	1
3	5831	4940.586981901452	0
3	5835	4941.490592355348	1
3	5836	4941.736187759992	0
3	5945	5058.389920315949	1
3	5946	5058.591962930133	0
3	5955	5061.936468794954	1
3	5956	5062.181044160689	0
3	5965	5066.122071304551	1
3	5966	5066.987737104549	0
3	5985	5084.405287723026	1
3	5986	5084.959640181897	0
3	6100	5205.095920424652	1
3	6101	5205.100201440265	0
3	6150	5234.038445154841	1
3	6151	5234.066791013729	0
3	6160	5236.799866050281	1
3	6161	5237.714730529075	0
3	6180	5246.780542932863	1
3	6181	5247.319044882122	0
3	6215	5262.369497505093	1
3	6216	5262.740412904823	0
3	6245	5279.267565260658	1
3	6246	5280.11201798393	0
3	6250	5280.296252134179	1
3	6251	5281.124802875971	0
3	6390	5413.342095583945	1
3	6391	5413.508476780841	0
3	6415	5431.395076426702	1
3	6416	5432.324913881957	0
3	6460	5448.4209166693	1
3	6461	5448.728392268052	0
3	6470	5450.759508764076	1
3	6476	5452.64851482716	0
3	6505	5468.201960803659	1
3	6506	5468.227166716351	0
3	6575	5540.820962714097	1
3	6577	5540.992911443826	2
3	6579	5541.265237363334	3
3	6580	5541.970806132971	2
3	6584	5542.298488479942	3
3	6585	5542.875393312487	2
3	6588	5543.820426498416	1
3	6592	5544.400378477728	2
3	6593	5544.741912891871	1
3	6596	5545.568423431708	0
3	6640	5616.587811642765	1
3	6641	5616.932081895407	0
3	6650	5621.316246001101	1
3	6651	5622.081117746955	0
3	6675	5653.528416491651	1
3	6676	5653.761987364459	0
3	6687	5655.290644334307	1
3	6696	5658.064551188126	0
3	6855	5762.847352725366	1
3	6856	5763.367866037989	0
3	6870	5767.60259438947	1
3	6871	5768.64399208813	0
3	6980	5847.701414778873	1
3	6981	5847.850635433007	0
3	6990	5849.207356437086	1
3	6991	5850.203079442653	0
3	7070	5954.779455155591	1
3	7071	5955.261733169284	0
3	7180	6020.43749925416	1
3	7181	6020.757249920722	0
3	7207	6037.778579147788	1
3	7211	6039.127139488807	0
3	7235	6057.550259374507	1
3	7236	6058.372487272937	0
3	7265	6070.225125897051	1
3	7266	6070.919029317021	0
3	7310	6114.015324087237	1
3	7311	6114.230207452058	0
3	7350	6184.373005649136	1
3	7351	6184.65582498186	0
3	7370	6194.516064593349	1
3	7371	6194.723499853171	0
3	7377	6195.558602063938	1
3	7381	6196.568599465497	0
3	7505	6326.138695504843	1
3	7511	6328.231701166556	0
3	7600	6440.267246611413	1
3	7601	6440.585713173737	0
3	7642	6460.879417056391	1
3	7644	6461.007108917704	2
3	7648	6462.504588176848	1
3	7651	6463.414264362657	0
3	7680	6474.862661203697	1
3	7681	6475.523942783096	0
3	7710	6504.40951635234	1
3	7711	6504.732907964507	0
3	7905	6643.879655497745	1
3	7906	6644.24827017984	0
3	7917	6645.937525489465	1
3	7921	6647.457712838474	0
3	7940	6667.143945692907	1
3	7941	6667.923320429281	0
3	7975	6719.005683161703	1
3	7976	6720.011409046306	0
3	8075	6773.255129632856	1
3	8076	6773.924269531788	0
3	8200	6884.351163101474	1
3	8201	6884.596696258078	0
3	8232	6907.298551699367	1
3	8236	6908.716070017268	0
3	8265	6919.668180383587	1
3	8266	6920.677817400132	0
3	8277	6922.656587098176	1
3	8281	6923.750131540892	0
3	8290	6926.177155644989	1
3	8291	6926.561348053648	0
3	8315	6941.765418771547	1
3	8316	6942.334525722237	0
3	8350	6968.950893542119	1
3	8351	6969.128899437267	0
3	8425	7023.373236075364	1
3	8426	7023.432217589009	0
3	8465	7047.524810325037	1
3	8466	7047.967637072462	0
3	8500	7085.940932596757	1
3	8501	7086.551737192406	0
3	8520	7103.0642650414	1
3	8521	7104.029256892415	0
3	8670	7207.686100723821	1
3	8672	7208.276445918484	2
3	8673	7208.780081799178	1
3	8677	7209.488964878534	2
3	8678	7209.596891524381	1
3	8681	7210.739258312731	0
3	8780	7299.295633746002	1
3	8781	7300.220654036161	0
3	8880	7405.534966555819	1
3	8881	7405.771707251944	0
3	8915	7458.710732590736	1
3	8916	7459.48431754748	0
3	9015	7534.043424212989	1
3	9016	7534.274815050349	0
3	9035	7551.786019622423	1
3	9036	7552.425069419069	0
3	9065	7589.260686488416	1
3	9066	7589.310284729602	0
3	9070	7589.456928739854	1
3	9071	7590.323331460843	0
3	9095	7615.267366573653	1
3	9096	7615.833188025969	0
3	9210	7709.284124285635	1
3	9211	7710.074037247399	0
3	9320	7816.286029444433	1
3	9321	7816.525095469897	0
3	9335	7822.214938167809	1
3	9336	7822.772799114947	0
3	9380	7855.655721695302	1
3	9381	7856.239026085686	0
3	9410	7873.884959925021	1
3	9411	7874.388456368718	0
3	9467	7906.336610968724	1
3	9476	7908.903927838514	0
3	9485	7923.082070599331	1
3	9486	7923.703477016099	0
3	9570	8024.202147371099	1
3	9571	8024.812999390125	0
3	9590	8036.267546273434	1
3	9591	8036.610842361057	0
3	9802	8193.405594261704	1
3	9806	8194.687639479742	0
3	9810	8195.728074736121	1
3	9811	8195.869833506581	0
3	9825	8210.565922107117	1
3	9826	8210.822922052004	0
3	9875	8244.842177967678	1
3	9891	8248.893607726745	0
3	9915	8254.25159994547	1
3	9916	8254.723064102846	0
3	10005	8366.696489497867	1
3	10006	8367.382065689447	0
3	10145	8473.907685630996	1
3	10146	8474.485746805306	0
3	10270	8621.336502488763	1
3	10271	8621.411275758204	0
3	10277	8622.067271521757	1
3	10281	8623.264230955095	0
3	10295	8625.741658861271	1
3	10296	8626.736662973995	0
3	10300	8627.122257366281	1
3	10301	8627.741337002693	0
3	10310	8639.412560283942	1
3	10311	8639.552884883998	0
3	10315	8639.603411817209	1
3	10316	8640.483638548857	0
3	10370	8676.287948871608	1
3	10376	8677.8667125689	0
3	10385	8679.369118500732	1
3	10386	8679.606991817613	0
3	10492	8789.272197010866	1
3	10496	8790.387356398517	0
3	10500	8791.5029058968	1
3	10501	8791.5638745101	0
3	10580	8867.631699881182	1
3	10581	8868.55596594162	0
3	10645	8938.758941994423	1
3	10651	8940.317837696354	0
3	10660	8942.423335270449	1
3	10661	8942.939073553288	0
3	10680	8978.79804458604	1
3	10681	8979.539659891331	0
3	10765	9046.901484205721	1
3	10771	9048.696724340465	0
3	10812	9098.811945416392	1
3	10816	9099.662852578613	0
3	10820	9100.097605664481	1
3	10821	9100.629689011167	0
3	10960	9235.161450776722	1
3	10961	9235.342100900047	0
3	10970	9238.575041070091	1
3	10971	9238.733902093278	0
3	11045	9309.63927925273	1
3	11046	9310.434314933618	0
3	11140	9414.362079513527	1
3	11141	9414.942838583236	0
3	11232	9491.69047357938	1
3	11241	9493.865023912399	0
3	11390	9629.567997050439	1
3	11391	9629.915774662478	0
3	11510	9754.919123127319	1
3	11511	9755.423565220688	0
3	11547	9782.980699049729	1
3	11556	9785.402080595005	0
3	11575	9806.971765359833	1
3	11576	9807.167785455007	0
3	11810	9978.16410835761	1
3	11811	9978.874570502317	0
3	11830	9988.088743815186	1
3	11831	9988.905055710716	0
3	11835	9989.451229651992	1
3	11836	9989.965590037169	0
3	11875	10014.895647719966	1
3	11876	10016.019576719632	0
3	11885	10018.367459917964	1
3	11886	10018.678733024978	0
3	11890	10018.986356779056	1
3	11891	10019.876765233883	0
[...]
6	32100	25867.147744224265	1.931444032229
6	32110	25875.357840464449	1.118787791114
6	32117	25878.347491134762	1.16130880611
6	32130	25884.633377910222	2.489770123037
6	32145	25893.847606114914	1.060861658491
6	32164	25898.022575592487	2.650950041931
6	32167	25899.076514251116	4.16248237786
6	32202	25920.699974861133	1.008774629328
6	32212	25926.479456947175	1.13430622071
6	32230	25932.413751531543	3.251535532603
6	32240	25940.055380300838	1.917391677755
6	32245	25942.664671268697	1.000814905763
6	32260	25954.271702769342	2.080885658979
6	32265	25958.022834023223	1.011572501529
6	32275	25964.750830080767	1.123402661551
6	32285	25972.369599474791	0.972500376683
6	32290	25979.413886158475	1.097809547
6	32297	25983.050178813622	0.984689190518
6	32300	25984.146557586793	1.360554164668
6	32305	25987.691993389077	1.15368937552
6	32310	25995.46635938165	1.09802143611
6	32315	25997.611023591375	0.86933742566
6	32320	26006.393079598147	0.87665298339
6	32330	26013.711576769318	0.869014361966
6	32335	26019.663597976633	0.84451481849
6	32340	26021.693656397616	1.123093256727
6	32355	26040.810185244039	1.088075036742
6	32365	26043.279844614695	5.583790225812
6	32370	26044.864367068604	0.992367732618
6	32380	26060.524288684664	0.900057113171
6	32385	26063.281958730608	1.077837919723
6	32390	26065.089268537587	1.18893965045
6	32395	26070.007744853094	1.186159751751
6	32410	26080.813381543003	3.370793919776
6	32415	26083.853322891121	0.811142397951
6	32420	26087.367988703818	1.179960418679
6	32435	26114.372621108122	3.509597918261
6	32440	26116.058895027068	1.193878145609
6	32465	26131.529279689255	1.135469658021
6	32490	26146.435561727185	1.098869184498
6	32495	26159.583472535781	1.153563241102
6	32500	26161.25952936185	1.042979496252
6	32505	26164.109400963951	1.199640469812
6	32510	26174.2399623759	1.084149125963
6	32525	26186.038334431037	1.015161198843
6	32535	26202.261246893403	0.817119608913
6	32577	26224.33673343044	1.013870049641
6	32585	26226.368351006137	5.411374198985
6	32607	26230.359282989502	1.399120178702
6	32610	26231.167873849515	4.246131510742
6	32620	26254.215763526277	1.149752107076
6	32640	26270.439481642866	0.993673860002
6	32645	26272.180446746152	1.025362438057
6	32652	26284.24063319498	0.812864810508
6	32660	26286.252110175223	1.866720692644
6	32665	26289.743149985877	0.835655351449
6	32672	26291.113904111566	1.051338172797
6	32675	26292.006341536263	1.756563065189
6	32685	26300.230244859846	0.967343831901
6	32697	26314.075275483083	3.50104296914
6	32700	26315.246356097803	1.764995910292
6	32707	26334.190561581245	1.161595253367
6	32715	26336.171526441658	1.235479781488
6	32722	26337.414754914085	0.933864559047
6	32725	26338.60622725595	5.034197866216
6	32740	26356.66576302131	3.474434895368
6	32747	26359.553778800333	0.810894745123
6	32760	26364.574909741972	5.165975167286
6	32765	26374.542119994067	0.910496831685
6	32770	26376.207306725234	1.009920780547
6	32780	26380.773314449322	1.121800108813
6	32785	26382.79106153214	5.686149494833
6	32805	26387.213593351262	0.9527082623
6	32834	26400.033093957781	5.715352915012
6	32845	26402.848095484256	5.79414704016
6	32850	26404.438987240459	7.163133064163
6	32855	26406.067398295362	0.85672032265
6	32860	26411.462283738625	0.94059609687
6	32865	26415.522509363131	0.834887487255
6	32870	26423.469133124615	1.114820334036
6	32887	26430.219646756939	1.067588102072
6	32902	26436.23441057052	1.175237566743
6	32924	26446.28039537574	3.114801986981
6	32950	26458.730866205726	1.05525792772
6	32955	26460.479236005094	0.844148317724
6	32965	26464.216038648226	2.28172163594
6	32970	26470.282448668673	1.087724685576
6	32985	26495.326186519525	0.999828256201
6	32990	26518.875451305374	1.132769158576
6	32995	26525.88229110719	0.94746263437
6	33000	26527.128755660316	0.803356556408
6	33021	26534.826672991362	2.567624316014
6	33026	26535.785932637562	3.289058763576
6	33029	26536.617578474243	4.878043258097
6	33034	26537.620157190037	3.448216646089
6	33037	26538.656652654612	3.016465938416
6	33042	26539.841575289422	2.628977476645
6	33055	26552.423390725862	1.190624674596
6	33065	26561.418916461739	1.040713265631
6	33070	26563.591857646587	1.065226273984
6	33075	26569.161896572453	0.899724252429
6	33087	26580.53899960523	1.278250902836
6	33120	26590.780951100476	1.369433615654
6	33130	26599.229816197161	1.104542026948
6	33135	26609.761451957879	1.03662312394
6	33142	26616.673319913789	0.93798789233
6	33150	26619.635276862089	3.13987861614
6	33170	26632.869755001083	8.367594298935
6	33180	26638.013974529788	0.912390639819
6	33185	26640.347708865086	0.969281934667
6	33205	26691.23113054234	1.137822947092
6	33222	26699.719630396059	1.108742206889
6	33230	26702.559711200492	1.032011915091
6	33252	26711.875438851322	1.051236497238
6	33260	26735.336918012406	1.055212715082
6	33272	26738.301362012457	2.824555747576
6	33285	26741.190580360533	3.273654041485
6	33290	26779.871397809228	0.94685696708
6	33305	26810.45629816334	0.906560160592
6	33315	26814.893367705103	1.063960982393
6	33330	26821.302818689705	9.236544577028
6	33350	26837.791621652415	1.056925832387
6	33370	26868.963438137957	0.969176914264
6	33375	26874.442607929501	0.806740647554
6	33385	26889.098999839444	2.643171273668
6	33390	26898.294772730752	0.923834220041
6	33405	26904.974289356211	5.043626438155
6	33410	26911.550132437858	0.824754138757
6	33415	26925.236317406354	0.925322357286
6	33420	26928.74517456266	1.145099005848
6	33425	26935.704742075968	1.036209817976
6	33430	26938.771383342464	1.182288921811
6	33435	26940.061321507173	0.865916938242
6	33445	26949.820431325488	1.150155321974
6	33450	26951.675845658839	1.150833116937
6	33465	26955.777413014696	3.111618014079
6	33475	26959.969525566578	1.00422984194
6	33482	26963.726413684315	0.827379299887
6	33490	26976.393732963316	1.04101129435
6	33495	26977.611753829232	1.012231830321
6	33500	26979.253033972496	1.02206211742
6	33505	26981.241739793029	1.183353342861
6	33517	26991.55775328899	2.651265352077
6	33527	26993.859032346367	1.633584110538
6	33540	27002.44512578367	0.930955103319
6	33547	27012.007145078467	1.171338850353
6	33555	27015.069459918751	3.082807639531
6	33560	27027.71196418065	0.828791075759
6	33565	27030.879994079114	0.814015157614
6	33570	27032.694368818218	0.869856448844
6	33587	27042.837386033345	2.454389424178
6	33605	27052.781633432488	2.549201531987
6	33610	27058.478099797783	1.103048072569
6	33644	27068.649339157691	1.756648456278
6	33652	27070.645533446292	6.085404065678
6	33672	27084.75951875358	1.191418884229
6	33684	27087.066328434209	1.611939248739
6	33695	27090.345844059839	1.424354658147
6	33720	27129.197608429955	0.989735628944
6	33735	27137.779319164089	0.90417645527
6	33740	27139.146005603157	6.669161425732
6	33745	27142.654076850964	0.890250375774
6	33765	27180.489306480652	6.878470776599
6	33770	27188.00031351907	0.975275210291
6	33775	27190.442623403418	1.188575403951
6	33790	27202.808291410076	0.921771120001
6	33815	27214.178248255306	4.468303146523
6	33820	27218.492998372977	0.996881805174
6	33830	27221.463738444107	1.419620082606
6	33835	27223.161867889888	0.98290002225
6	33840	27228.314600649208	1.154765904509
6	33845	27231.429870646377	1.043892436754
6	33850	27242.259249152636	0.816138154548
6	33865	27255.17044746855	1.189063354954
6	33890	27303.540217072998	1.139299717732
6	33900	27309.048781733647	1.125847242214
6	33910	27328.3694839386	0.860432878416
6	33920	27341.289717010555	1.114448030014
6	33925	27346.021097964129	0.805520995054
6	33937	27352.305123234502	1.08645318253
6	33945	27355.555552706416	4.027130297233
6	33950	27358.781358837625	0.839710698463
6	33960	27364.926770778442	2.185811333577
6	33980	27371.559402864313	5.433500630282
6	33990	27378.212269238103	1.175561693683
6	33995	27380.259929752374	1.137343868613
6	34000	27382.961555912273	1.016168395057
6	34022	27405.614369613397	0.968958587665
6	34044	27425.103624382102	1.075327895302
6	34047	27426.052749456511	3.329576491935
6	34055	27433.60808776289	1.11775034871
6	34090	27477.049331602148	2.279971537286
6	34095	27479.561480480953	1.111851616763
6	34105	27496.49497259308	0.912064623274
6	34120	27509.511756047852	0.929900115542
6	34135	27548.075999563369	0.86788638616
6	34140	27551.217147510578	0.811662512459
6	34155	27565.31808384383	1.313376428171
6	34160	27567.411634109825	1.077562327869
6	34165	27571.612801715613	0.84840291962
6	34190	27589.223277561635	3.160993527509
6	34197	27591.373296053775	1.07211993048
6	34205	27596.088070102664	1.19698014548
6	34220	27600.492092642263	1.722690669669
6	34227	27601.760349557618	1.101753012091
6	34237	27606.448954783288	5.33507969934
6	34252	27616.42493246696	7.422502271298
6	34262	27618.536311467598	1.633550704615
6	34265	27619.730053639552	1.662659988617
6	34270	27643.182634443179	1.192341859452
6	34290	27664.172476623198	1.160979107488
6	34312	27677.96029368092	1.498458964932
6	34330	27700.713938199308	0.900872760825
6	34355	27709.47214738761	11.124357758272
6	34365	27727.364819829878	1.010640632827
6	34370	27740.22588851674	1.038916269317
6	34375	27743.45928785806	0.928023859672
6	34384	27755.854029225271	1.177585429046
6	34389	27756.811079478815	1.479376449364
6	34397	27758.792468001406	2.310514983732
6	34400	27759.621024076074	4.180490520136
6	34434	27773.330557921647	0.942094506323
6	34442	27775.507269560105	2.11360739053
6	34450	27781.655520790011	1.162912069354
6	34462	27805.855016002027	1.863501734764
6	34467	27806.741370568206	1.593024409209
6	34472	27807.900790457675	1.781938639958
6	34475	27808.898244798431	1.397789868871
6	34480	27812.158609860887	0.855644183513
6	34485	27815.532699137884	0.996004053112
6	34510	27846.324151364371	1.034334402718
6	34515	27855.372429288274	0.916335145198
6	34520	27863.439818477078	0.852785201278
6	34545	27890.570508333865	1.525582015228
6	34550	27892.462910837545	0.957434185687
6	34555	27897.203834772953	1.006795095466
6	34565	27906.427753033564	1.067252074089
6	34575	27920.016295001199	1.07445977889
6	34580	27922.340968786947	0.835632351972
6	34592	27926.205843312328	1.857102827714
6	34595	27927.119686679763	1.801340048861
6	34609	27934.410782270365	1.122357282043
6	34625	27938.056938039277	4.543976757553
6	34630	27945.137948938861	0.920075502712
6	34635	27948.524083585317	0.964883000217
6	34640	27950.875593133573	0.821847045328
6	34670	27978.386030056449	1.074711074121
6	34682	27985.724514656783	1.155239448138
6	34700	28004.837629490986	1.182181165181
6	34730	28035.13040642224	1.461188482302
6	34735	28040.878542439096	1.141190457065
6	34740	28052.906995787889	0.915338085033
6	34767	28063.241874181124	6.955317168414
6	34775	28065.515102507463	9.151060820785
6	34780	28066.637987912686	1.030823426414
6	34787	28069.01363511407	1.123700542189
6	34797	28080.333111655054	0.900489207078
6	34805	28082.31364749986	1.690683009514
6	34815	28092.712499188922	1.150338193774
6	34820	28100.769009548323	0.930351749621
6	34825	28118.533399646903	1.038516231067
6	34830	28124.581193236435	0.971853498835
6	34847	28130.713492254818	1.563843818383
6	34872	28145.230961938243	1.112393177021
6	34875	28146.180135318305	1.23524909636
6	34885	28152.532181264668	1.110282469974
6	34890	28153.724635968284	3.219383887106
6	34905	28175.63759641066	1.178802428674
6	34910	28187.270537907231	0.863133090362
6	34915	28198.142472153453	1.16135478355
6	34920	28202.203990358714	0.864898578729
6	34925	28208.377353473794	1.120792406611
6	34930	28214.954817839488	1.075371974707
6	34935	28223.928880518025	0.880084826425
6	34940	28241.847161993861	0.861756980792
6	34945	28255.57167365326	0.832176920865
6	34955	28274.780235212331	0.859533277061
6	34960	28294.050636489248	0.819273086078
6	34965	28309.636562671359	1.080127027724
6	35002	28328.593830346516	5.513277424417
6	35010	28335.689961162955	0.897795692272
6	35015	28340.975744755363	1.06392756775
6	35020	28345.698743628113	0.989645658713
6	35042	28352.568453560999	3.853418205868
6	35045	28353.589136881331	1.385235262722
6	35057	28357.197708809907	1.098739414569
6	35065	28359.214646996344	1.778618112647
6	35070	28364.516246807342	1.089213827997
6	35075	28365.991547632016	1.018779190909
6	35080	28368.258877260015	0.84757973887
6	35095	28386.546317734093	0.874038409349
6	35100	28412.667930093428	0.881307987124
6	35105	28439.331544349753	1.104628386442
6	35125	28457.482638632719	5.825404111008
6	35132	28463.104461572713	0.803495724406
6	35152	28471.032107084136	2.502506147443
6	35165	28492.570710380267	0.839372100402
6	35170	28493.826731328447	1.174684401415
6	35180	28501.041376739304	1.046606063843
6	35185	28502.531363876857	1.07962210197
6	35192	28508.113748064393	0.861973804422
6	35195	28509.19780932212	1.338738288987
6	35210	28518.271265948814	4.375651714404
6	35227	28534.127106361929	1.006255289819
6	35232	28535.113363173604	1.086408485919
6	35240	28566.834554314232	1.149755840097
6	35255	28573.654395015005	1.050619718526
6	35262	28585.044283839761	0.869624479488
6	35277	28589.000364634599	1.619440901424
6	35295	28600.189577985446	1.803442635646
6	35310	28615.448886505285	0.894482370559
6	35315	28617.256746660372	0.847242329828
6	35325	28626.774886660332	1.523961233144
6	35335	28640.705248228945	1.099915958289
6	35355	28654.154137561937	1.674522351151
6	35365	28667.617773201446	0.935808667541
6	35380	28672.284830118943	2.636073413627
6	35395	28679.826586458334	0.924403820466
6	35407	28684.061465880498	1.932351945086
6	35410	28685.169950462449	2.899961363555
6	35415	28688.999358895855	1.029677598737
6	35440	28709.106134464328	0.940678477753
6	35450	28718.700908660343	1.195742972288
6	35455	28722.019860679347	0.928266542312
6	35462	28730.170034791978	1.093890670314
6	35465	28731.169118933642	1.445340768016
6	35472	28742.022705259879	1.102137844823
6	35480	28749.766676574491	1.144532620348
6	35485	28753.49166857813	1.066699097957
6	35500	28772.505739390346	1.125020276755
6	35520	28804.183138083076	1.058985795174
6	35530	28817.711643423892	4.374229969314
6	35545	28827.531316481738	1.232644142935
6	35565	28841.316435649552	6.370370334251
6	35570	28842.414431712622	0.903485499043
6	35575	28854.361533954842	0.850887239818
6	35582	28861.392473585733	1.042841999698
6	35609	28871.98176005324	1.349312781297
6	35617	28874.110629560329	6.708973007393
6	35624	28874.972180516362	8.246529907845
6	35670	28944.760685541039	1.164073290024
6	35675	28963.467637137497	0.85643359907
6	35680	28968.267441764782	0.961359434854
6	35687	28977.857589778999	0.901616874337
6	35695	28980.776128347859	1.037433281913
6	35707	28987.610803350778	1.134411362745
6	35720	28993.031261982421	0.940705213789
6	35725	29003.676326061492	0.993325121049
6	35740	29016.649735710871	1.02648575725
6	35745	29022.260278150147	1.073161559738
6	35755	29028.101411267645	1.114391291793
6	35760	29038.44378133275	0.815083820745
6	35775	29043.143714313923	0.993200037163
6	35794	29052.167612055398	1.564845347163
6	35799	29053.353976670362	3.267442951725
6	35810	29056.994234350372	0.835565236676
6	35822	29078.153254203509	0.86139032254
6	35825	29079.219292854156	1.155631107772
6	35835	29083.759713236515	1.18237604443
6	35840	29090.615689347001	0.935358057823
6	35845	29099.612824258618	1.130872671772
6	35850	29103.153873844424	1.032105049677
6	35862	29120.986815341793	2.323590924975
6	35865	29121.911757325891	1.514647182256
6	35870	29145.184545682657	0.972873568255
6	35877	29150.955746828681	0.851894009393
6	35885	29152.833960141333	2.558597161484
6	35905	29166.840482287549	1.246460071472
6	35925	29179.232549472283	1.101386110306
6	35945	29202.813681957089	1.112098031957
6	35955	29206.890437898402	3.216343262715
6	35970	29213.101952141528	1.096617071703
6	35975	29215.36134082417	7.609007182465
6	35987	29235.946874630221	1.556512652257
6	35990	29237.044690587048	1.318615007078
6	35995	29245.074021245053	1.185180311278
6	36000	29247.887221986847	1.117825137358
6	36012	29251.224419288377	0.996622504946
6	36015	29252.123412206343	2.948363539764
6	36020	29253.34990040922	0.86293524038
6	36025	29255.307294254915	1.146485376079
6	36040	29271.809541138613	0.998781033326
6	36045	29275.211863659414	1.048222216219
6	36055	29285.351801692138	1.112332683429
6	36060	29287.233294586035	0.850009234529
6	36070	29295.401547200559	3.182142071566
6	36075	29297.202705862676	0.917495156266
6	36087	29304.999533268239	1.075549729355
6	36105	29328.573989749138	0.852058666665
6	36127	29339.32139167722	7.613012187484
6	36130	29340.334497618318	1.406269531629
6	36140	29355.199891329722	4.159592797917
6	36160	29374.216568762746	2.828971377987
6	36180	29398.893204251331	1.027085424028
6	36185	29401.161444066754	1.130473009404
6	36227	29421.096394799162	4.391942916695
6	36265	29440.805932177788	5.439312661806
6	36275	29447.772272220715	1.076093635522
6	36280	29461.414986108885	0.947149994969
6	36290	29470.36568837897	1.024208576791
6	36297	29471.505240294534	3.290663972342
6	36307	29473.701156504463	1.692737234834
6	36315	29476.132525502109	1.04687254969
6	36320	29477.865195283288	0.899414188415
6	36325	29488.053448395804	0.826191555429
6	36330	29493.477781760011	1.036463177577
6	36335	29503.93319025582	1.19038939951
6	36342	29510.111598679384	0.87732635038
6	36352	29512.604414147388	0.982065096684
6	36367	29515.372121749275	1.683392818962
6	36375	29527.327633714032	0.976380761433
6	36380	29529.109985717371	1.059543749969
6	36385	29542.194898129792	1.104554331768
6	36405	29574.400069715505	2.02879750183
6	36415	29582.661684775342	1.008250557352
6	36420	29590.519984966109	0.869233589154
6	36425	29593.310604807553	0.873317799158
6	36430	29600.185835849006	0.906865259912
6	36445	29606.160889839217	0.848638576549
6	36450	29607.904938292657	0.808866623975
6	36455	29616.641110196801	1.16210779259
6	36475	29632.791411835295	3.418783523026
6	36485	29636.663183934455	0.822443191707
6	36505	29650.59895662471	3.324668602978
6	36510	29655.666970311821	0.821095896605
6	36515	29668.103803572353	0.938288885541
6	36522	29671.00305055315	1.002523326129
6	36545	29675.615035349413	1.89432270803
6	36550	29677.472252874499	0.954649592005
6	36555	29692.608883483808	0.845660463907
6	36580	29703.713441936557	1.098218004257
6	36590	29709.576052399788	1.727356457012
6	36600	29716.955313497837	1.189740481507
6	36612	29725.799378815336	1.177319401223
6	36620	29729.008325594969	3.705305650296
6	36625	29740.451040585136	0.912578583229
6	36632	29748.44959053923	0.919934694376
6	36635	29749.357415185725	1.413257237905
6	36650	29763.796229124627	1.126675772481
6	36662	29767.551923801252	0.878870222997
6	36679	29770.481672073681	3.32257117733
6	36682	29771.581674914401	1.937727060701
6	36690	29773.477038389783	1.351790342883
6	36707	29790.109501242924	0.9720568682
6	36712	29790.967938076619	1.795608921318
6	36730	29797.726938312878	0.901143596321
6	36752	29819.281557632429	1.490038392592
6	36760	29821.776370079471	3.297962129487
6	36765	29823.28551770966	0.921292986348
6	36772	29829.274980125138	0.967452222947
6	36775	29830.1932317287	1.355583029404
6	36785	29838.646386156348	2.081167852087
6	36795	29843.222911017434	1.001201349776
6	36815	29853.286484489672	3.007629422005
6	36820	29855.424326493143	0.807041622233
6	36830	29869.028339604606	0.86607743632
6	36845	29884.849140576941	1.148624171223
6	36852	29886.720904605457	0.948430731148
6	36855	29887.641331020085	1.129307944897
6	36860	29897.549891997466	1.032671749312
6	36869	29901.827489896707	0.963937683403
6	36882	29905.886964246274	4.328459058515
6	36897	29909.131231566018	1.060995774344
6	36910	29912.481574940053	1.060308956541
6	36915	29913.483738987402	7.844571907343
6	36937	29923.552185731497	0.910877940059
6	36940	29924.716291119088	1.75144976506
6	36945	29929.041042341612	1.008146760799
6	36955	29933.491528764005	2.160703638741
6	36960	29935.34647395188	0.844941800646
6	36967	29936.81453409508	1.013131630793
6	36970	29937.681089372059	1.33335536517
6	36985	29958.078766114012	0.844603903871
6	36990	29965.406167862291	1.114578637015
6	36995	29968.209089174346	1.099989999924
6	37010	29973.808656398113	0.800740396976
6	37022	29981.848462659343	1.861160035371
6	37032	29992.074397467732	1.167983905319

