version 2
run Second_exit_8-14-20191114-11:42:47-8962
attr configname Second_exit_8
attr datetime 20191114-11:42:47
attr experiment Second_exit_8
attr inifile omnetpp.ini
attr iterationvars ""
attr iterationvarsf ""
attr measurement ""
attr network ResponseTimeNetwork
attr processid 8962
attr repetition 14
attr replication #14
attr resultdir results
attr runnumber 14
attr seedset 14
param **.Source.interArrivalTime exponential(5s)
param **.jobPriority bernoulli(0.6)
param **.PS.serviceTimeU1 "uniform(0.8s, 1.2s)"
param **.PS.serviceTimeU2 "uniform(1.8s, 2.2s)"
param **.SS1.serviceTime exponential(1s)
param **.SS2.serviceTime exponential(1.2s)
param **.PS.exitProbability bernoulli(0.8)

vector 0 ResponseTimeNetwork.QueueU2 queueLength:vector ETV
attr interpolationmode sample-hold
attr title "queue length, vector"
vector 1 ResponseTimeNetwork.sink lifeTimeU2:vector ETV
attr interpolationmode none
attr title "lifetime of arrived jobs U2, vector"
attr unit s
vector 2 ResponseTimeNetwork.sink totalServiceTimeU2:vector ETV
attr interpolationmode none
attr title "the total time spent  by arrived jobs U2, vector"
attr unit s
vector 3 ResponseTimeNetwork.sink lifeTime:vector ETV
attr interpolationmode none
attr title "lifetime of arrived jobs, vector"
attr unit s
vector 4 ResponseTimeNetwork.sink totalServiceTime:vector ETV
attr interpolationmode none
attr title "the total time spent  by arrived jobs, vector"
attr unit s
vector 5 ResponseTimeNetwork.QueueU1 queueLength:vector ETV
attr interpolationmode sample-hold
attr title "queue length, vector"
vector 6 ResponseTimeNetwork.SS1 queueLength:vector ETV
attr interpolationmode sample-hold
attr title "queue length, vector"
vector 7 ResponseTimeNetwork.sink lifeTimeU1:vector ETV
attr interpolationmode none
attr title "lifetime of arrived jobs U1, vector"
attr unit s
vector 8 ResponseTimeNetwork.sink totalServiceTimeU1:vector ETV
attr interpolationmode none
attr title "the total time spent  by arrived jobs U1, vector"
attr unit s
vector 9 ResponseTimeNetwork.SS2 queueLength:vector ETV
attr interpolationmode sample-hold
attr title "queue length, vector"
0	48721	10000.814392783975	60
0	48724	10001.821041995583	59
0	48742	10003.94624922723	60
0	48749	10004.806233473291	61
0	48766	10009.238919841607	60
0	48785	10012.589252013762	61
0	48786	10013.162103298042	60
0	48795	10014.629150302006	61
0	48796	10015.378732927345	60
0	48839	10024.573313743543	59
0	48842	10025.511842635382	58
0	48846	10026.168942265299	59
0	48855	10027.340820891358	60
0	48869	10030.654389527827	59
0	48872	10031.613730015806	58
0	48875	10032.543541351161	57
0	48879	10033.499928114836	58
0	48880	10033.531501739579	57
0	48886	10034.198640728309	58
0	48891	10034.770220181283	59
0	48892	10035.363820425155	58
0	48915	10039.246576304901	59
0	48917	10039.418942068831	60
0	48969	10049.522333999129	61
0	49001	10055.287996198164	62
0	49008	10058.30053114883	61
0	49011	10059.402634769691	60
0	49024	10060.705302233505	61
0	49029	10061.67261997043	62
0	49036	10062.885590990497	63
0	49093	10074.497718811771	64
0	49102	10076.925799518927	63
0	49110	10079.105859287559	62
0	49113	10079.906797035049	61
0	49122	10081.410883960263	62
0	49123	10081.585836572211	61
0	49126	10082.387696851335	60
0	49130	10083.082074640091	61
0	49131	10083.369943042855	60
0	49134	10084.204333054564	59
0	49138	10085.218818902153	60
0	49139	10085.25276509124	59
0	49142	10086.203781635139	58
0	49146	10086.983418347268	59
0	49148	10087.019504272377	60
0	49149	10087.198353781376	59
0	49152	10088.069436771993	58
0	49155	10088.974431374588	57
0	49158	10090.09954139815	56
0	49162	10090.805618005279	57
0	49164	10090.893385973625	58
0	49165	10091.162462386129	57
0	49168	10091.984823695862	56
0	49171	10093.123946589151	55
0	49175	10094.079964509761	56
0	49176	10094.182335595427	55
0	49179	10095.099312602835	54
0	49183	10095.237946318391	55
0	49185	10095.387479262717	56
0	49187	10095.548306266638	57
0	49189	10095.859482347097	58
0	49190	10095.910172596308	57
0	49193	10096.776932714427	56
0	49196	10097.850040067932	55
0	49200	10098.361528747615	56
0	49201	10098.670608497145	55
0	49215	10100.969730176152	56
0	49224	10102.308393499014	57
0	49226	10102.912974132701	58
0	49230	10104.070010351962	57
0	49236	10104.831255316366	58
0	49241	10105.051425852849	59
0	49243	10105.229882930258	60
0	49244	10105.808786021373	59
0	49247	10106.881033739554	58
0	49263	10109.547651415005	59
0	49265	10109.569439102718	60
0	49279	10113.268832481852	59
0	49282	10114.193752591139	58
0	49286	10114.539637193957	59
0	49287	10115.379519181153	58
0	49291	10115.721103405017	59
0	49292	10116.220817981487	58
0	49296	10116.658791301925	59
0	49297	10117.256667573763	58
0	49301	10117.46764445245	59
0	49302	10118.078394932313	58
0	49305	10119.027241261689	57
0	49308	10119.977491597658	56
0	49311	10120.958148031322	55
0	49314	10121.798977350643	54
0	49318	10122.540573448571	55
0	49319	10122.900856095472	54
0	49323	10123.192162504789	55
0	49325	10123.490443281066	56
0	49326	10123.824114599557	55
0	49334	10125.936877314573	54
0	49338	10126.380761119473	55
0	49344	10128.18777588868	54
0	49348	10128.611937249311	55
0	49349	10129.328087521637	54
0	49353	10129.489216742187	55
0	49357	10129.924323291208	56
0	49362	10130.543451968492	57
0	49363	10131.620691856755	56
0	49371	10133.640457296198	55
0	49375	10133.861072957003	56
0	49389	10136.420528189837	57
0	49391	10136.469550323434	58
0	49415	10141.631505972718	57
0	49430	10142.954747936382	58
0	49470	10152.472704925121	57
0	49473	10153.305392034457	56
0	49488	10155.243401102506	57
0	49495	10155.772380579673	58
0	49502	10156.473183823979	59
0	49504	10156.925653604392	60
0	49506	10157.406456975478	61
0	49531	10163.278676008633	60
0	49534	10164.377407913203	59
0	49538	10164.671509432124	60
0	49540	10165.208128105208	61
0	49546	10166.61191644316	60
0	49550	10167.702269546673	61
0	49551	10167.794362682862	60
0	49559	10168.309146906343	61
0	49561	10168.522757085341	62
0	49566	10169.089197680084	63
0	49568	10169.101106016846	64
0	49592	10175.390187906394	63
0	49595	10176.577038970137	62
0	49599	10177.078476926324	63
0	49600	10177.512536738826	62
0	49604	10177.530303061391	63
0	49605	10178.49781261302	62
0	49611	10179.261665674966	63
0	49621	10180.340420850856	64
0	49622	10181.309126993748	63
0	49625	10182.206462326846	62
0	49634	10183.564926189131	63
0	49635	10184.210271196826	62
0	49643	10186.415762068904	61
0	49656	10189.639828181467	60
0	49674	10192.130290607847	61
0	49706	10197.884671764615	62
0	49723	10200.669754142796	63
0	49781	10211.112617279842	64
0	49936	10240.959322626268	65
0	49993	10252.531781421584	66
0	50057	10265.912332702786	67
0	50146	10281.057262462481	68
0	50156	10282.709806654983	69
0	50158	10282.829264865169	70
0	50217	10294.990390908899	71
0	50264	10303.342738553321	72
0	50323	10315.128038657843	73
0	50340	10318.325800699712	74
0	50347	10320.516958833312	73
0	50355	10321.363342463388	74
0	50365	10322.657495404808	75
0	50369	10324.099367268396	74
0	50373	10324.483476820217	75
0	50380	10325.466878895769	76
0	50381	10326.255071938329	75
0	50384	10327.397715511464	74
0	50397	10329.007630597271	75
0	50402	10329.52357509111	76
0	50406	10331.342512214941	75
0	50409	10332.305289525923	74
0	50420	10333.309053346096	75
0	50429	10334.602201806781	76
0	50433	10335.109271723842	77
0	50486	10345.618504308429	78
0	50495	10347.632338709785	79
0	50502	10349.751528264873	78
0	50505	10350.558262177103	77
0	50516	10351.678753611705	78
0	50521	10353.167809380628	79
0	50542	10357.611598980905	78
0	50545	10358.758534651262	77
0	50549	10358.845332669073	78
0	50550	10359.720139659302	77
0	50553	10360.589120220778	76
0	50559	10361.333785578976	77
0	50564	10362.282314913947	78
0	50566	10362.351165016652	79
0	50567	10362.794632870996	78
0	50570	10363.603371332878	77
0	50576	10364.142688492813	78
0	50580	10365.617311490526	77
0	50586	10366.338999314001	78
0	50591	10366.908040962925	79
0	50597	10369.004800042895	78
0	50616	10372.056433656594	79
0	50622	10374.014191367116	78
0	50626	10374.949540960396	79
0	50627	10375.166793537617	78
0	50636	10376.3416906382	79
0	50637	10377.322925591573	78
0	50643	10377.56177711178	79
0	50648	10378.82924386438	80
0	50649	10379.447046597127	79
0	50658	10380.829350114964	80
0	50659	10381.442768097215	79
0	50668	10382.564750917525	80
0	50669	10383.359367483121	79
0	50678	10384.601249371194	80
0	50680	10385.450172942461	81
0	50681	10385.568203649402	80
0	50684	10386.485291327361	79
0	50690	10386.920685002952	80
0	50694	10388.589644920931	79
0	50698	10388.864288798377	80
0	50699	10389.611530635332	79
0	50702	10390.659706234106	78
0	50711	10391.80787189256	79
0	50712	10392.638352603664	78
0	50720	10394.5306182054	77
0	50724	10394.986590081305	78
0	50725	10395.410884722894	77
0	50729	10396.388953397931	78
0	50730	10396.481165898139	77
0	50734	10396.500904599202	78
0	50735	10397.289694462171	77
0	50739	10397.847401097408	78
0	50740	10398.127306181299	77
0	50744	10398.269009869101	78
0	50746	10398.325742291528	79
0	50747	10399.052203111271	78
0	50751	10399.424016658573	79
0	50752	10400.058010747204	78
0	50755	10400.98951271783	77
0	50758	10402.050341264265	76
0	50761	10403.090574856768	75
0	50765	10403.431775668679	76
0	50769	10403.710069740285	77
0	50773	10404.839409749037	76
0	50776	10405.680067532244	75
0	50780	10406.727952906586	76
0	50781	10406.738198024235	75
0	50787	10407.304411868953	76
0	50789	10407.307831896931	77
0	50796	10408.274131681712	78
0	50806	10409.588406545312	79
0	50825	10412.566055041917	80
0	50829	10414.317072201814	79
0	50837	10416.256224198747	78
0	50846	10417.311896483749	79
0	50848	10417.650829814311	80
0	50849	10418.072547373376	79
0	50852	10418.891121057528	78
0	50855	10419.792685535843	77
0	50858	10420.95093454366	76
0	50861	10421.817740106037	75
0	50865	10422.141107336587	76
0	50867	10422.221594944841	77
0	50868	10422.961780033087	76
0	50871	10423.791071650305	75
0	50875	10424.190732328881	76
0	50882	10425.324785503523	77
0	50883	10425.65257726583	76
0	50887	10426.418052463041	77
0	50888	10426.624411352457	76
0	50892	10426.903460967002	77
0	50893	10427.706642779348	76
0	50897	10428.450282191967	77
0	50898	10428.694972299704	76
0	50901	10429.520878580225	75
0	50904	10430.618250229222	74
0	50908	10431.154947937212	75
0	50910	10431.221800247039	76
0	50911	10431.566981709109	75
0	50914	10432.693037544855	74
0	50918	10433.166048322574	75
0	50919	10433.778995912255	74
0	50922	10434.607439115004	73
0	50925	10435.793528980215	72
0	50929	10436.219824912529	73
0	50930	10436.841186952696	72
0	50934	10436.841376507613	73
0	50935	10438.000365247124	72
0	50939	10438.083810231332	73
0	50941	10438.328523297258	74
0	50942	10438.925795190235	73
0	50945	10440.008247568191	72
0	50949	10440.705399600441	73
0	50951	10441.043325949884	74
0	50952	10441.058607976337	73
0	50955	10442.130267937121	72
0	50959	10443.177157949038	73
0	50960	10443.229197442451	72
0	50966	10443.636344020043	73
0	50968	10443.933449595565	74
0	50973	10444.149810382173	75
0	50977	10444.652761949304	76
0	50991	10447.917529992214	75
0	50999	10450.011543435803	74
0	51007	10452.053533282237	73
0	51010	10452.947440549744	72
0	51019	10454.567506577629	73
0	51020	10454.746045665642	72
0	51028	10455.54676768804	73
0	51033	10456.295045282921	74
0	51038	10457.07947523805	75
0	51039	10458.097554465955	74
0	51043	10458.481259753875	75
0	51050	10459.666563054028	76
0	51051	10460.270681896819	75
0	51059	10462.090778826377	74
0	51063	10462.648582399092	75
0	51064	10463.195342430113	74
0	51068	10463.668941498611	75
0	51074	10465.17344154214	74
0	51082	10466.043685773472	75
0	51089	10468.436804524823	74
0	51102	10469.794871998382	75
0	51104	10469.852049673007	76
0	51116	10473.38280334651	75
0	51127	10474.585498370194	76
0	51171	10483.031553740633	77
0	51183	10486.359995601712	76
0	51221	10494.593105255546	75
0	51230	10495.720252451369	76
0	51231	10496.797751621729	75
0	51245	10498.578911870752	76
0	51251	10500.806918655349	75
0	51254	10501.798383267982	74
0	51258	10502.002085475298	75
0	51260	10502.216235660557	76
0	51261	10502.601647905925	75
0	51264	10503.533819296689	74
0	51270	10503.879653385826	75
0	51275	10504.61073537079	76
0	51276	10505.411141018955	75
0	51290	10507.972927241786	76
0	51291	10508.496466588895	75
0	51294	10509.508080357886	74
0	51300	10509.845122282449	75
0	51304	10511.697464985507	74
0	51308	10512.342084841003	75
0	51319	10514.672672459125	74
0	51327	10516.659402118359	73
0	51330	10517.793140744619	72
0	51333	10518.915776486617	71
0	51337	10519.550471060816	72
0	51338	10520.064556465313	71
0	51341	10521.124928376001	70
0	51344	10522.110003889181	69
0	51348	10522.363673345051	70
0	51349	10523.293730772209	69
0	51353	10523.86982263013	70
0	51355	10524.156425228699	71
0	51356	10524.438451064952	70
0	51359	10525.358417735078	69
0	51363	10525.607109590419	70
0	51364	10526.454559128654	69
0	51367	10527.59245201565	68
0	51370	10528.581924740799	67
0	51374	10528.737877939066	68
0	51376	10529.448271504681	69
0	51377	10529.73951320808	68
0	51380	10530.636781694103	67
0	51384	10531.147768973914	68
0	51385	10531.599878525563	67
0	51389	10531.997942619984	68
0	51390	10532.597819273841	67
0	51394	10533.11451185763	68
0	51395	10533.700498449445	67
0	51399	10534.075123220466	68
0	51400	10534.622698773552	67
0	51404	10534.78379516733	68
0	51406	10535.520238729764	69
0	51407	10535.696592478935	68
0	51410	10536.775182965041	67
0	51414	10537.131567053102	68
0	51415	10537.863711286538	67
0	51423	10539.858635828939	66
0	51426	10540.713131863174	65
0	51430	10540.926334789742	66
0	51431	10541.565758733002	65
0	51435	10542.116274380217	66
0	51436	10542.646064208278	65
0	51439	10543.513382396211	64
0	51442	10544.366163385489	63
0	51446	10544.427395842865	64
0	51447	10545.409276501012	63
0	51451	10545.577092416105	64
0	51452	10546.484266788528	63
0	51455	10547.30406707117	62
0	51458	10548.345739371252	61
0	51462	10548.804014914352	62
0	51463	10549.544055296683	61
0	51467	10550.308359964135	62
0	51468	10550.39573224738	61
0	51477	10551.393065905237	62
0	51479	10551.469733913162	63
0	51480	10552.467505831567	62
0	51484	10552.706803514725	63
0	51486	10553.013528468873	64
0	51487	10553.490415143983	63
0	51496	10555.444679788838	64
0	51497	10555.617501990234	63
0	51503	10556.122443971461	64
0	51505	10556.178255842246	65
0	51510	10557.058959501251	66
0	51511	10557.391353986801	65
0	51517	10557.592902973985	66
0	51519	10558.005250032973	67
0	51526	10559.350094996959	68
0	51531	10559.800636183675	69
0	51532	10560.241910602075	68
0	51538	10560.913566488062	69
0	51548	10563.144858118473	70
0	51549	10563.639958030653	69
0	51557	10565.751562847678	68
0	51560	10566.64892709769	67
0	51563	10567.730921215673	66
0	51566	10568.792343652544	65
0	51570	10569.338552235033	66
0	51571	10569.729853306448	65
0	51575	10570.233689200296	66
0	51577	10570.856377672994	67
0	51578	10570.865635860169	66
0	51581	10572.005799284594	65
0	51584	10573.093012347275	64
0	51587	10574.118446111044	63
0	51590	10575.006449305842	62
0	51593	10576.037506974226	61
0	51597	10576.395310720882	62
0	51599	10576.453806904221	63
0	51600	10577.168311864713	62
0	51604	10577.671027921443	63
0	51606	10577.900119141547	64
0	51607	10578.062648448923	63
0	51610	10578.883573581946	62
0	51614	10579.399405172851	63
0	51615	10579.864739055575	62
0	51619	10580.723991746188	63
0	51620	10580.915082488691	62
0	51624	10581.469893047021	63
0	51625	10581.930945336556	62
0	51629	10582.377737848746	63
0	51631	10582.701959860487	64
0	51632	10582.971780605165	63
0	51635	10584.006832712998	62
0	51638	10585.128917663654	61
0	51641	10586.308807627594	60
0	51645	10586.316194037065	61
0	51647	10586.660857902826	62
0	51649	10586.889903816738	63
0	51650	10587.472075749485	62
0	51654	10587.729236077206	63
0	51655	10588.526585179771	62
0	51659	10588.591312198929	63
0	51660	10589.344080059248	62
0	51664	10589.902559460816	63
0	51665	10590.273934791162	62
0	51668	10591.141577294394	61
0	51672	10591.155018742084	62
0	51673	10592.058531177621	61
0	51676	10592.863574376069	60
0	51680	10593.536435566888	61
0	51682	10593.643467117045	62
0	51683	10593.958191931173	61
0	51686	10594.78043234108	60
0	51690	10594.968964127592	61
0	51691	10595.614313817043	60
0	51695	10596.572665337902	61
0	51696	10596.77861266939	60
0	51699	10597.840593181663	59
0	51703	10598.628077156692	60
0	51704	10598.657039950062	59
0	51707	10599.646154468526	58
0	51710	10600.686042903849	57
0	51714	10600.706463246597	58
0	51716	10600.970375296618	59
0	51717	10601.538566806373	58
0	51720	10602.413810865414	57
0	51723	10603.258965817765	56
0	51727	10603.711863462493	57
0	51729	10603.973674338071	58
0	51730	10604.260519166217	57
0	51734	10605.106989525914	58
0	51735	10605.194608853404	57
0	51739	10605.283528123786	58
0	51741	10605.51709114252	59
0	51742	10606.193102347218	58
0	51745	10607.118371463959	57
0	51749	10607.151870895967	58
0	51751	10607.689268041748	59
0	51752	10607.941330136844	58
0	51756	10608.773800578037	59
0	51757	10609.076743793787	58
0	51760	10610.214702226987	57
0	51764	10610.743829107122	58
0	51765	10611.033874188198	57
0	51768	10612.10961053299	56
0	51772	10612.751334617806	57
0	51773	10613.273101195062	56
0	51777	10613.312283065202	57
0	51778	10614.438819150368	56
0	51781	10615.589126773479	55
0	51784	10616.473513999323	54
0	51787	10617.607486846598	53
0	51790	10618.476946755985	52
0	51794	10619.196541031946	53
0	51795	10619.665047698675	52
0	51798	10620.478123587856	51
0	51802	10621.029669516993	52
0	51803	10621.458671940977	51
0	51807	10621.569896439372	52
0	51809	10621.735414623667	53
0	51811	10621.905751570637	54
0	51813	10622.384485044412	55
0	51814	10622.446327949522	54
0	51817	10623.451419772787	53
0	51823	10623.726408982129	54
0	51825	10623.897999622968	55
0	51827	10624.032408122346	56
0	51831	10625.484247574976	55
0	51837	10626.190629357826	56
0	51842	10626.778154782814	57
0	51843	10627.786350971854	56
0	51846	10628.978483210432	55
0	51850	10629.447331219174	56
0	51851	10630.075809357616	55
0	51855	10630.489964057309	56
0	51856	10631.156180254578	55
0	51862	10632.145505157544	56
0	51877	10634.711489792173	57
0	51883	10636.154272248339	56
0	51899	10638.668451553453	57
0	51903	10640.174852568586	56
0	51906	10641.00647101209	55
0	51917	10642.060486367501	56
0	51931	10644.679577891491	57
0	51941	10646.211617115533	58
0	51950	10648.631626524892	57
0	51968	10652.504843929899	56
0	51974	10653.565182056966	57
0	51979	10653.845453244879	58
0	51980	10654.773634033115	57
0	51983	10655.695890831971	56
0	51986	10656.760575081804	55
0	51990	10656.790071227128	56
0	51999	10658.017603803601	57
0	52001	10658.056187086785	58
0	52015	10661.799826939241	57
0	52018	10662.634321207483	56
0	52022	10663.143600415492	57
0	52026	10663.517036617403	58
0	52031	10664.045922635648	59
0	52037	10665.456544833839	58
0	52043	10666.040328930569	59
0	52047	10667.329313968145	58
0	52051	10667.959877964618	59
0	52057	10669.599437543959	58
0	52065	10671.36359901505	57
0	52069	10671.600465845513	58
0	52075	10673.411911025108	57
0	52084	10674.478994508839	58
0	52086	10674.719002792413	59
0	52087	10675.567010515672	58
0	52090	10676.575535798189	57
0	52099	10678.120573114175	58
0	52100	10678.218474599556	57
0	52104	10678.910862289837	58
0	52105	10679.250323931896	57
0	52108	10680.200061378465	56
0	52114	10681.083996814266	57
0	52116	10681.145323485827	58
0	52120	10682.147630875394	57
0	52128	10684.330071414471	56
0	52136	10686.097263052337	55
0	52144	10688.325896215927	54
0	52150	10688.908665781045	55
0	52157	10689.452579108221	56
0	52162	10690.624789725205	57
0	52168	10692.066064751729	56
0	52171	10692.87797405098	55
0	52175	10693.528423000519	56
0	52176	10693.961597221181	55
0	52179	10694.859700113185	54
0	52183	10695.274413019834	55
0	52184	10695.834491798584	54
0	52193	10697.277451286801	55
0	52194	10697.638462353613	54
0	52202	10699.597969863586	53
0	52208	10700.485737770197	54
0	52215	10701.048852412867	55
0	52219	10702.595620175008	54
0	52222	10703.543439609114	53
0	52237	10705.033853409992	54
0	52239	10705.329860711462	55
0	52246	10706.074984946296	56
0	52248	10706.078911904084	57
0	52281	10712.620410064648	58
0	52315	10719.997702081991	57
0	52318	10721.089298043051	56
0	52322	10721.10906285796	57
0	52335	10722.289739531051	58
0	52389	10733.465355575219	59
0	52401	10735.47146724279	60
0	52502	10756.841077357785	61
0	52561	10769.881761119632	60
0	52564	10770.893628418377	59
0	52568	10771.112255463775	60
0	52569	10771.884979268467	59
0	52580	10773.504985529449	60
0	52587	10774.864117156804	61
0	52696	10797.378943344509	60
0	52716	10799.404396755745	61
0	52718	10799.987415147712	62
0	52725	10800.57513349491	63
0	52835	10823.898981339881	62
0	52843	10826.016989542941	61
0	52847	10826.271736306362	62
0	52851	10826.841127669213	63
0	52858	10827.968165795079	64
0	52927	10841.993482073423	63
0	52954	10844.865990006691	64
0	52986	10851.048793626256	65
0	53030	10860.810753739641	66
0	53041	10863.95416328807	65
0	53047	10864.585957892142	66
0	53051	10866.06114538631	65
0	53054	10866.940793202748	64
0	53063	10868.149344058434	65
0	53067	10868.798633781203	66
0	53069	10868.83101475169	67
0	53093	10873.907022904908	66
0	53102	10875.314653625782	67
0	53103	10875.853280535271	66
0	53112	10876.731199825602	67
0	53113	10877.592224457791	66
0	53121	10879.649685924618	65
0	53125	10879.700157351941	66
0	53131	10881.470616717475	65
0	53139	10883.623614495272	64
0	53147	10885.689193720581	63
0	53150	10886.869451687137	62
0	53154	10887.03722102349	63
0	53155	10887.965493401816	62
0	53171	10890.12742547907	63
0	53175	10892.298548959593	62
0	53188	10894.024554132231	63
0	53245	10905.450381914457	64
0	53250	10906.226051584419	65
0	53259	10907.483234510669	66
0	53324	10918.841460715674	67
0	53353	10924.193816632888	68
0	53381	10929.925638567552	69
0	53419	10937.571355699159	70
0	53444	10944.212630398035	69
0	53447	10945.251747343618	68
0	53458	10947.178827325689	69
0	53477	10951.073923191171	68
0	53486	10952.986182063532	69
0	53487	10953.021811091177	68
0	53490	10954.192724599711	67
0	53494	10954.743847508063	68
0	53495	10955.208995228376	67
0	53498	10956.024019402288	66
0	53504	10956.667812384269	67
0	53506	10956.672146907835	68
0	53515	10957.526097997437	69
0	53527	10960.614403709512	68
0	53530	10961.46477264848	67
0	53538	10963.506510835071	66
0	53542	10964.077504432455	67
0	53543	10964.564086467051	66
0	53547	10964.730098227457	67
0	53554	10965.517428438116	68
0	53560	10967.495361412806	67
0	53569	10969.045683563423	68
0	53570	10969.246410460235	67
0	53573	10970.159856973333	66
0	53576	10971.340192147927	65
0	53580	10971.399500950765	66
0	53581	10972.232866716688	65
0	53585	10972.782922306072	66
0	53586	10973.229006463127	65
0	53589	10974.104528609315	64
0	53593	10974.349146650158	65
0	53594	10975.111266194495	64
0	53597	10976.200465229551	63
0	53601	10976.293749148198	64
0	53603	10976.638041235807	65
0	53605	10976.759597275037	66
0	53606	10977.07996808414	65
0	53609	10977.934194299324	64
0	53613	10977.97378946539	65
0	53614	10978.742103326811	64
0	53617	10979.809902619968	63
0	53621	10979.904396861759	64
0	53622	10980.635940815626	63
0	53626	10980.657010161375	64
0	53627	10981.438557580604	63
0	53630	10982.629594041246	62
0	53633	10983.552857288464	61
0	53641	10985.641426422286	60
0	53645	10986.017309135763	61
0	53651	10987.650507678862	60
0	53659	10989.881890602062	59
0	53663	10990.803806282112	60
0	53664	10990.868774773019	59
0	53668	10990.929706253074	60
0	53675	10992.056256085706	61
0	53677	10992.600580516144	62
0	53678	10992.724375449611	61
0	53681	10993.554500695529	60
0	53684	10994.431203927124	59
0	53690	10994.999448138117	60
0	53692	10995.299808312785	61
0	53697	10995.407986982144	62
0	53699	10995.670209615457	63
0	53700	10996.477101522802	62
0	53704	10996.520422985933	63
0	53706	10996.782991532092	64
0	53713	10998.061638894798	65
0	53714	10998.372359027738	64
0	53723	11000.407387128858	65
0	53724	11000.414866688872	64
0	53728	11000.984169186556	65
0	53734	11002.415903896305	64
0	53742	11004.610436873815	63
0	53748	11005.06734848674	64
0	53753	11005.796707077815	65
0	53754	11006.39818926037	64
0	53763	11007.453311493761	65
0	53774	11010.339607383709	64
0	53777	11011.453609364226	63
0	53780	11012.311755980018	62
0	53788	11014.401753872845	61
0	53792	11014.672142799366	62
0	53796	11015.132876487424	63
0	53800	11016.308245089396	62
0	53804	11016.994774250825	63
0	53805	11017.430410434052	62
0	53814	11018.527765631548	63
0	53820	11019.1725817694	64
0	53830	11020.525861418307	65
0	53870	11028.470100015844	66
0	53871	11029.484263051513	65
0	53884	11032.460477603159	64
0	53888	11033.029753047273	65
0	53889	11033.45683539475	64
0	53900	11035.33201165627	65
0	53904	11036.29932984051	64
0	53912	11038.281928714669	63
0	53915	11039.441866174551	62
0	53921	11040.244754080809	63
0	53925	11041.279148484512	62
0	53928	11042.405054738863	61
0	53931	11043.588788957732	60
0	53934	11044.408434636077	59
0	53938	11045.270273969942	60
0	53939	11045.33879594619	59
0	53943	11045.506564473771	60
0	53945	11045.674674952115	61
0	53947	11046.213904160554	62
0	53948	11046.499349307572	61
0	53952	11047.24379688834	62
0	53953	11047.511696583895	61
0	53957	11048.033112777228	62
0	53958	11048.543611743884	61
0	53961	11049.6698001683	60
0	53965	11049.880371950283	61
0	53967	11050.030757700035	62
0	53968	11050.796084054863	61
0	53972	11051.201238722825	62
0	53973	11051.935943527171	61
0	53976	11052.799884437887	60
0	53980	11052.963513426372	61
0	53982	11053.044439714466	62
0	53983	11053.775206883462	61
0	53986	11054.825997171854	60
0	53992	11055.68160503659	61
0	54002	11056.928953943184	62
0	54004	11057.00982438089	63
0	54005	11057.663063949463	62
0	54008	11058.676907520392	61
0	54014	11059.527368034126	62
0	54019	11059.933699828035	63
0	54020	11060.703879759019	62
0	54023	11061.766816560948	61
0	54031	11063.775509643113	60
0	54035	11063.998986545572	61
0	54044	11065.319134461228	62
0	54058	11068.376473096223	61
0	54071	11071.203915738525	60
0	54074	11072.150572195673	59
0	54097	11077.142445573794	58
0	54106	11078.360122830868	59
0	54125	11082.026522877069	60
0	54129	11082.977562442819	59
0	54132	11083.916688531755	58
0	54136	11084.054712453341	59
0	54148	11086.462600219379	60
0	54150	11086.790202767769	61
0	54151	11087.09814294365	60
0	54167	11089.428129850564	61
0	54176	11092.180146475536	60
0	54179	11093.301763561116	59
0	54182	11094.245953264581	58
0	54185	11095.311780525772	57
0	54189	11095.527788089874	58
0	54190	11096.165935637457	57
0	54198	11098.243885315051	56
0	54206	11100.256445307684	55
0	54212	11100.783096133524	56
0	54216	11102.308842671969	55
0	54219	11103.241587705378	54
0	54222	11104.207070242081	53
0	54231	11105.323797375141	54
0	54232	11106.346937738757	53
0	54241	11107.754001123754	54
0	54242	11108.417483417994	53
0	54246	11108.730767024486	54
0	54253	11110.560766033878	55
0	54254	11110.587291999279	54
0	54258	11111.419916468282	55
0	54267	11111.761885477564	56
0	54269	11112.293993264225	57
0	54271	11112.741062720327	58
0	54276	11113.61221258249	59
0	54278	11113.74476455557	60
0	54280	11113.797393116548	61
0	54281	11113.909225063237	60
0	54284	11114.86405673253	59
0	54288	11115.198903527209	60
0	54289	11115.958165060288	59
0	54293	11115.990722592397	60
0	54295	11116.206624557595	61
0	54297	11116.544676328173	62
0	54304	11117.071916329876	63
0	54308	11117.434401893701	64
0	54322	11121.249018838375	63
0	54325	11122.084197506148	62
0	54329	11122.754123036808	63
0	54330	11122.930928022533	62
0	54343	11123.842681228784	63
0	54353	11126.034725625007	64
0	54357	11127.678834596115	63
0	54382	11131.37841464564	64
0	54407	11137.764105789202	63
0	54423	11140.732978155053	64
0	54432	11142.985601445406	63
0	54445	11145.719291559073	62
0	54451	11146.557176691091	63
0	54458	11146.951937534486	64
0	54467	11149.853364260799	63
0	54470	11150.703444648931	62
0	54474	11151.548563196396	63
0	54475	11151.683740309743	62
0	54479	11151.944166989281	63
0	54488	11152.85424222764	64
0	54492	11154.582141496172	63
0	54495	11155.773194430141	62
0	54504	11156.985463038287	63
0	54506	11156.997364937209	64
0	54527	11161.432242467371	63
0	54536	11163.456048079975	64
0	54537	11163.61222013731	63
0	54540	11164.561571567994	62
0	54544	11165.231289361577	63
0	54545	11165.578609880362	62
0	54549	11166.365737173382	63
0	54550	11166.546037760772	62
0	54554	11167.026577536772	63
0	54555	11167.493025436741	62
0	54558	11168.580497352522	61
0	54561	11169.453319026087	60
0	54564	11170.608137523778	59
0	54568	11170.678219647745	60
0	54570	11170.798501002109	61
0	54571	11171.478001639456	60
0	54574	11172.435367443901	59
0	54578	11173.135205210844	60
0	54580	11173.205254375709	61
0	54582	11173.425394896219	62
0	54583	11173.492490891949	61
0	54591	11175.792584171262	60
0	54600	11177.311773925699	61
0	54601	11177.565102036693	60
0	54605	11178.15906999291	61
0	54606	11178.736039756075	60
0	54610	11179.327025319238	61
0	54611	11179.554543878627	60
0	54614	11180.360793594387	59
0	54617	11181.252960510575	58
0	54621	11182.139470381966	59
0	54622	11182.170173435216	58
0	54625	11182.999143686076	57
0	54628	11184.028209941672	56
0	54631	11184.896796661267	55
0	54635	11185.211571071395	56
0	54637	11185.382102315407	57
0	54638	11186.031744423626	56
0	54642	11186.341349673271	57
0	54644	11186.757651065199	58
0	54646	11186.932422093193	59
0	54647	11186.987169610454	58
0	54651	11187.367276470948	59
0	54652	11188.159502684815	58
0	54656	11188.483581877987	59
0	54657	11189.027040235071	58
0	54661	11189.154309840304	59
0	54663	11189.322420578992	60
0	54664	11190.036501174817	59
0	54668	11190.408131481567	60
0	54669	11190.902335644724	59
0	54673	11191.028032151373	60
0	54674	11191.816989874492	59
0	54677	11193.00515641824	58
0	54680	11194.188416843979	57
0	54683	11195.005613041042	56
0	54686	11195.846168577044	55
0	54690	11196.491930296216	56
0	54692	11196.632225872481	57
0	54693	11196.74855881876	56
0	54696	11197.625094147703	55
0	54705	11199.335583272608	56
0	54706	11199.738597810666	55
0	54714	11201.943836029644	54
0	54723	11203.2576498454	55
0	54724	11204.231405175316	54
0	54728	11204.281375980557	55
0	54730	11204.564772037499	56
0	54731	11205.174008651941	55
0	54735	11205.627338468591	56
0	54736	11206.246361830949	55
0	54739	11207.435243996724	54
0	54743	11207.617555498085	55
0	54744	11208.612012556966	54
0	54747	11209.513264618653	53
0	54751	11209.806682697561	54
0	54752	11210.422542794074	53
0	54755	11211.421491207208	52
0	54758	11212.312499690361	51
0	54762	11212.533426883585	52
0	54763	11213.278746493373	51
0	54767	11214.051860187825	52
0	54774	11214.53673005001	53
0	54775	11215.434068878301	52
0	54781	11216.10235136371	53
0	54786	11216.529196629664	54
0	54787	11217.521234435242	53
0	54795	11219.367457330626	52
0	54806	11221.40996126615	53
0	54808	11221.503346108113	54
0	54812	11222.354971884869	53
0	54816	11222.672462416601	54
0	54817	11223.287028867125	53
0	54821	11223.328225281399	54
0	54828	11224.233644461642	55
0	54830	11224.596457065204	56
0	54831	11225.053935697141	55
0	54842	11226.061141566545	56
0	54844	11226.219228822537	57
0	54848	11227.52321378675	56
0	54851	11228.460943078554	55
0	54857	11228.529267932264	56
0	54866	11229.884185189966	57
0	54888	11235.327131965688	56
0	54896	11237.518287614944	55
0	54902	11238.353947227952	56
0	54909	11238.626727288825	57
0	54923	11241.298390192991	58
0	54936	11244.857422885381	59
0	54962	11250.468213250048	58
0	54965	11251.629352971658	57
0	54968	11252.753495902408	56
0	54972	11252.965582118322	57
0	54973	11253.751393299669	56
0	54976	11254.81531891071	55
0	54980	11254.92949809085	56
0	54987	11255.953087963417	57
0	54989	11256.219492797984	58
0	54990	11256.805842638227	57
0	54998	11258.641450200069	56
0	55004	11258.770233660169	57
0	55009	11260.051509147597	58
0	55010	11260.701455551225	57
0	55013	11261.801261275194	56
0	55017	11262.288448010972	57
0	55024	11262.670907673781	58
0	55025	11263.659397093512	57
0	55034	11265.8154931032	58
0	55035	11265.859972145993	57
0	55039	11265.961292684215	58
0	55040	11266.672910531077	57
0	55044	11266.677900235542	58
0	55055	11268.777281565212	59
0	55082	11274.920409934528	58
0	55100	11277.005770429232	59
0	55107	11279.502981659983	58
0	55118	11281.057480463482	59
0	55132	11284.397389895403	58
0	55153	11287.60292654379	59
0	55170	11290.653296140565	60
0	55179	11291.660805302787	61
0	55191	11295.442050557705	60
0	55210	11299.098059544726	61
0	55271	11311.478328234637	60
0	55274	11312.530675952351	59
0	55288	11314.601273542715	60
0	55321	11320.777059501583	61
0	55366	11329.516399548083	62
0	55393	11335.78212755381	61
0	55416	11339.553519197541	62
0	55426	11341.250203179796	63
0	55465	11348.132888626217	64
0	55488	11353.610396935897	65
0	55489	11354.058821812764	64
0	55502	11356.051618643841	65
0	55523	11358.700062589205	66
0	55532	11360.28001338333	67
0	55558	11365.662264256261	68
0	55572	11368.401653393999	69
0	55591	11370.976546002309	70
0	55593	11371.212654893266	71
0	55614	11376.34897522838	72
0	55628	11379.777788360814	71
0	55631	11380.968844504772	70
0	55635	11381.084173230149	71
0	55648	11382.838209931675	72
0	55693	11392.822202432181	71
0	55711	11396.692076939463	70
0	55732	11400.331943279304	71
0	55737	11400.826146492044	72
0	55738	11401.736966195915	71
0	55751	11403.372782459487	72
0	55803	11415.554108279039	71
0	55811	11415.836868931991	72
0	55843	11423.812326196423	71
0	55862	11426.745925615272	72
0	55866	11427.16222660252	73
0	55875	11429.373133767519	72
0	55878	11430.210875733878	71
0	55882	11430.61962417436	72
0	55883	11431.308560053475	71
0	55886	11432.121797097318	70
0	55890	11432.418059342995	71
0	55892	11432.923946575859	72
0	55893	11433.010446430214	71
0	55897	11433.266475926223	72
0	55908	11436.084061359644	71
0	55919	11437.287852317629	72
0	55938	11442.242744897148	71
0	55947	11443.72007775594	72
0	55948	11444.131864386266	71
0	55951	11444.957455012789	70
0	55955	11445.123684167978	71
0	55956	11446.10752598376	70
0	55960	11446.663826276033	71
0	55961	11447.042175730718	70
0	55964	11448.131207175487	69
0	55967	11448.939926036661	68
0	55976	11449.821367864529	69
0	55978	11450.271517285059	70
0	55979	11450.743350648535	69
0	55982	11451.606954698478	68
0	55986	11452.313004183728	69
0	55993	11453.597134553099	70
0	55994	11453.701571594019	69
0	55997	11454.885777142577	68
0	56001	11455.839379459132	69
0	56002	11455.997929037854	68
0	56005	11457.072967770442	67
0	56008	11458.146328726902	66
0	56012	11458.864745803403	67
0	56013	11459.022340768881	66
0	56017	11459.487265429133	67
0	56019	11459.64137625378	68
0	56020	11459.823563104987	67
0	56024	11459.910816585636	68
0	56025	11460.880174871281	67
0	56029	11461.195046424509	68
0	56030	11461.886556675125	67
0	56033	11462.840670549616	66
0	56039	11463.183287730296	67
0	56043	11464.622083297956	66
0	56049	11464.993092489991	67
0	56053	11466.742063373911	66
0	56056	11467.567109439174	65
0	56059	11468.513659252996	64
0	56063	11469.524097363703	65
0	56064	11469.618801281346	64
0	56067	11470.56944658768	63
0	56070	11471.408585611196	62
0	56073	11472.401860721154	61
0	56076	11473.451975574368	60
0	56079	11474.385920225573	59
0	56083	11475.040469850523	60
0	56085	11475.074474165375	61
0	56087	11475.216940295776	62
0	56088	11475.356442718231	61
0	56092	11475.455471429373	62
0	56098	11475.611947424622	63
0	56103	11476.554837220279	64
0	56105	11476.601658361551	65
0	56107	11476.712357518583	66
0	56109	11477.311495669604	67
0	56114	11477.886603601943	68
0	56116	11477.960148289499	69
0	56117	11478.276209921972	68
0	56125	11478.625273427469	69
0	56137	11482.119409709726	68
0	56151	11484.163595903729	69
0	56152	11484.573885421943	68
0	56166	11486.848600705519	69
0	56172	11488.359358890377	68
0	56176	11489.256177542714	69
0	56177	11489.295138403144	68
0	56181	11489.427878013007	69
0	56182	11490.129057386633	68
0	56186	11490.627657142953	69
0	56193	11491.627898054501	70
0	56194	11492.13380805247	69
0	56202	11493.797129819193	68
0	56221	11497.156220740817	69
0	56223	11497.311237874332	70
0	56224	11497.946686914866	69
0	56227	11498.789582930156	68
0	56230	11499.623374200077	67
0	56233	11500.809898571973	66
0	56237	11501.199882477332	67
0	56239	11501.878726945779	68
0	56240	11501.90845999152	67
0	56243	11502.944700461929	66
0	56246	11504.101757399575	65
0	56250	11504.555483319304	66
0	56251	11505.177599144657	65
0	56255	11505.461232396456	66
0	56256	11506.230021020421	65
0	56260	11506.365503193559	66
0	56261	11507.356769510475	65
0	56265	11507.457002956495	66
0	56267	11508.030795895704	67
0	56268	11508.336906885658	66
0	56272	11508.436656860208	67
0	56274	11508.864958546648	68
0	56275	11509.310137066082	67
0	56279	11509.988221857223	68
0	56286	11510.429968079077	69
0	56288	11510.987282007854	70
0	56289	11511.341472606757	69
0	56300	11512.932144820858	70
0	56304	11514.599367702682	69
0	56310	11515.261489708688	70
0	56315	11516.446438541146	71
0	56316	11516.450439075124	70
0	56320	11516.712904423899	71
0	56327	11518.219449464357	72
0	56328	11518.579574180883	71
0	56332	11519.437096527682	72
0	56333	11519.733489419357	71
0	56337	11520.324774308435	72
0	56338	11520.592759021116	71
0	56344	11521.250147091261	72
0	56348	11522.779694716936	71
0	56357	11524.046645076819	72
0	56359	11524.560749382707	73
0	56360	11524.737975988654	72
0	56364	11524.820909668294	73
0	56365	11525.58447938303	72
0	56373	11527.386684258119	71
0	56382	11528.531396998198	72
0	56383	11529.022036027465	71
0	56387	11529.036334787855	72
0	56393	11530.982678595673	71
0	56396	11531.846680824015	70
0	56404	11533.871311717782	69
0	56408	11534.098915511271	70
0	56409	11534.705886856023	69
0	56413	11535.272605085952	70
0	56420	11535.742576050875	71
0	56421	11536.846769019611	70
0	56425	11537.586966198505	71
0	56426	11537.714272812776	70
0	56430	11538.215431015958	71
0	56431	11538.912930800695	70
0	56435	11539.337480577412	71
0	56436	11539.938085206714	70
0	56440	11540.187862297398	71
0	56441	11540.789226853218	70
0	56445	11540.791546954425	71
0	56449	11541.417190780083	72
0	56454	11541.789775980538	73
0	56460	11543.468723062261	72
0	56469	11545.60346367452	73
0	56471	11545.67044381849	74
0	56472	11545.679171077929	73
0	56476	11545.873414577423	74
0	56480	11546.567844846435	75
0	56485	11546.990487235818	76
0	56487	11547.53755964865	77
0	56488	11547.785547021053	76
0	56494	11548.113840056965	77
0	56498	11549.793580313515	76
0	56506	11551.922249572654	75
0	56514	11553.891306716693	74
0	56522	11555.792559472123	73
0	56528	11556.496471548967	74
0	56533	11556.894174811244	75
0	56535	11556.945566988341	76
0	56536	11557.844660033217	75
0	56540	11558.0677843734	76
0	56546	11559.618403784024	75
0	56549	11560.622094617716	74
0	56555	11561.331241149952	75
0	56560	11561.896748919972	76
0	56561	11562.511302557706	75
0	56564	11563.491851034972	74
0	56567	11564.595390712868	73
0	56570	11565.504050414569	72
0	56573	11566.413652529127	71
0	56577	11567.0774091838	72
0	56579	11567.152658912557	73
0	56580	11567.585465471379	72
0	56583	11568.516831848889	71
0	56587	11568.998192920828	72
0	56589	11569.370082567525	73
0	56590	11569.517300165749	72
0	56594	11569.852193006512	73
0	56595	11570.442294251012	72
0	56599	11571.010839395195	73
0	56600	11571.278599731462	72
0	56603	11572.174747575657	71
0	56607	11572.844823178138	72
0	56608	11573.062055917294	71
0	56611	11574.086063897726	70
0	56615	11574.978947631249	71
0	56616	11575.258443622594	70
0	56619	11576.089991693967	69
0	56623	11576.468662130283	70
0	56624	11577.104294945789	69
0	56627	11578.114107599506	68
0	56630	11578.916388021247	67
0	56634	11579.496520230237	68
0	56635	11580.060454638792	67
0	56639	11580.743090770175	68
0	56641	11580.946622062628	69
0	56642	11581.07452504125	68
0	56645	11581.893512411998	67
0	56651	11582.44562359889	68
0	56653	11582.522900329557	69
0	56658	11583.253665002834	70
0	56665	11584.157783184129	71
0	56666	11584.775143971318	70
0	56670	11585.465921137513	71
0	56672	11585.741503882463	72
0	56673	11585.890609326796	71
0	56682	11587.194560485005	72
0	56684	11587.299098351333	73
0	56685	11588.012561625079	72
0	56693	11590.038928552275	71
0	56702	11591.351180547401	72
0	56703	11592.143843239384	71
0	56706	11593.230131471647	70
0	56712	11594.211154747914	71
0	56717	11594.789266038982	72
0	56718	11595.34378729493	71
0	56727	11596.330965781956	72
0	56728	11597.282011587477	71
0	56737	11598.463140554995	72
0	56738	11599.030823002315	71
0	56741	11600.009701413966	70
0	56745	11600.273993499397	71
0	56746	11601.065593597784	70
0	56757	11601.951186648642	71
0	56767	11603.749719552004	72
0	56773	11605.751130309633	71
0	56782	11607.209593844896	72
0	56783	11607.8972616968	71
0	56786	11608.741189068023	70
0	56789	11609.59102644448	69
0	56793	11610.574629769917	70
0	56794	11610.707480536055	69
0	56798	11611.576765216192	70
0	56799	11611.824808147948	69
0	56803	11612.107094811691	70
0	56810	11612.905321466366	71
0	56811	11613.832521509591	70
0	56815	11614.376106353886	71
0	56822	11615.684997174661	72
0	56823	11615.996052270967	71
0	56831	11618.042920180622	70
0	56844	11620.910171934708	69
0	56847	11621.831883469808	68
0	56853	11622.845395769752	69
0	56857	11623.969671155724	68
0	56861	11624.01288405801	69
0	56868	11625.656677978528	70
0	56869	11625.960370856828	69
0	56878	11626.979463785614	70
0	56879	11627.870526220116	69
0	56887	11629.677640755593	68
0	56890	11630.627253945849	67
0	56893	11631.786928690436	66
0	56896	11632.7108911142	65
0	56900	11632.729760931086	66
0	56906	11634.679616915273	65
0	56910	11634.706280718722	66
0	56914	11635.659616282894	67
0	56918	11636.82083713331	66
0	56922	11637.29724094396	67
0	56929	11638.398535380863	68
0	56931	11638.603788223204	69
0	56932	11638.839988118995	68
0	56935	11639.942345369726	67
0	56938	11641.004498975191	66
0	56942	11641.219535999981	67
0	56944	11641.906360467623	68
0	56945	11642.071906535446	67
0	56948	11643.188163442935	66
0	56951	11644.29933371593	65
0	56955	11644.634648261907	66
0	56956	11645.362174207277	65
0	56960	11646.146990625548	66
0	56961	11646.434964482325	65
0	56965	11647.220422335755	66
0	56966	11647.550740916493	65
0	56970	11648.280501571432	66
0	56971	11648.573263043004	65
0	56974	11649.595991890251	64
0	56978	11650.330091862302	65
0	56980	11650.528239708144	66
0	56981	11650.586573389291	65
0	56984	11651.699771593723	64
0	56992	11653.86988568709	63
0	56995	11654.684352225929	62
0	57001	11655.404199949014	63
0	57013	11657.361469663571	64
0	57020	11657.786351732771	65
0	57022	11658.199868570968	66
0	57026	11659.394221715003	65
0	57029	11660.591990733918	64
0	57033	11661.003880243366	65
0	57040	11662.33418579107	66
0	57041	11662.775454026394	65
0	57044	11663.811537137933	64
0	57053	11664.88395587144	65
0	57055	11664.995703625235	66
0	57056	11666.009337686028	65
0	57059	11666.893432182938	64
0	57062	11667.88030572797	63
0	57066	11668.770592488672	64
0	57067	11668.905268808853	63
0	57073	11669.260681166149	64
0	57080	11670.824762793104	65
0	57085	11671.118029991762	66
0	57086	11671.744521416936	65
0	57097	11673.072217639103	66
0	57102	11674.463287271231	67
0	57108	11676.022009154901	66
0	57111	11676.871640667532	65
0	57117	11677.367579006747	66
0	57121	11678.660634641562	65
0	57130	11680.694639013929	66
0	57131	11680.736295773394	65
0	57134	11681.782611320473	64
0	57143	11683.485662698808	65
0	57144	11683.706863361716	64
0	57153	11685.528523600223	65
0	57154	11685.748297229622	64
0	57157	11686.80219636795	63
0	57161	11687.379253813635	64
0	57162	11687.694212529649	63
0	57165	11688.707751654674	62
0	57169	11689.273336618816	63
0	57170	11689.74035602792	62
0	57179	11691.386436102056	63
0	57180	11691.639999403924	62
0	57191	11692.917330265077	63
0	57203	11695.882472605888	64
0	57237	11702.602449196606	63
0	57241	11703.414471253169	64
0	57242	11703.443327550712	63
0	57265	11708.339332153398	62
0	57271	11708.696493701913	63
0	57276	11709.233522991448	64
0	57277	11710.280660066597	63
0	57312	11715.743029423497	64
0	57366	11725.405453838613	65
0	57424	11739.094711798644	64
0	57497	11753.237659327435	63
0	57506	11754.912281017103	64
0	57507	11755.207185502472	63
0	57515	11757.368383262708	62
0	57524	11758.843181572293	63
0	57525	11759.626870999048	62
0	57533	11761.593082600581	61
0	57537	11761.881532580496	62
0	57543	11763.632822538102	61
0	57551	11765.871652644062	60
0	57557	11766.654005450503	61
0	57562	11767.108431189768	62
0	57563	11767.905369839473	61
0	57566	11768.936876446596	60
0	57569	11769.759509991417	59
0	57573	11769.930130778992	60
0	57575	11770.579731511587	61
0	57577	11770.92893218879	62
0	57578	11770.956634720071	61
0	57581	11771.949962017993	60
0	57590	11773.403018241008	61
0	57591	11773.892891396611	60
0	57594	11774.872580154176	59
0	57602	11777.075716474401	58
0	57608	11777.564684722145	59
0	57613	11778.014554909189	60
0	57615	11778.462016908338	61
0	57616	11778.906328196572	60
0	57620	11778.978598862952	61
0	57621	11780.012495038872	60
0	57630	11781.12397724801	61
0	57631	11781.840913016563	60
0	57634	11782.762680635443	59
0	57638	11783.168593932719	60
0	57644	11785.035639347071	59
0	57648	11785.693110820362	60
0	57649	11785.957513897615	59
0	57652	11787.002166941138	58
0	57658	11787.453460006666	59
0	57660	11787.538523024125	60
0	57665	11788.464394753445	61
0	57666	11789.240281112706	60
0	57675	11790.249477322687	61
0	57676	11791.146638939836	60
0	57685	11792.684376699053	61
0	57686	11793.06129483248	60
0	57697	11795.007953181546	61
0	57702	11795.096502944365	62
0	57704	11795.4134981036	63
0	57705	11795.904687058487	62
0	57713	11797.843274930705	61
0	57722	11798.896479815828	62
0	57723	11799.676678933417	61
0	57726	11800.548069983283	60
0	57732	11801.567506306722	61
0	57737	11802.046092880717	62
0	57738	11802.842066906793	61
0	57747	11803.789205531409	62
0	57753	11805.926189217744	61
0	57761	11807.749632296366	60
0	57764	11808.720315705733	59
0	57770	11809.42661996695	60
0	57774	11810.851620464613	59
0	57778	11811.434144924658	60
0	57780	11811.782819542784	61
0	57781	11811.788177855061	60
0	57785	11812.164024235469	61
0	57787	11812.331756515405	62
0	57788	11812.686741966223	61
0	57791	11813.857982681999	60
0	57795	11813.929385117701	61
0	57797	11814.598017392178	62
0	57798	11814.705927671986	61
0	57802	11814.957765475973	62
0	57804	11815.13256781158	63
0	57805	11815.800712373229	62
0	57809	11815.857609490154	63
0	57810	11816.661750089592	62
0	57814	11816.69274818343	63
0	57815	11817.502251672773	62
0	57819	11818.073585143485	63
0	57820	11818.305965117393	62
0	57828	11820.346311655389	61
0	57831	11821.49420528694	60
0	57839	11822.49812510929	61
0	57844	11823.398950465237	62
0	57869	11827.568551004854	63
0	57870	11828.380015846835	62
0	57873	11829.204259820496	61
0	57879	11829.352930393204	62
0	57881	11830.322223790681	63
0	57885	11831.33254055337	62
0	57888	11832.442645361581	61
0	57892	11832.546638444355	62
0	57893	11833.249713378334	61
0	57897	11833.407901876765	62
0	57898	11834.095552528956	61
0	57902	11834.472189474117	62
0	57903	11835.177210661796	61
0	57907	11835.665598702284	62
0	57908	11836.022064166264	61
0	57911	11837.014031121348	60
0	57915	11837.462198844608	61
0	57917	11837.53889201949	62
0	57918	11838.160628729713	61
0	57922	11838.8928673796	62
0	57923	11839.099362895106	61
0	57927	11839.287832056148	62
0	57929	11840.152545351142	63
0	57930	11840.285230430429	62
0	57934	11840.433693740114	63
0	57941	11842.039981953381	64
0	57942	11842.19760259495	63
0	57945	11843.358805766356	62
0	57951	11844.137466758913	63
0	57963	11846.235931940309	64
0	57967	11847.266589849469	63
0	57970	11848.351045447149	62
0	57974	11848.626431225538	63
0	57981	11849.793576634634	64
0	57988	11851.355685363529	65
0	57989	11851.411738414995	64
0	57997	11853.451340429045	63
0	58000	11854.574306160889	62
0	58004	11854.878844279595	63
0	58006	11855.70479525067	64
0	58007	11855.758982409749	63
0	58015	11857.72805751099	62
0	58024	11858.573726797034	63
0	58026	11859.030454178742	64
0	58027	11859.676442891198	63
0	58035	11861.947473944935	62
0	58038	11862.84397501622	61
0	58042	11862.864072438403	62
0	58044	11863.238905182216	63
0	58055	11865.711559997617	62
0	58069	11867.969506335364	63
0	58071	11868.332989514004	64
0	58072	11868.740800265434	63
0	58081	11870.050107747756	64
0	58087	11871.634337370308	63
0	58105	11875.602679951792	62
0	58108	11876.678199223173	61
0	58112	11877.641355394429	62
0	58113	11877.769438030967	61
0	58117	11877.830993801469	62
0	58119	11878.112277077469	63
0	58120	11878.810325536342	62
0	58124	11879.33178502149	63
0	58125	11879.651765473397	62
0	58128	11880.753477248573	61
0	58132	11881.035359618094	62
0	58134	11881.778132223624	63
0	58135	11881.85645645645	62
0	58138	11882.93632079775	61
0	58142	11883.049885412845	62
0	58143	11883.974666102254	61
0	58146	11884.787190321763	60
0	58150	11884.866333622424	61
0	58151	11885.604823526018	60
0	58154	11886.74274130559	59
0	58160	11887.43814768785	60
0	58165	11887.89599447526	61
0	58167	11887.961320908624	62
0	58169	11888.278988543337	63
0	58170	11888.5305124311	62
0	58174	11889.185623734458	63
0	58176	11889.41810641342	64
0	58177	11889.61968971074	63
0	58180	11890.534753159735	62
0	58188	11892.353725195791	61
0	58192	11892.715014119365	62
0	58199	11893.434779917534	63
0	58211	11895.838177280617	64
0	58212	11896.648209023684	63
0	58216	11896.77117470962	64
0	58223	11897.825811868078	65
0	58229	11899.263942083739	64
0	58240	11900.852751495134	65
0	58259	11905.592617193818	64
0	58275	11908.28001784486	65
0	58279	11909.717796066147	64
0	58282	11910.773125061695	63
0	58295	11912.069527690915	64
0	58307	11915.891202160181	63
0	58310	11916.992638559756	62
0	58313	11917.90475030106	61
0	58317	11918.251069906745	62
0	58324	11919.21575742822	63
0	58325	11920.112707749312	62
0	58328	11921.072635784489	61
0	58337	11922.375535694788	62
0	58339	11922.428428755465	63
0	58340	11922.952482312009	62
0	58348	11924.966332721732	61
0	58351	11925.912711288336	60
0	58360	11927.559659436151	61
0	58362	11927.897767263288	62
0	58363	11928.162399195343	61
0	58371	11930.099781270534	60
0	58380	11931.012174866501	61
0	58381	11932.075932285026	60
0	58384	11933.188064500153	59
0	58398	11935.243383449868	60
0	58414	11939.233107774913	59
0	58417	11940.076769066158	58
0	58421	11940.268185992406	59
0	58427	11942.291947699266	58
0	58431	11942.518440885974	59
0	58437	11944.450351933876	58
0	58441	11944.704594205782	59
0	58448	11945.609462534101	60
0	58464	11949.236706847996	59
0	58485	11952.386137295607	60
0	58499	11956.475438563266	59
0	58502	11957.42039901225	58
0	58506	11958.031397478124	59
0	58507	11958.228162149639	58
0	58511	11958.375147410276	59
0	58513	11959.139320194026	60
0	58514	11959.230650906471	59
0	58517	11960.149046352991	58
0	58520	11960.964395975434	57
0	58524	11961.367410503362	58
0	58536	11963.911338712342	59
0	58537	11964.347155757641	58
0	58541	11964.729958318149	59
0	58542	11965.451033225303	58
0	58546	11965.482919791469	59
0	58548	11965.761490607374	60
0	58555	11966.647825354589	61
0	58556	11967.35339362344	60
0	58564	11969.106062087065	59
0	58570	11970.064845130645	60
0	58574	11971.102947128865	59
0	58577	11972.13937202331	58
0	58581	11972.602476241789	59
0	58582	11973.043990596313	58
0	58585	11974.035544296935	57
0	58588	11975.207564993784	56
0	58594	11975.804300197074	57
0	58596	11976.083616540747	58
0	58600	11977.125770243652	57
0	58603	11978.170092445634	56
0	58607	11978.541530042389	57
0	58609	11978.931313788098	58
0	58610	11979.0259434378	57
0	58616	11979.352625315538	58
0	58625	11981.781636441336	57
0	58629	11982.02602316637	58
0	58633	11982.312008034996	59
0	58638	11982.957890025442	60
0	58640	11983.190253772668	61
0	58642	11983.42284054875	62
0	58643	11983.855640641996	61
0	58651	11986.002393039991	60
0	58659	11987.946097007045	59
0	58668	11989.099149847466	60
0	58669	11989.727144988184	59
0	58673	11990.559723596059	60
0	58680	11990.907463479165	61
0	58681	11991.553011051496	60
0	58684	11992.553891963535	59
0	58687	11993.624058357556	58
0	58696	11995.243410567611	59
0	58697	11995.381241771975	58
0	58701	11995.628586024085	59
0	58708	11996.507601959582	60
0	58709	11997.336359959306	59
0	58717	11999.157073645038	58
0	58725	12001.329786494118	57
0	58729	12002.119500326055	58
0	58730	12002.238901430112	57
0	58734	12002.278625221586	58
0	58741	12004.064927912909	59
0	58742	12004.497332774778	58
0	58746	12004.53675271865	59
0	58753	12005.793833073671	60
0	58764	12008.778741736827	59
0	58772	12010.748948793137	58
0	58775	12011.788245060039	57
0	58779	12012.069077668578	58
0	58786	12013.078217652028	59
0	58787	12013.548970855796	58
0	58795	12015.372112677363	57
0	58799	12015.583796253253	58
0	58803	12015.937219039507	59
0	58807	12017.59214850471	58
0	58813	12018.080893698735	59
0	58817	12019.75874692707	58
0	58821	12020.180447995383	59
0	58822	12020.808264996416	58
0	58831	12022.030771307172	59
0	58832	12022.975183536789	58
0	58841	12024.368841439413	59
0	58843	12024.46065587375	60
0	58844	12024.944192662022	59
0	58847	12026.13974679534	58
0	58858	12027.183954411067	59
0	58862	12028.917530290994	58
0	58865	12029.731086142666	57
0	58871	12030.281668517914	58
0	58888	12033.268881496243	59
0	58897	12034.438401499168	60
0	59000	12054.32677002726	61
0	59011	12056.908253454163	60
0	59029	12058.997097313199	61
0	59054	12064.517633292914	62
0	59058	12065.435544266858	61
0	59066	12067.477479788967	60
0	59075	12069.310605467303	61
0	59076	12069.438088366975	60
0	59085	12070.392115093098	61
0	59086	12071.317261339192	60
0	59089	12072.277907923729	59
0	59093	12072.675322461382	60
0	59100	12073.577171297195	61
0	59106	12075.15893078682	60
0	59120	12078.020971761515	61
0	59121	12078.445906580826	60
0	59130	12080.387721796343	61
0	59162	12085.973077948676	62
0	59163	12086.556833528102	61
0	59171	12088.713362978704	60
0	59174	12089.872644873641	59
0	59183	12091.103080084307	60
0	59187	12091.629583901077	61
0	59196	12094.079255919184	60
0	59210	12096.010769572843	61
0	59229	12099.816738774749	62
0	59243	12103.483576821283	61
0	59254	12105.713868026477	62
0	59263	12107.901161006213	61
0	59274	12109.368244257205	62
0	59281	12110.352631875761	63
0	59285	12112.260152895776	62
0	59289	12112.478398753547	63
0	59295	12114.030968027403	62
0	59299	12114.319740923383	63
0	59300	12115.023410770231	62
0	59304	12115.615818825309	63
0	59305	12116.057999787879	62
0	59309	12116.399124523424	63
0	59310	12117.053824485586	62
0	59313	12118.045965962325	61
0	59316	12118.913021766235	60
0	59320	12119.030944608986	61
0	59322	12119.680225342827	62
0	59324	12119.770210264834	63
0	59325	12119.778773861312	62
0	59328	12120.786776515309	61
0	59331	12121.703650524121	60
0	59334	12122.64131166444	59
0	59338	12122.708680595041	60
0	59340	12123.627384796196	61
0	59341	12123.644855552566	60
0	59345	12124.015617079716	61
0	59347	12124.100493927626	62
0	59348	12124.500293516394	61
0	59352	12124.604674230692	62
0	59354	12124.64427117956	63
0	59356	12124.811997462561	64
0	59357	12125.317680147503	63
0	59361	12125.74195489656	64
0	59362	12126.170305452429	63
0	59366	12126.376390939223	64
0	59368	12126.797432196991	65
0	59374	12128.252574825686	64
0	59380	12128.89876496529	65
0	59385	12129.631526811912	66
0	59387	12129.904171097858	67
0	59388	12130.179473206242	66
0	59406	12134.384814055384	65
0	59409	12135.546511140306	64
0	59413	12135.958257399665	65
0	59414	12136.36558970197	64
0	59417	12137.33110481196	63
0	59423	12138.050127310819	64
0	59432	12140.373750048065	63
0	59440	12142.338875476578	62
0	59454	12144.081776447307	63
0	59456	12144.150614624223	64
0	59463	12146.02174776996	65
0	59464	12146.142771899634	64
0	59470	12146.753419530463	65
0	59475	12147.770230890604	66
0	59476	12148.510726052456	65
0	59480	12148.623677982027	66
0	59482	12148.937424810575	67
0	59483	12149.597479174219	66
0	59487	12150.022582709733	67
0	59499	12152.29050299621	68
0	59500	12152.499777081914	67
0	59503	12153.524956933062	66
0	59507	12153.535928487627	67
0	59520	12154.772229620089	68
0	59615	12175.047093954087	69
0	59695	12190.197555081237	70
0	59714	12194.380725299689	69
0	59717	12195.316939999006	68
0	59723	12195.581179240308	69
0	59725	12196.321495573698	70
0	59732	12196.817226204561	71
0	59741	12199.178693497303	70
0	59752	12200.315177284913	71
0	59771	12205.225285898644	70
0	59780	12206.368192734731	71
0	59781	12207.044241248193	70
0	59794	12210.312291228614	69
0	59803	12211.946883443127	70
0	59804	12212.196950129449	69
0	59807	12213.237243947509	68
0	59811	12213.308095302251	69
0	59818	12214.330269532111	70
0	59819	12215.262716174621	69
0	59822	12216.188736713894	68
0	59830	12218.062665945973	67
0	59838	12219.976142826333	66
0	59842	12220.410250929007	67
0	59843	12220.927138799179	66
0	59846	12221.835909861169	65
0	59849	12222.830537508178	64
0	59852	12223.775051991205	63
0	59855	12224.810764188162	62
0	59859	12225.451311779611	63
0	59861	12225.876253839086	64
0	59862	12225.929415329388	63
0	59865	12226.881543234951	62
0	59873	12228.915402349579	61
0	59877	12229.351595061095	62
0	59878	12229.851089003059	61
0	59887	12230.923060709079	62
0	59893	12232.627743583853	61
0	59896	12233.767689787718	60
0	59900	12234.52710693911	61
0	59907	12235.618487111062	62
0	59908	12236.025784529308	61
0	59912	12236.131972948055	62
0	59918	12238.088559199525	61
0	59921	12238.981050568288	60
0	59930	12240.526476012164	61
0	59931	12241.073973496938	60
0	59935	12241.195793816301	61
0	59937	12241.475667269443	62
0	59941	12242.215812059333	63
0	59945	12243.196714550564	62
0	59949	12243.703024924104	63
0	59951	12243.857778460502	64
0	59953	12243.907156851418	65
0	59954	12244.275841857241	64
0	59957	12245.466108414465	63
0	59961	12245.662355002216	64
0	59962	12246.299932273132	63
0	59965	12247.32407735384	62
0	59969	12247.485148068951	63
0	59971	12247.656178553755	64
0	59973	12247.9735750866	65
0	59974	12248.273808167343	64
0	59978	12248.646341153891	65
0	59979	12249.074164220904	64
0	59982	12249.928142323279	63
0	59985	12251.128102263184	62
0	59988	12252.172988602826	61
0	59991	12253.294870265787	60
0	59995	12253.859189069967	61
0	59997	12254.089159680104	62
0	59998	12254.291892801625	61
0	60002	12254.553483929106	62
0	60003	12255.342417080821	61
0	60007	12255.602383904951	62
0	60009	12256.155001524133	63
0	60010	12256.486847349191	62
0	60014	12256.511585662455	63
0	60015	12257.307818501843	62
0	60019	12257.71898792915	63
0	60020	12258.403294990053	62
0	60024	12258.574609056199	63
0	60026	12259.135363149501	64
0	60028	12259.420211805359	65
0	60029	12259.594603669671	64
0	60033	12260.68582725716	65
0	60034	12260.785471972571	64
0	60038	12261.564696230933	65
0	60039	12261.627073999242	64
0	60042	12262.612919619707	63
0	60045	12263.673064366383	62
0	60049	12264.454999441787	63
0	60050	12264.828776448154	62
0	60054	12264.957083026912	63
0	60055	12265.993606813652	62
0	60058	12266.876790456781	61
0	60062	12267.215550853344	62
0	60063	12267.77864707795	61
0	60067	12268.679707276366	62
0	60068	12268.922728820639	61
0	60071	12270.103548307745	60
0	60075	12271.034989849667	61
0	60076	12271.239653566694	60
0	60079	12272.209856366022	59
0	60082	12273.400559900636	58
0	60086	12273.638184412697	59
0	60088	12273.867601283886	60
0	60089	12274.237876611976	59
0	60093	12274.615165940722	60
0	60095	12275.076382816881	61
0	60097	12275.388755312685	62
0	60098	12275.398144837124	61
0	60101	12276.259653130388	60
0	60105	12276.496600239191	61
0	60107	12276.65819890192	62
0	60108	12277.353972805506	61
0	60111	12278.501687406032	60
0	60115	12278.889133809792	61
0	60116	12279.598667907743	60
0	60119	12280.536559588397	59
0	60122	12281.625054987827	58
0	60125	12282.543578874441	57
0	60128	12283.358240724197	56
0	60131	12284.246057056385	55
0	60134	12285.207858875981	54
0	60137	12286.196104264753	53
0	60141	12286.712053921255	54
0	60143	12287.036178930844	55
0	60144	12287.241212883992	54
0	60148	12288.128896656386	55
0	60154	12289.449747615987	54
0	60158	12289.931650368117	55
0	60160	12290.266012564924	56
0	60161	12290.331081745429	55
0	60165	12290.516615305067	56
0	60174	12292.189513050502	57
0	60179	12292.433431364127	58
0	60181	12293.236942146417	59
0	60182	12293.466591977448	58
0	60193	12294.564586897379	59
0	60198	12295.161257586614	60
0	60200	12295.633852331527	61
0	60204	12295.900350553256	62
0	60209	12296.279719724908	63
0	60211	12296.329827618805	64
0	60218	12297.379732206485	65
0	60219	12298.42236058901	64
0	60223	12299.053097761449	65
0	60230	12299.323272085778	66
0	60231	12300.193574329586	65
0	60240	12301.915687826257	66
0	60242	12302.176586974971	67
0	60249	12302.2382190452	68
0	60251	12302.804443025927	69
0	60252	12303.237622196255	68
0	60261	12304.656080048916	69
0	60262	12305.206512611852	68
0	60275	12308.077574895443	67
0	60281	12308.443579065676	68
0	60286	12309.36027877912	69
0	60295	12310.645620019151	70
0	60297	12310.735857723674	71
0	60309	12312.52720756906	72
0	60313	12313.639449799741	71
0	60319	12314.557523595754	72
0	60328	12316.875604942842	71
0	60331	12317.784601397748	70
0	60344	12319.589515136059	71
0	60351	12319.808009258031	72
0	60438	12338.092092477832	73
0	60486	12347.421163018737	74
0	60507	12352.04947036843	73
0	60510	12352.968926204119	72
0	60513	12353.888768875629	71
0	60517	12354.183100923954	72
0	60519	12354.598359614907	73
0	60520	12354.99704110821	72
0	60528	12356.673426870753	71
0	60536	12358.393161082578	70
0	60540	12358.678972223825	71
0	60542	12358.974469281723	72
0	60543	12359.426582944797	71
0	60552	12360.581824726335	72
0	60554	12361.349392118687	73
0	60555	12361.553497948156	72
0	60559	12362.138470043179	73
0	60560	12362.659606277508	72
0	60563	12363.500859676798	71
0	60567	12363.653136227702	72
0	60568	12364.352336447158	71
0	60572	12364.431868472668	72
0	60573	12365.215142531724	71
0	60576	12366.281986682986	70
0	60580	12366.814297483885	71
0	60581	12367.3960933843	70
0	60585	12368.154389430658	71
0	60586	12368.47291969511	70
0	60589	12369.409266904772	69
0	60593	12369.904661006025	70
0	60594	12370.492455801771	69
0	60598	12370.710382904973	70
0	60605	12372.101030198148	71
0	60606	12372.555404572685	70
0	60615	12373.919789996257	71
0	60616	12374.905391159219	70
0	60622	12375.379798069056	71
0	60627	12376.101457974575	72
0	60628	12376.880047566102	71
0	60636	12378.632480546676	70
0	60639	12379.713434927661	69
0	60648	12380.797656693806	70
0	60649	12381.572929542728	69
0	60658	12382.85227517631	70
0	60659	12383.613304390415	69
0	60662	12384.699150850281	68
0	60666	12384.77725721263	69
0	60667	12385.687667717628	68
0	60671	12386.036908860499	69
0	60672	12386.496127965051	68
0	60675	12387.657496625121	67
0	60679	12388.03556702646	68
0	60680	12388.499145890988	67
0	60684	12389.389080220547	68
0	60685	12389.392002711847	67
0	60688	12390.427390394948	66
0	60691	12391.420508676238	65
0	60695	12392.03142919359	66
0	60696	12392.299058415677	65
0	60699	12393.127158806968	64
0	60702	12394.212451783411	63
0	60705	12395.223804352183	62
0	60708	12396.095657637373	61
0	60712	12396.436862147329	62
0	60713	12396.919071343199	61
0	60717	12397.527827817108	62
0	60718	12397.791826293927	61
0	60721	12398.781256105502	60
0	60724	12399.684850145628	59
0	60727	12400.629927449704	58
0	60731	12401.210053998003	59
0	60732	12401.571888369539	58
0	60736	12401.794169546879	59
0	60738	12401.962247778274	60
0	60739	12402.440661350762	59
0	60743	12402.671069441022	60
0	60744	12403.538593310894	59
0	60748	12404.170159328499	60
0	60750	12404.213623463065	61
0	60751	12404.456766531089	60
0	60755	12404.853015900172	61
0	60756	12405.543385965967	60
0	60759	12406.467439644815	59
0	60763	12406.749837621245	60
0	60764	12407.594158298926	59
0	60768	12407.88689373845	60
0	60769	12408.491717683089	59
0	60772	12409.425505468746	58
0	60775	12410.612672691171	57
0	60779	12411.437957600124	58
0	60780	12411.801999938705	57
0	60784	12412.591845758316	58
0	60786	12412.713173896928	59
0	60787	12412.816749218323	58
0	60791	12412.962059288572	59
0	60793	12413.170041651606	60
0	60794	12413.977459589422	59
0	60798	12414.357667211329	60
0	60799	12414.956869876415	59
0	60802	12416.009965567042	58
0	60805	12416.888270577074	57
0	60809	12416.899715078775	58
0	60811	12417.016486318031	59
0	60812	12417.911090923131	58
0	60816	12418.808418829864	59
0	60817	12419.080499990035	58
0	60826	12420.766621894496	59
0	60827	12421.09320706933	58
0	60830	12421.947216164816	57
0	60838	12423.618807456579	56
0	60842	12424.360044618782	57
0	60848	12425.8626382639	56
0	60852	12426.319727616938	57
0	60853	12426.97906643267	56
0	60856	12428.151976146952	55
0	60860	12428.512063643833	56
0	60862	12428.814288052326	57
0	60863	12428.972901849945	56
0	60867	12429.588127672832	57
0	60869	12429.86487999826	58
0	60870	12430.122234163557	57
0	60874	12430.384169378138	58
0	60875	12431.147797978607	57
0	60879	12431.928634547897	58
0	60881	12432.135206027625	59
0	60882	12432.293448505674	58
0	60886	12433.109603619144	59
0	60887	12433.390220357322	58
0	60891	12433.604958423024	59
0	60892	12434.192444232696	58
0	60895	12435.023053119735	57
0	60904	12436.034700701009	58
0	60905	12437.040596691922	57
0	60911	12437.943693814764	58
0	60918	12438.674840808121	59
0	60930	12440.666357890776	60
0	60934	12440.836657368366	61
0	60946	12442.776557450083	62
0	60959	12446.253180234575	63
0	60960	12446.341590507547	62
0	60966	12446.633900048263	63
0	60973	12447.622551241287	64
0	60982	12450.525047144326	63
0	60998	12452.976345569847	64
0	61002	12454.437152296244	63
0	61005	12455.360346503495	62
0	61009	12455.74605386562	63
0	61010	12456.414333538557	62
0	61016	12456.729725400469	63
0	61018	12456.741143803904	64
0	61023	12457.410321740092	65
0	61024	12458.272220806903	64
0	61033	12459.263676495657	65
0	61049	12463.199807266643	64
0	61052	12464.388703376459	63
0	61058	12465.445969238422	64
0	61075	12468.334317053555	65
0	61099	12473.391175732513	64
0	61102	12474.228905222782	63
0	61106	12474.589864672079	64
0	61107	12475.309476435029	63
0	61110	12476.202073918221	62
0	61114	12476.823151007428	63
0	61115	12477.286941318245	62
0	61119	12477.601720720885	63
0	61120	12478.33009701039	62
0	61123	12479.170370909975	61
0	61127	12479.804925928704	62
0	61128	12480.108428938718	61
0	61132	12480.914925040739	62
0	61134	12480.921175799579	63
0	61135	12481.201492445388	62
0	61139	12481.444637558095	63
0	61140	12482.224146546361	62
0	61143	12483.277485414066	61
0	61146	12484.205263987214	60
0	61149	12485.216581875209	59
0	61153	12485.524991018316	60
0	61154	12486.067606706295	59
0	61158	12486.242822182609	60
0	61159	12486.947210713412	59
0	61162	12488.05553037732	58
0	61173	12489.458341058215	59
0	61175	12489.925504829021	60
0	61179	12491.200705855555	59
0	61190	12492.464489866169	60
0	61201	12493.499845057822	61
0	61203	12494.058026970165	62
0	61208	12495.149868331755	63
0	61218	12497.060595443306	64
0	61242	12500.383087492625	65
0	61324	12518.063683684106	64
0	61333	12519.452386857252	65
0	61339	12521.142813115875	64
0	61353	12523.245725848084	65
0	61354	12523.91464571369	64
0	61363	12525.766184565236	65
0	61364	12525.950297482714	64
0	61373	12527.53527045859	65
0	61374	12527.988078951865	64
0	61385	12529.633143242056	65
0	61399	12533.216474663775	64
0	61403	12533.998349706706	65
0	61404	12534.193199847202	64
0	61408	12534.539361865787	65
0	61417	12535.316889860807	66
0	61421	12537.000816822174	65
0	61430	12538.317875637647	66
0	61431	12539.0088930297	65
0	61442	12540.365198125017	66
0	61446	12541.995128721679	65
0	61449	12542.991980684856	64
0	61452	12544.053925997885	63
0	61456	12544.907947309942	64
0	61457	12544.972476780536	63
0	61460	12546.078678431763	62
0	61464	12546.781315432865	63
0	61465	12546.899807864736	62
0	61469	12547.653397176243	63
0	61470	12548.008034667309	62
0	61474	12548.805855392551	63
0	61475	12548.972920335766	62
0	61479	12549.04563514822	63
0	61480	12549.9635582886	62
0	61484	12550.089814222406	63
0	61486	12550.327518205854	64
0	61487	12551.09910184595	63
0	61490	12551.900114895154	62
0	61494	12552.75603613598	63
0	61495	12552.83095493329	62
0	61499	12552.8399360731	63
0	61501	12553.096852212686	64
0	61502	12554.001471302037	63
0	61506	12554.345180281477	64
0	61507	12555.131532663696	63
0	61510	12555.999588096731	62
0	61514	12556.520084638063	63
0	61515	12556.963085120854	62
0	61519	12557.290858962794	63
0	61520	12557.959697708891	62
0	61524	12558.144537158477	63
0	61525	12559.052612265696	62
0	61528	12559.93010334832	61
0	61532	12560.170665028989	62
0	61533	12560.867155924471	61
0	61537	12561.600069498018	62
0	61539	12561.679399005187	63
0	61540	12561.971436385283	62
0	61544	12562.078597371007	63
0	61545	12563.167945730252	62
0	61548	12564.125976318339	61
0	61552	12564.502460935598	62
0	61553	12564.9417586258	61
0	61556	12565.742426539337	60
0	61562	12566.143579780853	61
0	61564	12566.811227813086	62
0	61569	12566.943705181888	63
0	61570	12567.960819318642	62
0	61578	12570.105301352993	61
0	61587	12571.63818818667	62
0	61588	12572.051459533937	61
0	61601	12574.973209846143	60
0	61605	12575.451145849683	61
0	61606	12576.09120692828	60
0	61612	12576.502637867645	61
0	61617	12577.302991354892	62
0	61619	12577.631805496821	63
0	61620	12577.975872712054	62
0	61634	12580.021831444151	63
0	61635	12580.706846870327	62
0	61638	12581.891187776843	61
0	61642	12582.774221660453	62
0	61649	12583.127750124611	63
0	61651	12583.864930076262	64
0	61652	12584.223629031734	63
0	61660	12586.332108259698	62
0	61669	12588.316134352742	63
0	61670	12588.552954215122	62
0	61673	12589.555549798006	61
0	61676	12590.369061732231	60
0	61685	12591.222411854769	61
0	61687	12591.414533811865	62
0	61689	12591.789649467346	63
0	61690	12592.002623043427	62
0	61699	12593.289796116724	63
0	61700	12594.07409749295	62
0	61703	12595.073466136711	61
0	61707	12595.578241650836	62
0	61708	12595.896690034991	61
0	61712	12596.062711806303	62
0	61718	12597.645551935336	61
0	61721	12598.596813009898	60
0	61730	12599.795567606356	61
0	61731	12600.432429026845	60
0	61740	12601.738373045228	61
0	61741	12602.58730070082	60
0	61744	12603.744889623518	59
0	61748	12604.08695826789	60
0	61749	12604.940981750688	59
0	61757	12606.623128927904	58
0	61761	12606.873922406134	59
0	61762	12607.482694212287	58
0	61765	12608.5694331813	57
0	61769	12608.917495767477	58
0	61771	12609.39251821184	59
0	61772	12609.748870214014	58
0	61776	12609.828153090905	59
0	61790	12612.390071694104	60
0	61794	12613.322999084587	59
0	61798	12613.58456175707	60
0	61805	12614.204264287132	61
0	61806	12615.035259151212	60
0	61809	12616.101335679586	59
0	61813	12616.607440903405	60
0	61814	12617.073473411458	59
0	61818	12617.556595720846	60
0	61819	12618.13044794084	59
0	61822	12619.108246071203	58
0	61826	12619.726566569882	59
0	61827	12619.910058386097	58
0	61830	12621.027156405742	57
0	61833	12621.994890155396	56
0	61836	12622.821507380562	55
0	61842	12623.135962865326	56
0	61844	12623.646076445415	57
0	61848	12624.847630333746	56
0	61851	12625.953000966957	55
0	61860	12626.936784931263	56
0	61861	12628.00636405026	55
0	61864	12629.2038432428	54
0	61868	12629.653033383365	55
0	61870	12629.946103468632	56
0	61871	12630.208596235266	55
0	61875	12630.212528101545	56
0	61877	12630.405611155893	57
0	61881	12631.101756798531	58
0	61890	12632.1006298431	59
0	61897	12632.89783245943	60
0	61939	12642.121950566242	59
0	61942	12643.031225679381	58
0	61946	12643.363036147263	59
0	61947	12643.977401511776	58
0	61950	12645.054845536067	57
0	61954	12645.693384823056	58
0	61955	12646.127925617746	57
0	61958	12647.256818321659	56
0	61961	12648.059396321731	55
0	61964	12649.151924425954	54
0	61968	12650.11867401454	55
0	61969	12650.224742977818	54
0	61973	12650.821161952288	55
0	61974	12651.258618896672	54
0	61978	12651.783599604486	55
0	61979	12652.091280985096	54
0	61982	12652.907909780679	53
0	61991	12654.370481646244	54
0	61992	12655.214434003116	53
0	61996	12655.892790286131	54
0	61998	12655.911313070536	55
0	62000	12656.335107312873	56
0	62001	12656.358564757773	55
0	62005	12656.782917928513	56
0	62006	12657.258392567312	55
0	62009	12658.12222360059	54
0	62015	12658.95063789426	55
0	62019	12659.879180549955	54
0	62022	12660.68219040831	53
0	62031	12661.981797473503	54
0	62032	12662.891535452505	53
0	62036	12662.915145752014	54
0	62040	12663.387100128336	55
0	62045	12664.139082932326	56
0	62047	12664.552056755469	57
0	62048	12665.062490578213	56
0	62051	12666.249365543791	55
0	62055	12667.222517897805	56
0	62056	12667.236633538206	55
0	62059	12668.140912816145	54
0	62062	12668.986311511539	53
0	62071	12670.433585881372	54
0	62072	12671.122518607911	53
0	62075	12672.160946978286	52
0	62078	12672.993720288139	51
0	62084	12673.157003186594	52
0	62089	12674.233481908474	53
0	62090	12675.102456049651	52
0	62099	12676.511950113087	53
0	62101	12676.688578679913	54
0	62102	12677.218736884307	53
0	62105	12678.385439083382	52
0	62114	12680.070459708409	53
0	62115	12680.197015886504	52
0	62121	12680.341781722484	53
0	62126	12681.382597478489	54
0	62127	12682.154988206766	53
0	62131	12682.23858348656	54
0	62132	12683.026567931689	53
0	62141	12684.045425225162	54
0	62143	12684.483766885495	55
0	62144	12684.670835310622	54
0	62147	12685.581136360793	53
0	62156	12687.362133878549	54
0	62157	12687.406928167242	53
0	62166	12688.496775350066	54
0	62168	12688.579795924703	55
0	62169	12689.183866949968	54
0	62178	12690.467656023166	55
0	62179	12691.188668741595	54
0	62185	12692.096675928172	55
0	62189	12693.218055756792	54
0	62193	12693.259472369648	55
0	62202	12694.475237797288	56
0	62207	12696.422470261453	57
0	62208	12696.602333861712	56
0	62216	12698.461142492696	55
0	62230	12700.720148806719	56
0	62231	12701.823147699173	55
0	62240	12703.660603657861	56
0	62241	12704.001468020335	55
0	62245	12704.084565948925	56
0	62249	12704.205842012239	57
0	62253	12706.089839753724	56
0	62256	12707.08580086169	55
0	62260	12707.628250836649	56
0	62261	12708.119303867344	55
0	62277	12711.157360710395	56
0	62282	12711.500991765045	57
0	62284	12711.659638966495	58
0	62285	12712.289004200354	57
0	62289	12712.85065422406	58
0	62323	12718.419397925124	59
0	62357	12726.504763784381	58
0	62360	12727.474182505841	57
0	62366	12727.704375897448	58
0	62370	12729.399649860924	57
0	62374	12729.622898801307	58
0	62375	12730.352050428679	57
0	62378	12731.474919224465	56
0	62382	12731.673531097547	57
0	62384	12731.90439138804	58
0	62388	12732.349683307163	59
0	62393	12732.826017273746	60
0	62394	12733.568093499289	59
0	62397	12734.463943858751	58
0	62401	12734.65730555591	59
0	62408	12736.247663748931	60
0	62409	12736.451947690294	59
0	62412	12737.47062711914	58
0	62416	12737.913505095928	59
0	62417	12738.529399595437	58
0	62420	12739.595608798907	57
0	62424	12740.293749219861	58
0	62430	12741.906518128727	57
0	62438	12744.160604126312	56
0	62446	12746.26370226967	55
0	62450	12746.785988210874	56
0	62451	12747.367441547595	55
0	62460	12748.884095563479	56
0	62461	12749.302273864418	55
0	62470	12751.027741005015	56
0	62472	12751.190823469844	57
0	62473	12751.510607618399	56
0	62481	12753.388844556201	55
0	62485	12754.406827152873	56
0	62486	12754.411198713097	55
0	62490	12754.479686408023	56
0	62492	12755.372824903567	57
0	62493	12755.427168006568	56
0	62496	12756.26565558531	55
0	62499	12757.276330338629	54
0	62502	12758.250884005731	53
0	62505	12759.083997107973	52
0	62509	12759.632464314772	53
0	62510	12760.067635334214	52
0	62514	12760.191265258452	53
0	62516	12760.880169929759	54
0	62517	12761.087942126417	53
0	62521	12762.039598002337	54
0	62522	12762.143481204962	53
0	62525	12763.329810022959	52
0	62528	12764.299845319451	51
0	62531	12765.339175560069	50
0	62539	12767.632313895621	49
0	62543	12767.633078115554	50
0	62550	12768.933641683763	51
0	62551	12769.814864841592	50
0	62559	12771.881963657611	49
0	62565	12772.741400775313	50
0	62570	12773.473866020355	51
0	62571	12773.868240278982	50
0	62575	12774.339661197721	51
0	62576	12774.747052010451	50
0	62582	12775.682020932623	51
0	62587	12776.12688748297	52
0	62588	12776.690962219541	51
0	62594	12776.966046057388	52
0	62599	12778.356477109484	53
0	62600	12778.825016126246	52
0	62603	12779.640074890223	51
0	62607	12779.686152212202	52
0	62609	12780.174190611494	53
0	62610	12780.724702838272	52
0	62614	12781.184333347335	53
0	62615	12781.664649109192	52
0	62623	12783.624876275588	51
0	62627	12783.97361008209	52
0	62629	12784.199069996667	53
0	62630	12784.612967168283	52
0	62633	12785.520785557874	51
0	62639	12785.848616010584	52
0	62643	12787.671669129212	51
0	62651	12789.74683879402	50
0	62654	12790.937905705557	49
0	62660	12791.787767439983	50
0	62665	12792.951647462231	51
0	62666	12792.955075107724	50
0	62675	12794.491361745909	51
0	62676	12794.729648707085	50
0	62680	12795.035921876991	51
0	62686	12796.745334619772	50
0	62694	12797.490917775614	51
0	62706	12800.425626144209	50
0	62709	12801.362523957552	49
0	62715	12802.161305618918	50
0	62719	12803.322443939769	49
0	62728	12804.361390521507	50
0	62729	12805.246711326415	49
0	62738	12806.818984806814	50
0	62739	12807.205969395047	49
0	62747	12809.070238963724	48
0	62750	12810.078829961852	47
0	62758	12812.268338285689	46
0	62764	12813.167651862083	47
0	62768	12814.149437409662	46
0	62777	12815.153420174014	47
0	62778	12815.987468400154	46
0	62781	12817.106172017868	45
0	62785	12817.147906719027	46
0	62792	12818.387081011411	47
0	62793	12819.059288280851	46
0	62801	12820.952073170452	45
0	62804	12821.983640583719	44
0	62813	12823.20926068354	45
0	62819	12825.127558101176	44
0	62832	12828.282690455413	43
0	62841	12830.149980233749	44
0	62842	12830.499543917387	43
0	62848	12830.939500076772	44
0	62853	12832.306685428081	45
0	62855	12832.671964432785	46
0	62856	12832.802481552421	45
0	62865	12834.38944622036	46
0	62866	12834.890425994921	45
0	62872	12835.186776414486	46
0	62874	12835.817127130756	47
0	62879	12836.121124050652	48
0	62885	12837.783318558172	47
0	62893	12839.781836517085	46
0	62901	12841.814235927467	45
0	62904	12842.995591476583	44
0	62908	12843.193753126942	45
0	62915	12845.013148732403	46
0	62916	12845.256877725781	45
0	62925	12846.753267419491	46
0	62926	12846.997093117633	45
0	62932	12847.416285393878	46
0	62936	12849.033949392126	45
0	62940	12849.809934256077	46
0	62941	12849.87464849765	45
0	62950	12851.49337417882	46
0	62956	12852.912183688605	45
0	62967	12853.97534042548	46
0	63016	12865.534975816519	45
0	63032	12867.727250071906	46
0	63071	12876.659247550392	45
0	63074	12877.791186860414	44
0	63078	12878.826229561828	45
0	63079	12878.864315827215	44
0	63082	12879.787085930748	43
0	63085	12880.858689806542	42
0	63091	12881.155095964492	43
0	63095	12881.246231928415	44
0	63102	12882.529991778538	45
0	63109	12885.17705525777	44
0	63112	12886.035418530392	43
0	63115	12887.05486427073	42
0	63119	12887.288844231951	43
0	63126	12888.566417441789	44
0	63128	12888.747322774686	45
0	63129	12889.234432740534	44
0	63132	12890.336246960076	43
0	63141	12892.18428014868	44
0	63143	12892.212930064335	45
0	63144	12892.705054035621	44
0	63153	12893.636968673777	45
0	63154	12894.466421318265	44
0	63157	12895.524186978979	43
0	63160	12896.592518317444	42
0	63164	12896.800510059866	43
0	63165	12897.64053049686	42
0	63168	12898.757451717673	41
0	63171	12899.635212621397	40
0	63174	12900.748420184782	39
0	63178	12900.914311664476	40
0	63180	12901.010650608519	41
0	63182	12901.482351717712	42
0	63183	12901.775490008878	41
0	63187	12902.44753328828	42
0	63188	12902.690225350788	41
0	63192	12903.733297763165	42
0	63193	12903.740406159336	41
0	63202	12904.665900255543	42
0	63203	12905.696993239342	41
0	63211	12907.385721849023	40
0	63214	12908.316766488856	39
0	63218	12909.08798568635	40
0	63219	12909.273345008796	39
0	63223	12909.830237978833	40
0	63227	12910.171910188039	41
0	63232	12910.439357521385	42
0	63234	12910.884762063178	43
0	63235	12911.481237712806	42
0	63239	12911.516567466559	43
0	63245	12913.523999189982	42
0	63251	12914.186292971948	43
0	63255	12915.491494361801	42
0	63264	12916.492143940449	43
0	63265	12917.344126936631	42
0	63273	12919.517896726938	41
0	63279	12920.198558561016	42
0	63283	12921.367438591203	41
0	63287	12921.436001938817	42
0	63289	12921.544940627503	43
0	63301	12923.941677511909	44
0	63302	12924.333578877734	43
0	63305	12925.138651170326	42
0	63309	12925.477663194166	43
0	63310	12925.99795509812	42
0	63319	12927.110946175198	43
0	63320	12927.880923935236	42
0	63328	12929.775942971581	41
0	63339	12931.504368186105	42
0	63343	12932.794299189025	41
0	63347	12932.806512810385	42
0	63348	12933.753460887564	41
0	63352	12934.362117649077	42
0	63359	12935.226460491245	43
0	63360	12935.99143448996	42
0	63368	12937.928047045531	41
0	63371	12938.737536011381	40
0	63375	12938.898491063112	41
0	63376	12939.770793558495	40
0	63380	12939.930913713159	41
[...]
9	135229	27484.566466177008	1
9	135233	27484.828469307181	0
9	135236	27485.303311601359	1
9	135240	27486.201672269051	0
9	135451	27530.99300033467	1
9	135453	27531.004263047889	0
9	135458	27531.933182528039	1
9	135463	27533.335181940654	0
9	135471	27534.571194106695	1
9	135479	27536.539227277488	2
9	135481	27536.872564817035	1
9	135483	27537.180274731833	0
9	135486	27537.407878324837	1
9	135491	27538.592073129658	2
9	135499	27540.747859397792	3
9	135501	27541.061736164775	2
9	135512	27543.956551080645	3
9	135517	27546.036846815367	2
9	135520	27546.148520337213	3
9	135527	27547.306639742274	4
9	135529	27547.669091612961	3
9	135531	27547.89822178657	2
9	135540	27550.540383703429	3
9	135542	27550.824228597949	2
9	135547	27551.738725705182	1
9	135550	27552.523657820075	2
9	135552	27552.8028939227	1
9	135555	27553.453887189253	2
9	135557	27554.283319869535	1
9	135559	27554.42766781492	0
9	135582	27558.627751824333	1
9	135584	27558.885628262466	0
9	135619	27565.430232804249	1
9	135621	27565.942617493104	0
9	135627	27567.344966713226	1
9	135631	27567.831801827668	0
9	135634	27568.293049296158	1
9	135636	27568.703486871155	0
9	135654	27572.097096549606	1
9	135664	27574.429276253849	0
9	135695	27581.356882274223	1
9	135700	27582.607597180746	0
9	135770	27597.603956712018	1
9	135773	27598.718627666476	2
9	135775	27598.813772838418	1
9	135778	27599.666255248132	2
9	135783	27600.588095324839	3
9	135785	27601.346243762516	2
9	135787	27601.577914910212	1
9	135790	27601.598135591371	2
9	135792	27601.795907526618	1
9	135794	27601.895171310525	0
9	135797	27602.624943426976	1
9	135799	27603.155507312159	0
9	135802	27603.481846975887	1
9	135809	27604.29450575996	2
9	135811	27604.648402324474	1
9	135816	27605.574854502786	0
9	135821	27606.239238882696	1
9	135823	27606.804445046642	0
9	135889	27620.039743482207	1
9	135891	27620.635234887962	0
9	135909	27624.028657742662	1
9	135914	27625.076428001539	2
9	135919	27626.469553741404	1
9	135923	27626.696415291039	0
9	135926	27627.077976938223	1
9	135934	27629.070354364233	2
9	135942	27631.224049801545	3
9	135947	27632.671710504186	2
9	135950	27632.964304435698	3
9	135954	27633.629470187659	2
9	135956	27633.938317888279	1
9	135959	27633.941348698901	2
9	135965	27635.956858674417	3
9	135967	27636.182390602319	2
9	135972	27636.92494109243	3
9	135974	27636.965535350807	2
9	135982	27638.72082629714	3
9	135984	27638.821347256045	2
9	135989	27639.89039598474	1
9	135991	27639.903629367302	0
9	136022	27646.834528613256	1
9	136024	27647.3203971788	0
9	136045	27651.832986027448	1
9	136048	27652.81202730758	2
9	136051	27653.901120804696	3
9	136053	27654.023081822153	2
9	136056	27654.829028291142	3
9	136058	27655.184544580353	2
9	136060	27655.509614457293	1
9	136063	27655.673566440659	2
9	136065	27656.212118215608	1
9	136067	27656.683881599722	0
9	136070	27656.793646054788	1
9	136073	27657.845380783713	2
9	136078	27659.030078116313	1
9	136081	27659.536243153996	2
9	136083	27660.13489795674	1
9	136085	27660.148281411422	0
9	136088	27660.441948773599	1
9	136092	27660.901110601104	0
9	136523	27748.539023725668	1
9	136528	27749.431673057543	2
9	136534	27751.138383824172	3
9	136538	27751.908055428107	2
9	136541	27752.129007881767	3
9	136544	27753.10361619925	4
9	136546	27753.358193344675	3
9	136554	27754.852079643475	4
9	136556	27755.722537786831	3
9	136564	27757.123548773935	4
9	136566	27757.432150359895	3
9	136571	27758.163951361433	2
9	136573	27758.352624511743	1
9	136577	27758.814386286905	0
9	136580	27759.042809525577	1
9	136587	27760.693831438339	0
9	136590	27760.837906001115	1
9	136597	27762.369880561991	0
9	136620	27766.532592803312	1
9	136625	27768.030547490672	0
9	136630	27768.656561208402	1
9	136635	27769.917685622251	0
9	136645	27771.294439203923	1
9	136647	27771.457439648663	0
9	136809	27802.335971597096	1
9	136818	27803.434975146272	0
9	136892	27819.093811900429	1
9	136894	27819.55558671434	0
9	137119	27864.126329596412	1
9	137121	27864.176391195796	0
9	137144	27868.875028743294	1
9	137148	27869.360365404669	0
9	137213	27882.000943834221	1
9	137222	27883.718312054313	0
9	137246	27888.931747072914	1
9	137248	27889.176879859366	0
9	137273	27894.010530329567	1
9	137275	27894.11833715767	0
9	137399	27918.867719196695	1
9	137401	27919.13137668223	0
9	137558	27950.191227445174	1
9	137572	27952.716931864141	0
9	137822	28000.252894605865	1
9	137826	28000.67381272143	0
9	138026	28042.767335585767	1
9	138028	28043.447271156013	0
9	138160	28068.640316772536	1
9	138162	28068.894928751781	0
9	138360	28109.173814588861	1
9	138362	28109.903272369725	0
9	138365	28110.271925656201	1
9	138367	28110.832382721455	0
9	138370	28111.458347456606	1
9	138372	28111.706952963578	0
9	138391	28116.651380245743	1
9	138394	28117.533692571504	2
9	138396	28118.079254814156	1
9	138398	28118.302964398073	0
9	138401	28118.344910534175	1
9	138406	28119.950114102062	0
9	138409	28120.353325508891	1
9	138414	28121.384795022926	2
9	138421	28122.68185733622	1
9	138423	28123.243979207388	0
9	138426	28123.408556328978	1
9	138431	28124.652947543436	0
9	138436	28125.343928309795	1
9	138438	28125.400597105493	0
9	138446	28127.111997296367	1
9	138448	28127.775557423762	0
9	138495	28138.032244567185	1
9	138497	28139.17387172811	0
9	138505	28140.133665205336	1
9	138507	28140.226682506019	0
9	138675	28175.060683219677	1
9	138677	28175.182871573156	0
9	138711	28183.240986545926	1
9	138713	28183.46272399674	0
9	138718	28184.351059513895	1
9	138720	28185.079792401341	0
9	138764	28194.05409536239	1
9	138767	28194.86166795444	2
9	138772	28196.027555453575	3
9	138779	28197.537145528438	2
9	138782	28197.961553694385	3
9	138784	28198.301735594612	2
9	138786	28198.378405022985	1
9	138794	28199.700898475184	2
9	138796	28199.786814432791	1
9	138798	28200.272231850359	0
9	138819	28204.517701522246	1
9	138824	28205.450907825012	2
9	138831	28207.52739243827	1
9	138841	28208.625975624736	2
9	138853	28211.488334636433	1
9	138860	28212.245370199818	0
9	138874	28215.572213044748	1
9	138876	28215.807082056394	0
9	138904	28221.41258148056	1
9	138906	28221.415074443365	0
9	138916	28223.221546352082	1
9	138927	28224.986557515212	0
9	139014	28242.160977702853	1
9	139021	28243.268111641411	2
9	139023	28243.32753121947	1
9	139028	28244.284291755472	0
9	139039	28247.320526610207	1
9	139044	28248.127392417364	2
9	139052	28250.035715706445	3
9	139060	28252.284093256745	4
9	139071	28255.348647987268	5
9	139075	28256.403983750028	4
9	139080	28256.725423312623	3
9	139087	28257.8260869431	2
9	139097	28259.57247236344	1
9	139099	28259.866544447262	0
9	139107	28261.461515351834	1
9	139129	28265.751766919392	0
9	139249	28290.588516723255	1
9	139251	28290.964064075443	0
9	139254	28291.697754573806	1
9	139257	28292.571584867484	2
9	139259	28292.707461796191	1
9	139261	28293.296391543183	0
9	139274	28295.432209892276	1
9	139281	28296.307050478257	2
9	139285	28297.054944063961	1
9	139290	28298.083066918682	0
9	139342	28307.723977565563	1
9	139344	28308.01046441896	0
9	139475	28334.618254289203	1
9	139477	28335.24261747576	0
9	139480	28335.67580918035	1
9	139482	28336.230918134219	0
9	139498	28339.583151284499	1
9	139501	28340.420186878728	2
9	139504	28341.350596753309	3
9	139508	28341.631915451321	2
9	139511	28342.387778887513	3
9	139514	28343.224396807129	4
9	139516	28343.256200458921	3
9	139518	28343.9249312955	2
9	139523	28344.36841958072	1
9	139525	28344.579013270774	0
9	139528	28345.112380454118	1
9	139531	28345.980641187156	2
9	139533	28347.116461610249	1
9	139536	28347.163217594928	2
9	139538	28347.680515519285	1
9	139541	28348.335925566393	2
9	139543	28349.101213516848	1
9	139546	28349.238336926407	2
9	139549	28350.250757032248	3
9	139551	28350.474053844118	2
9	139554	28351.057792828685	3
9	139557	28351.950904848041	4
9	139559	28351.986113440724	3
9	139564	28352.899676371446	4
9	139566	28353.286123694612	3
9	139571	28353.854997660682	2
9	139574	28354.680584397061	3
9	139576	28354.918665299327	2
9	139579	28355.526734365696	3
9	139581	28356.071256605351	2
9	139584	28356.548820064017	3
9	139586	28357.107690533427	2
9	139588	28357.376828978419	1
9	139591	28357.426367797596	2
9	139593	28357.905247274212	1
9	139596	28358.374088063078	2
9	139599	28359.204283899428	3
9	139601	28360.108060571263	2
9	139610	28362.111092668758	3
9	139613	28363.079032857889	4
9	139615	28364.109329239468	3
9	139618	28364.123156134305	4
9	139621	28364.991412043465	5
9	139624	28366.028580040285	6
9	139627	28367.138634682433	7
9	139632	28368.157961640307	8
9	139634	28368.504123226889	7
9	139639	28369.123927984255	6
9	139651	28371.186676534508	5
9	139653	28371.191633781878	4
9	139655	28371.552762615308	3
9	139658	28371.832505854578	4
9	139662	28372.514632825473	3
9	139665	28372.846690839888	4
9	139672	28374.405610113731	3
9	139675	28374.629609480487	4
9	139677	28374.915120987177	3
9	139684	28376.128458369561	2
9	139687	28376.402217315777	3
9	139689	28376.575333674803	2
9	139694	28377.726625525119	1
9	139697	28378.305357325065	2
9	139699	28378.417610555232	1
9	139701	28378.737494309023	0
9	139707	28380.222505857597	1
9	139715	28383.141933450053	0
9	139735	28386.55856035658	1
9	139737	28386.652762547151	0
9	139862	28410.448836848502	1
9	139864	28411.263315937251	0
9	139930	28424.653694319994	1
9	139935	28425.585229396094	0
9	139945	28427.616333091063	1
9	139957	28429.638040876066	0
9	139988	28436.756968649375	1
9	139990	28437.831195776174	0
9	140021	28444.155847447915	1
9	140025	28444.609978637294	0
9	140084	28457.629903853676	1
9	140086	28458.125738436281	0
9	140101	28460.300264758794	1
9	140103	28460.928657873767	0
9	140168	28473.752959882832	1
9	140178	28476.347466548119	0
9	140198	28479.196437449374	1
9	140200	28479.509410264864	0
9	140339	28508.262106077646	1
9	140346	28509.329861401108	2
9	140348	28509.710824837455	1
9	140353	28510.942035836818	0
9	140359	28512.030619270721	1
9	140364	28512.8798009213	2
9	140366	28513.357187905868	1
9	140375	28514.895460885968	0
9	140378	28514.895616739051	1
9	140380	28515.223360990277	0
9	140521	28543.82861145753	1
9	140528	28545.39502480667	0
9	140531	28546.052564818315	1
9	140565	28552.450496713012	0
9	140828	28604.661209126741	1
9	140830	28604.919180611674	0
9	140856	28610.393016411449	1
9	140861	28611.556935238551	2
9	140863	28612.17800916924	1
9	140868	28612.827706474693	0
9	141110	28659.972623698776	1
9	141112	28659.997041452631	0
9	141151	28669.287137433038	1
9	141153	28670.217805166637	0
9	141159	28671.587713500568	1
9	141163	28671.81845891714	0
9	141381	28717.039320030798	1
9	141383	28717.118842605698	0
9	141453	28733.56860710046	1
9	141455	28734.435941234527	0
9	141458	28734.591812872875	1
9	141460	28734.648254321696	0
9	141465	28735.722927615501	1
9	141468	28736.664830886375	2
9	141470	28736.72342412539	1
9	141472	28737.359172552029	0
9	141478	28738.536379402864	1
9	141481	28739.641501635115	2
9	141483	28739.883890072148	1
9	141486	28740.471309567231	2
9	141489	28741.291020714945	3
9	141491	28742.007662437566	2
9	141494	28742.117528080555	3
9	141496	28742.811840669143	2
9	141501	28743.169782670599	1
9	141504	28743.997489858126	2
9	141507	28744.901775470176	3
9	141509	28745.060099436624	2
9	141511	28745.637889981458	1
9	141514	28745.722800642797	2
9	141516	28746.279616501158	1
9	141519	28746.713228784488	2
9	141521	28747.345989187258	1
9	141524	28747.640624950347	2
9	141526	28747.771618272911	1
9	141529	28748.721891906471	2
9	141531	28748.791686343259	1
9	141534	28749.636958851372	2
9	141536	28749.800322597786	1
9	141538	28750.172434318098	0
9	141541	28750.77321198842	1
9	141546	28751.797420724001	2
9	141551	28753.061490920903	1
9	141554	28753.543557390463	2
9	141559	28754.723639522292	3
9	141561	28755.116291556337	2
9	141566	28755.567753672476	1
9	141579	28758.630127795859	0
9	141776	28798.396038650188	1
9	141790	28800.077747136216	0
9	141939	28831.746117533677	1
9	141949	28833.845291976324	0
9	141998	28842.566837837389	1
9	142000	28843.519027959405	0
9	142031	28849.151656352199	1
9	142038	28851.071890507186	0
9	142069	28857.472995763303	1
9	142076	28858.626214803321	2
9	142078	28858.680462658674	1
9	142080	28859.055385314125	0
9	142104	28864.800690250783	1
9	142107	28865.857334923125	2
9	142109	28866.10326722171	1
9	142112	28866.968242798592	2
9	142115	28868.038039556271	3
9	142116	28869.379192641126	2
9	142121	28870.254000318143	1
9	142124	28870.375592848598	0
9	142230	28893.914802762585	1
9	142244	28897.462832398411	0
9	142255	28899.943152195207	1
9	142266	28901.816082835145	0
9	142614	28970.190186899134	1
9	142623	28971.817080526526	0
9	142669	28981.231589484659	1
9	142671	28981.526750876814	0
9	142684	28984.064361762885	1
9	142686	28984.4746655646	0
9	142700	28987.750807850414	1
9	142702	28987.948982161421	0
9	142710	28989.756439809759	1
9	142712	28989.995547287654	0
9	142717	28990.844036523697	1
9	142719	28991.152282087348	0
9	142725	28992.884975864531	1
9	142728	28993.9611927307	2
9	142731	28995.055783060545	3
9	142734	28995.938029581195	4
9	142736	28996.433136155257	3
9	142739	28997.069338945838	4
9	142741	28997.306476885692	3
9	142743	28997.849632257485	2
9	142749	28999.03493926877	3
9	142751	28999.166180654692	2
9	142760	29002.359439892395	3
9	142761	29004.826022050931	2
9	142764	29005.051999943361	1
9	142766	29005.181268361895	0
9	142771	29005.971974576666	1
9	142776	29007.610230777277	0
9	142779	29008.016829908296	1
9	142784	29008.833682659205	2
9	142791	29011.049367947387	1
9	142794	29012.123832914721	0
9	142797	29012.135196952964	1
9	142799	29012.781234397468	0
9	142802	29012.95117362726	1
9	142804	29012.987205012477	0
9	142906	29032.668922423642	1
9	142908	29033.660867688621	0
9	143013	29053.849534054452	1
9	143015	29054.11710638706	0
9	143209	29089.945429554282	1
9	143211	29090.283962271077	0
9	143244	29096.886586847043	1
9	143246	29097.010329725558	0
9	143274	29102.707110047041	1
9	143279	29103.89471427031	0
9	143386	29125.114846661482	1
9	143388	29125.98372510758	0
9	143419	29131.915012326445	1
9	143421	29131.990172376292	0
9	143424	29132.779430499188	1
9	143427	29133.585514398738	2
9	143430	29134.656166046932	3
9	143432	29134.694886582415	2
9	143435	29135.4679483461	3
9	143442	29136.423528777423	2
9	143444	29136.660243304816	1
9	143446	29136.832325633493	0
9	143456	29138.107176678888	1
9	143458	29138.53782277142	0
9	143502	29148.463997830525	1
9	143507	29149.398968597669	2
9	143509	29150.116737328204	1
9	143511	29150.203665053453	0
9	143616	29170.049479144887	1
9	143618	29170.982925579379	0
9	143621	29171.110342293308	1
9	143623	29171.359542177749	0
9	143636	29174.126354183239	1
9	143644	29176.168476987053	2
9	143646	29176.3779896536	1
9	143648	29176.528449788625	0
9	143792	29206.12024751099	1
9	143794	29206.307974127669	0
9	143799	29207.048371237779	1
9	143801	29207.876337905799	0
9	143809	29208.956210324058	1
9	143816	29210.295056491063	0
9	143832	29213.34880073134	1
9	143840	29215.49276461376	2
9	143850	29217.186101262719	3
9	143857	29218.712906897832	2
9	143859	29218.866761610691	1
9	143872	29220.970834889897	2
9	143874	29221.866049769663	1
9	143876	29222.069137718214	0
9	143886	29223.000453280919	1
9	143890	29223.459350000482	0
9	143979	29241.362655297371	1
9	143981	29241.708671118478	0
9	143992	29244.095556963125	1
9	143994	29244.265626198652	0
9	144040	29254.083383878023	1
9	144044	29254.734828004272	0
9	144047	29255.156250423082	1
9	144049	29255.724104342118	0
9	144413	29325.510045146085	1
9	144433	29328.178052380105	0
9	145054	29450.248563957292	1
9	145056	29451.249657849841	0
9	145222	29484.907251741815	1
9	145228	29486.910885100983	2
9	145231	29487.91408760453	3
9	145236	29488.9480705028	2
9	145238	29489.161112871832	1
9	145240	29489.494049646719	0
9	145243	29489.858611919902	1
9	145252	29491.15550689001	0
9	145255	29491.809845841195	1
9	145260	29493.53510721294	0
9	145489	29538.429020697513	1
9	145491	29539.341123083065	0
9	145494	29539.492508287431	1
9	145496	29539.806051659493	0
9	145516	29543.618569986226	1
9	145521	29544.853419482386	0
9	145526	29545.356551860256	1
9	145539	29548.845052185021	0
9	145995	29639.268728752413	1
9	145998	29640.284702894815	2
9	146001	29641.472567826208	3
9	146003	29642.451727764219	2
9	146006	29642.456396038436	3
9	146010	29642.692844257322	2
9	146015	29643.647466250115	3
9	146023	29645.318963739906	4
9	146025	29645.55879990328	3
9	146033	29647.033709261265	4
9	146038	29648.473507482208	3
9	146042	29648.952285696748	2
9	146045	29649.269610039775	3
9	146047	29649.356643269832	2
9	146054	29651.299227848313	1
9	146061	29651.781633081169	0
9	146083	29655.535927685515	1
9	146097	29657.925060607308	0
9	146148	29668.829900178663	1
9	146150	29669.077559896918	0
9	146155	29669.784114796832	1
9	146162	29670.832776801926	0
9	146169	29671.743775947928	1
9	146176	29673.138262875098	0
9	146223	29683.944930568035	1
9	146230	29684.909723754471	0
9	146233	29685.914928040817	1
9	146240	29686.884006133001	2
9	146242	29686.919197208684	1
9	146244	29686.945915429974	0
9	146301	29700.212864693418	1
9	146304	29701.229191196315	2
9	146306	29701.583618004765	1
9	146308	29701.916385365656	0
9	146321	29704.493752262253	1
9	146325	29704.88829001723	0
9	146330	29705.389362051036	1
9	146332	29705.658908195543	0
9	146338	29707.206010159921	1
9	146343	29708.394691641793	2
9	146345	29709.171311822195	1
9	146350	29709.363032514944	0
9	146404	29721.529450951495	1
9	146407	29722.33235937271	2
9	146409	29723.207407625836	1
9	146412	29723.388764084575	2
9	146417	29724.390507215054	3
9	146423	29724.847214008493	2
9	146425	29724.979325960829	1
9	146440	29728.041859474353	0
9	146763	29791.340379294732	1
9	146765	29792.116865614696	0
9	146775	29793.396566460912	1
9	146777	29793.748845867057	0
9	146923	29823.040568781716	1
9	146930	29824.109462021736	2
9	146932	29824.916474257283	1
9	146948	29828.06838316608	2
9	146950	29828.220598901094	1
9	146954	29829.147715589428	0
9	147256	29890.708754521592	1
9	147258	29890.805871473907	0
9	147382	29917.400523060918	1
9	147389	29919.240970094617	0
9	147392	29919.297104969793	1
9	147394	29920.203746891824	0
9	147405	29922.30931459338	1
9	147407	29922.918941766991	0
9	147410	29923.349741328122	1
9	147412	29924.045356880282	0
9	147415	29924.264384902349	1
9	147418	29925.39802752881	2
9	147422	29926.330680477866	1
9	147425	29926.410576029389	2
9	147433	29928.169733390758	3
9	147435	29928.254700412346	2
9	147437	29928.299579902547	1
9	147439	29928.624499348963	0
9	147467	29934.980209254275	1
9	147469	29935.130955239353	0
9	147482	29938.179204422316	1
9	147488	29939.956757013766	2
9	147490	29940.059291738186	1
9	147499	29940.836550512245	2
9	147501	29941.134408615209	1
9	147518	29944.190550046447	0
9	147538	29947.641131789597	1
9	147543	29949.062180856749	0
9	147624	29966.400876490201	1
9	147627	29967.32725136195	2
9	147630	29968.286291459563	3
9	147633	29969.132749117712	4
9	147636	29970.055955246451	5
9	147639	29971.023911324317	6
9	147642	29971.880775600752	7
9	147645	29972.727720599422	8
9	147648	29973.847442663261	9
9	147650	29974.198362031106	8
9	147652	29974.475740681601	7
9	147654	29974.666658668803	6
9	147657	29975.024624057194	7
9	147659	29975.347318223221	6
9	147662	29975.918062050814	7
9	147664	29976.103589082632	6
9	147666	29976.322683518698	5
9	147668	29976.679028980098	4
9	147671	29976.808605936809	5
9	147673	29977.376934330504	4
9	147675	29977.484721576229	3
9	147677	29977.518980994081	2
9	147680	29977.744487497943	3
9	147682	29978.202052507498	2
9	147685	29978.825838257174	3
9	147688	29979.831266147445	4
9	147690	29980.211378652216	3
9	147693	29980.735918543196	4
9	147696	29981.565359328954	5
9	147699	29982.641545392653	6
9	147702	29983.837525066162	7
9	147704	29983.998614917687	6
9	147706	29984.712811565328	5
9	147712	29985.853899028419	6
9	147714	29986.721697720067	5
9	147716	29986.975959311703	4
9	147719	29987.041386268275	5
9	147725	29989.035113920072	6
9	147727	29989.833487210675	5
9	147729	29989.901833874701	4
9	147732	29990.047899951866	5
9	147734	29990.531769377824	4
9	147739	29990.970329714088	5
9	147742	29991.900784977047	6
9	147745	29992.99871812713	7
9	147754	29994.885973115475	6
9	147759	29995.108031366903	5
9	147769	29997.122816882456	6
9	147776	29998.720103940865	5

