version 2
run Second_exit_9-5-20191023-00:20:12-5241
attr configname Second_exit_9
attr datetime 20191023-00:20:12
attr experiment Second_exit_9
attr inifile omnetpp.ini
attr iterationvars ""
attr iterationvarsf ""
attr measurement ""
attr network ResponseTimeNetwork
attr processid 5241
attr repetition 5
attr replication #5
attr resultdir results
attr runnumber 5
attr seedset 5
param **.Source.interArrivalTime exponential(5s)
param **.jobPriority bernoulli(0.6)
param **.PS.serviceTimeU1 "uniform(0.8s, 1.2s)"
param **.PS.serviceTimeU2 "uniform(1.8s, 2.2s)"
param **.SS1.serviceTime exponential(1s)
param **.SS2.serviceTime exponential(1.2s)
param **.PS.exitProbability bernoulli(0.9)

vector 0 ResponseTimeNetwork.SS1 queueLength:vector ETV
attr interpolationmode sample-hold
attr title "queue length, vector"
vector 1 ResponseTimeNetwork.SS2 queueLength:vector ETV
attr interpolationmode sample-hold
attr title "queue length, vector"
vector 2 ResponseTimeNetwork.QueueU1 queueLength:vector ETV
attr interpolationmode sample-hold
attr title "queue length, vector"
vector 3 ResponseTimeNetwork.QueueU2 queueLength:vector ETV
attr interpolationmode sample-hold
attr title "queue length, vector"
vector 4 ResponseTimeNetwork.sink lifeTimeU2:vector ETV
attr interpolationmode none
attr title "lifetime of arrived jobs U2, vector"
attr unit s
vector 5 ResponseTimeNetwork.sink lifeTime:vector ETV
attr interpolationmode none
attr title "lifetime of arrived jobs, vector"
attr unit s
vector 6 ResponseTimeNetwork.sink lifeTimeU1:vector ETV
attr interpolationmode none
attr title "lifetime of arrived jobs U1, vector"
attr unit s
2	0	0	0
2	5	1.538904756566	1
2	6	2.387631024455	0
2	10	2.69679457512	1
2	11	3.579409023502	0
2	15	4.084810395971	1
2	16	4.685772167553	0
2	20	5.416450910448	1
2	21	5.680427366902	0
2	25	6.047964985372	1
2	26	6.555515857355	0
2	35	10.953416125669	1
2	37	11.12575946833	2
2	38	11.268273156362	1
2	41	12.112633463035	0
2	50	13.514818011338	1
2	51	14.306444085678	0
2	55	14.306605489559	1
2	56	15.315914200721	0
2	60	15.617758072471	1
2	62	15.926757924883	2
2	64	15.941446019346	3
2	65	16.408662640126	2
2	69	16.506675808219	3
2	70	17.310097920438	2
2	74	17.70694617273	3
2	75	18.443495018324	2
2	80	19.309740160322	1
2	83	20.493830849054	0
2	87	20.672932063628	1
2	88	21.369196708697	0
2	100	26.191625384174	1
2	101	26.770612527671	0
2	105	27.149063246939	1
2	107	27.608185809316	2
2	109	27.609829329285	3
2	112	27.80167767262	2
2	116	28.526258982185	3
2	117	28.928144745211	2
2	120	30.122394506595	1
2	123	31.026033544316	0
2	127	31.527028751483	1
2	128	32.147032299134	0
2	132	32.626819127422	1
2	133	33.026938460729	0
2	145	35.187522447078	1
2	148	35.686517947129	0
2	157	36.868093785745	1
2	159	37.531548346231	2
2	160	37.608188962898	1
2	164	37.661142891499	2
2	166	38.033627756843	3
2	167	38.442799237332	2
2	173	39.085855325719	3
2	176	39.343297283127	2
2	179	40.520518696643	1
2	183	40.75984693872	2
2	187	41.039711285276	3
2	188	41.471428551115	2
2	191	42.642101599425	1
2	195	42.710505560536	2
2	196	43.807152305506	1
2	200	44.043504272957	2
2	202	44.142444037163	3
2	203	44.978073128369	2
2	207	45.2951939363	3
2	209	45.331348749554	4
2	211	45.804018437547	5
2	212	45.947755412255	4
2	215	46.810567856916	3
2	219	47.538090575947	4
2	221	47.747168181752	5
2	222	47.944893523549	4
2	226	48.399776475185	5
2	227	49.002366350462	4
2	231	49.146514757527	5
2	233	49.981621904201	6
2	234	50.120401339849	5
2	238	50.953931338168	6
2	240	51.138939885359	7
2	241	51.302820782514	6
2	244	52.47854052257	5
2	248	53.516372255682	6
2	249	53.655956556892	5
2	253	53.774393783146	6
2	256	54.780510317406	5
2	260	55.215491481105	6
2	261	55.620841226878	5
2	265	56.104390688267	6
2	266	56.717693269031	5
2	270	57.184142112481	6
2	271	57.902134504599	5
2	275	58.366573836436	6
2	276	58.763199751323	5
2	280	59.151360718066	6
2	281	59.907082508655	5
2	285	60.024865138197	6
2	286	60.8509564567	5
2	289	61.990948469063	4
2	293	62.046955639667	5
2	295	62.637853360819	6
2	296	62.996843655279	5
2	300	63.629500287078	6
2	301	64.117034222709	5
2	304	65.146081682818	4
2	307	66.110635130445	3
2	311	66.528646086553	4
2	314	67.304689848016	3
2	318	67.938932067056	4
2	320	68.150243115708	5
2	321	68.40390006589	4
2	324	69.439874768502	3
2	327	70.442425096466	2
2	330	71.329338251578	1
2	333	72.358967643103	0
2	337	72.548097155694	1
2	338	73.47173359521	0
2	345	75.285886990884	1
2	346	75.594236349559	0
2	350	75.61921066494	1
2	354	76.367273610167	2
2	355	76.698191148753	1
2	358	77.784582436795	0
2	365	79.078479998447	1
2	366	79.484730186279	0
2	370	80.547863286614	1
2	371	80.67816882009	0
2	380	81.785906765698	1
2	382	82.694058226906	2
2	383	82.865722503572	1
2	388	83.843923895679	0
2	400	86.19156260529	1
2	402	86.357249557417	2
2	404	86.836840667279	3
2	405	86.962689403038	2
2	411	87.308433583949	3
2	413	87.434211517165	4
2	415	87.499711548313	5
2	416	88.087957614813	4
2	422	88.842679041357	5
2	424	88.899839139417	6
2	425	89.168581705321	5
2	429	89.287220181868	6
2	430	90.036681736507	5
2	434	90.548940554355	6
2	435	91.16253853884	5
2	440	92.265799447954	4
2	444	93.134495581687	5
2	446	93.196181257388	6
2	448	93.383051159753	7
2	449	93.407457455773	6
2	452	94.435847541936	5
2	455	95.356854785573	4
2	462	96.487137118694	3
2	466	96.735362471319	4
2	469	97.330132929482	3
2	472	98.412621232927	2
2	475	99.587038601063	1
2	479	100.658926939484	2
2	480	100.681913017262	1
2	484	100.690551838684	2
2	486	101.290301988271	3
2	487	101.699605955988	2
2	490	102.831351809822	1
2	494	102.894991018393	2
2	496	103.437400374914	3
2	500	103.570745922093	4
2	501	103.669477387298	3
2	505	104.319783964617	4
2	507	104.769921085065	5
2	508	104.853961844988	4
2	511	105.852640048846	3
2	515	106.325866142368	4
2	516	106.737096449978	3
2	520	106.883906678694	4
2	521	107.603486298084	3
2	525	108.264520435239	4
2	527	108.380127730111	5
2	529	108.569352283171	6
2	530	108.705831832219	5
2	533	109.676086765681	4
2	536	110.64562660499	3
2	539	111.573085178961	2
2	542	112.519218385746	1
2	546	113.416696963752	2
2	547	113.510394910318	1
2	550	114.341157571566	0
2	554	114.649858939735	1
2	556	114.84205242133	2
2	557	115.180808971137	1
2	561	115.201425428807	2
2	563	115.31786755021	3
2	567	115.700153682956	4
2	568	116.035401010666	3
2	572	116.09092759622	4
2	573	117.114270144388	3
2	576	118.138635980211	2
2	581	119.158126460261	1
2	584	120.24884221122	0
2	593	121.978200975636	1
2	594	122.330567654561	0
2	598	122.467354346227	1
2	600	122.580688103418	2
2	603	123.441520453863	1
2	607	123.508553860337	2
2	609	124.363884333587	3
2	610	124.365212760739	2
2	614	124.645757976241	3
2	615	125.19371915568	2
2	619	125.278583113773	3
2	621	125.291514436312	4
2	623	125.646513190231	5
2	625	125.827605695908	6
2	626	126.331164594892	5
2	630	126.830440751575	6
2	632	127.015654906754	7
2	634	127.156386893376	8
2	635	127.293796469703	7
2	638	128.244847759384	6
2	642	129.195769164149	7
2	643	129.238293784357	6
2	646	130.102166159137	5
2	650	130.175943875018	6
2	653	131.259671220242	5
2	657	131.340982581748	6
2	658	132.306351749285	5
2	662	132.372797018121	6
2	663	133.31014178634	5
2	667	133.368477314845	6
2	669	134.394205675391	7
2	670	134.430271089043	6
2	674	134.843723883707	7
2	675	135.241356362462	6
2	678	136.113948846668	5
2	682	136.314832874636	6
2	684	136.805049183766	7
2	685	136.96185645467	6
2	688	138.046188902262	5
2	692	138.218564247924	6
2	693	139.192335132662	5
2	697	139.647897808898	6
2	698	140.049485449832	5
2	701	141.110939165916	4
2	704	141.999108868617	3
2	707	142.807808664034	2
2	711	143.44440668444	3
2	713	143.444789657304	4
2	715	143.683130552326	5
2	716	143.872177641618	4
2	719	144.736630621797	3
2	723	145.550807063214	4
2	725	145.612281711023	5
2	726	145.832330917346	4
2	730	146.486736914873	5
2	731	146.940434916935	4
2	735	147.326304509146	5
2	736	148.002457875258	4
2	739	148.954369229323	3
2	742	149.953173368203	2
2	748	150.582557308004	3
2	749	150.888508827949	2
2	752	152.054258788249	1
2	755	153.226227747242	0
2	772	156.326637343438	1
2	773	156.59507143941	0
2	784	158.168907708932	1
2	787	158.574240316043	0
2	791	159.025455775725	1
2	792	159.568863153516	0
2	796	160.223218534404	1
2	798	160.277076108595	2
2	800	160.368313141692	3
2	801	160.474908218312	2
2	805	161.165629235462	3
2	808	161.55791870734	2
2	812	161.780164660138	3
2	814	161.991696309004	4
2	816	161.996611852792	5
2	817	162.745011027868	4
2	821	163.002319425867	5
2	823	163.55378659223	6
2	825	163.852443851114	7
2	826	163.920432200248	6
2	829	165.030847122951	5
2	832	165.923930920626	4
2	836	166.096200997594	5
2	837	166.799289392739	4
2	840	167.834569237813	3
2	843	168.989728996683	2
2	846	170.052213505436	1
2	850	170.706941401347	2
2	851	171.041325056892	1
2	855	171.1065881975	2
2	857	171.53764743269	3
2	859	171.990419844982	4
2	860	172.022777862255	3
2	863	172.893781482954	2
2	867	173.491605763436	3
2	868	173.748955625356	2
2	872	174.027393593159	3
2	873	174.57673259486	2
2	877	175.132769017808	3
2	879	175.302814615504	4
2	880	175.525294575156	3
2	884	175.534119736035	4
2	885	176.457576335934	3
2	889	176.550711377	4
2	891	177.124362423579	5
2	893	177.320298633475	6
2	894	177.419573975788	5
2	898	177.517069034574	6
2	899	178.397890959555	5
2	903	178.990849252087	6
2	904	179.430013141563	5
2	907	180.341604211802	4
2	911	181.163356632994	5
2	912	181.171672411604	4
2	915	182.177510204321	3
2	919	182.392337564092	4
2	920	183.161981628059	3
2	924	183.64521211766	4
2	926	184.139580298006	5
2	928	184.282187957887	6
2	929	184.294156707047	5
2	933	184.748738200292	6
2	934	185.361875687322	5
2	937	186.441624870027	4
2	941	186.515344906424	5
2	942	187.611885595942	4
2	946	188.771880926794	5
2	947	188.791923340378	4
2	951	188.805031115798	5
2	952	189.819649619298	4
2	955	190.702665587204	3
2	959	190.865561804206	4
2	961	191.305341341316	5
2	962	191.542040414425	4
2	966	192.050368671948	5
2	968	192.076750882038	6
2	969	192.581652140493	5
2	974	193.466559265988	4
2	978	193.638764519226	5
2	979	194.56784453929	4
2	982	195.585566513953	3
2	986	195.59845669186	4
2	988	196.340586599901	5
2	989	196.393374497597	4
2	993	196.41188543039	5
2	995	197.164782064875	6
2	997	197.27522235419	7
2	998	197.403554290221	6
2	1002	197.75452756627	7
2	1003	198.297315939669	6
2	1007	198.629574874392	7
2	1008	199.485558222108	6
2	1012	200.119807418385	7
2	1013	200.496017145891	6
2	1017	201.219634117253	7
2	1018	201.671313983541	6
2	1021	202.506610269904	5
2	1024	203.625689058997	4
2	1027	204.7172680237	3
2	1031	205.07431309558	4
2	1033	205.656384650923	5
2	1035	205.71563022864	6
2	1036	205.907530899127	5
2	1039	206.996126389285	4
2	1043	207.258004897381	5
2	1045	208.006438227977	6
2	1046	208.057392020026	5
2	1049	209.182124122014	4
2	1053	209.463039767868	5
2	1055	209.56352174931	6
2	1056	210.166788738096	5
2	1060	210.226373705716	6
2	1061	211.00574323597	5
2	1065	211.469149104627	6
2	1066	212.170953107594	5
2	1070	212.836980303322	6
2	1071	213.059061915862	5
2	1074	214.16350819186	4
2	1078	214.441026132677	5
2	1080	214.659888643493	6
2	1081	215.361238559677	5
2	1084	216.373968506387	4
2	1088	216.807718903126	5
2	1089	217.532101968645	4
2	1092	218.487419229156	3
2	1095	219.590119228202	2
2	1099	220.515137859045	3
2	1100	220.727700677204	2
2	1104	221.729664644573	3
2	1105	221.873534168179	2
2	1109	221.982865521442	3
2	1111	222.730126232419	4
2	1112	222.820831130042	3
2	1115	223.723786069422	2
2	1119	223.788066596618	3
2	1121	224.057445773838	4
2	1123	224.407274887206	5
2	1124	224.867185643191	4
2	1129	226.042501057467	3
2	1133	226.191438521425	4
2	1134	227.08390743422	3
2	1139	228.078066104433	2
2	1143	228.264371030365	3
2	1144	229.015189316838	2
2	1148	229.640049192388	3
2	1150	229.703430006151	4
2	1151	230.193249821166	3
2	1155	230.269384149246	4
2	1157	230.865684402368	5
2	1158	231.061478595218	4
2	1162	231.416701541076	5
2	1163	232.011844804572	4
2	1167	232.737191817385	5
2	1169	232.758926573055	6
2	1170	232.948110291237	5
2	1174	233.398370424861	6
2	1175	234.08704522342	5
2	1179	234.937599438729	6
2	1180	235.245285049049	5
2	1183	236.27722494301	4
2	1186	237.347174892915	3
2	1190	237.71078113976	4
2	1193	238.461364153647	3
2	1197	238.595276721553	4
2	1199	238.603706603089	5
2	1200	239.311069291704	4
2	1204	240.017707502687	5
2	1205	240.346376718548	4
2	1208	241.207136475914	3
2	1211	242.183663143464	2
2	1215	242.383959691766	3
2	1217	243.095529528892	4
2	1219	243.133321502088	5
2	1220	243.307016358585	4
2	1224	244.162336082718	5
2	1226	244.199024816919	6
2	1227	244.345130410385	5
2	1231	244.418115291084	6
2	1233	244.561688657855	7
2	1235	245.147785249403	8
2	1237	245.225387836694	9
2	1238	245.261559879468	8
2	1242	246.241871560935	9
2	1244	246.438502155123	10
2	1245	246.443700510604	9
2	1249	246.953208666846	10
2	1250	247.50616038634	9
2	1254	247.73877659279	10
2	1255	248.5020159437	9
2	1259	248.827840826468	10
2	1260	249.529149263506	9
2	1263	250.590064854887	8
2	1267	250.826184826322	9
2	1270	251.659028165755	8
2	1274	251.71918775959	9
2	1275	252.600851827269	8
2	1279	252.62174239343	9
2	1280	253.47192926264	8
2	1284	253.519613943722	9
2	1285	254.360051462209	8
2	1288	255.526211755878	7
2	1292	256.302292261877	8
2	1293	256.427298265944	7
2	1296	257.302930320582	6
2	1300	257.741143012509	7
2	1301	258.319656997795	6
2	1305	258.421000871912	7
2	1306	259.308373404263	6
2	1309	260.436510144795	5
2	1313	261.143313465388	6
2	1314	261.29698543471	5
2	1318	261.400669794831	6
2	1320	261.871937659934	7
2	1321	262.177926577317	6
2	1325	262.424451591956	7
2	1326	263.316963755867	6
2	1329	264.252324391498	5
2	1333	264.259726167283	6
2	1334	265.381107867758	5
2	1338	265.429166190851	6
2	1340	265.65742826078	7
2	1341	266.359455340791	6
2	1344	267.277699780434	5
2	1348	267.349148472297	6
2	1350	267.500347494921	7
2	1352	267.611712205035	8
2	1353	268.185781319037	7
2	1357	268.819433687641	8
2	1358	269.052205230359	7
2	1362	269.378671368556	8
2	1363	270.073779348068	7
2	1367	270.721319404655	8
2	1368	271.242600219201	7
2	1372	271.32775314078	8
2	1373	272.100351900018	7
2	1377	272.43913780967	8
2	1379	272.923710186392	9
2	1380	273.172525911282	8
2	1383	273.999640550248	7
2	1387	274.034466982313	8
2	1389	274.047694155575	9
2	1390	274.972440393518	8
2	1394	275.905376107926	9
2	1395	275.941455913957	8
2	1398	276.826066672027	7
2	1402	277.255300018872	8
2	1404	277.633529161611	9
2	1405	278.016126682673	8
2	1409	278.15174128503	9
2	1410	278.995610404916	8
2	1413	279.924110021226	7
2	1417	279.938308224196	8
2	1418	281.11437380851	7
2	1422	281.158841035642	8
2	1423	282.020903228565	7
2	1427	282.737707953679	8
2	1428	283.17084091135	7
2	1432	283.792640944496	8
2	1433	284.272003307628	7
2	1437	284.44415219759	8
2	1438	285.143103777307	7
2	1442	285.285174790072	8
2	1443	286.252730637851	7
2	1447	286.305559777765	8
2	1448	287.315950479514	7
2	1451	288.130359875566	6
2	1455	288.385499552984	7
2	1456	289.013475414055	6
2	1459	289.894171106039	5
2	1462	290.708621801032	4
2	1466	290.900511208628	5
2	1467	291.562942747927	4
2	1471	292.023447857402	5
2	1473	292.303555075431	6
2	1475	292.705850581062	7
2	1477	292.725940849636	8
2	1478	292.735225415013	7
2	1482	293.168823710373	8
2	1483	293.83550580858	7
2	1486	294.644938316631	6
2	1490	294.849854337079	7
2	1492	295.290570170389	8
2	1493	295.547037892199	7
2	1496	296.545947504478	6
2	1500	296.810779717575	7
2	1502	297.313458333721	8
2	1503	297.704453122678	7
2	1507	298.692918826763	8
2	1508	298.778257248985	7
2	1512	299.439539103816	8
2	1513	299.890004409073	7
2	1517	300.319223900624	8
2	1519	300.827980204339	9
2	1521	300.95211863575	10
2	1522	300.959023655919	9
2	1526	300.974098872107	10
2	1527	301.928626123039	9
2	1531	301.933927804518	10
2	1535	302.662009540514	11
2	1536	302.877344188435	10
2	1540	303.348748649606	11
2	1541	303.992922147145	10
2	1544	304.997721731537	9
2	1548	305.336582044894	10
2	1549	306.049307843824	9
2	1553	306.635948441986	10
2	1554	307.226837008041	9
2	1557	308.083192489263	8
2	1560	309.180481238351	7
2	1564	309.664063853674	8
2	1565	310.175744308033	7
2	1569	310.300879307063	8
2	1570	311.059097633199	7
2	1574	311.516161745979	8
2	1575	312.023156714593	7
2	1578	313.095512996581	6
2	1581	313.996157616344	5
2	1585	314.221375960724	6
2	1586	314.818264125813	5
2	1590	315.16761815658	6
2	1591	315.829910269719	5
2	1595	315.867278094383	6
2	1596	316.804205730059	5
2	1600	317.010846652533	6
2	1603	317.910519944192	5
2	1607	318.415499101526	6
2	1608	318.71136188597	5
2	1611	319.644697635402	4
2	1615	319.858127573197	5
2	1616	320.571975848326	4
2	1620	321.045309814743	5
2	1621	321.657262642556	4
2	1626	322.536338290447	3
2	1630	322.829243737841	4
2	1631	323.710657073991	3
2	1635	324.794496666436	4
2	1636	324.881684414265	3
2	1640	325.478742720815	4
2	1642	325.511033389976	5
2	1643	325.715092357402	4
2	1647	326.572543096638	5
2	1648	326.90744857254	4
2	1652	327.12253151501	5
2	1654	327.2941611701	6
2	1655	327.710848184736	5
2	1659	327.785205914992	6
2	1660	328.659809356058	5
2	1666	329.35814907318	6
2	1667	329.500874771798	5
2	1671	329.669472280461	6
2	1673	330.160557773425	7
2	1674	330.390443819264	6
2	1679	331.421396907201	5
2	1683	332.159040655434	6
2	1684	332.284179129513	5
2	1690	333.200599979689	6
2	1691	333.458345464772	5
2	1696	334.504148504014	4
2	1699	335.69885785232	3
2	1702	336.840756117149	2
2	1706	337.328284201848	3
2	1708	337.801326441607	4
2	1709	338.035580509404	3
2	1713	338.204088538651	4
2	1714	339.197152981596	3
2	1717	340.06017674903	2
2	1721	340.912481258115	3
2	1722	341.116344631618	2
2	1725	342.016897943305	1
2	1728	343.063665204277	0
2	1732	343.653975771701	1
2	1734	343.749681420247	2
2	1736	343.751361600203	3
2	1737	344.168792690584	2
2	1741	344.547285280022	3
2	1743	344.934682957753	4
2	1744	345.351613117909	3
2	1748	345.498406327028	4
2	1750	345.690484311841	5
2	1752	346.090050239249	6
2	1753	346.206462968202	5
2	1757	346.892656163362	6
2	1758	347.262314451547	5
2	1762	347.37263167557	6
2	1763	348.099810214774	5
2	1767	348.575134497882	6
2	1768	349.0270777797	5
2	1771	350.137298640017	4
2	1774	351.125587943256	3
2	1778	351.74384054378	4
2	1779	351.99010435712	3
2	1783	352.410958491824	4
2	1785	352.971957010481	5
2	1786	353.120666428157	4
2	1792	353.613559310718	5
2	1793	354.273937062048	4
2	1797	354.658850568676	5
2	1799	354.758286676972	6
2	1800	355.140742410686	5
2	1804	356.16850437027	6
2	1805	356.21788478984	5
2	1809	356.471263091453	6
2	1810	357.198230327912	5
2	1814	357.877248489642	6
2	1815	358.16820233582	5
2	1819	358.459403581939	6
2	1820	359.355541055337	5
2	1823	360.229623924908	4
2	1827	361.124952941402	5
2	1828	361.413777886019	4
2	1832	361.541909034107	5
2	1833	362.267953696535	4
2	1837	362.46502818321	5
2	1839	362.898552705456	6
2	1841	363.010772111838	7
2	1842	363.06983494476	6
2	1845	364.054029280847	5
2	1849	364.211818882243	6
2	1851	364.341436414742	7
2	1852	365.14788309258	6
2	1855	365.970580152949	5
2	1858	366.836802679827	4
2	1862	367.415152261778	5
2	1864	367.614618793114	6
2	1866	367.642451058986	7
2	1867	367.808945968808	6
2	1871	368.002063043336	7
2	1873	368.552284664472	8
2	1874	368.986423887094	7
2	1878	369.371590401772	8
2	1880	369.414485618142	9
2	1881	370.093666118631	8
2	1884	371.089306564877	7
2	1888	371.101786747886	8
2	1889	371.936329866169	7
2	1893	372.305760907908	8
2	1894	372.903052266376	7
2	1898	372.908425315565	8
2	1900	373.262083563034	9
2	1901	373.795137800151	8
2	1905	374.341809674456	9
2	1906	374.811448631869	8
2	1909	375.639639723734	7
2	1912	376.816878131838	6
2	1916	377.779132531757	7
2	1917	377.978067061273	6
2	1921	378.216654039696	7
2	1923	378.635638293006	8
2	1924	379.05146294857	7
2	1928	379.602902127596	8
2	1930	379.748264163098	9
2	1931	380.160659956994	8
2	1935	380.196920548813	9
2	1936	381.14310018296	8
2	1939	382.123328990178	7
2	1943	382.293357818163	8
2	1944	383.180670443984	7
2	1948	383.186226156959	8
2	1951	384.042568839217	7
2	1954	385.110752026705	6
2	1957	385.916062180201	5
2	1962	387.08893474151	4
2	1966	387.463168471358	5
2	1969	388.053185223291	4
2	1973	388.226048825847	5
2	1975	389.040105935155	6
2	1977	389.111522011264	7
2	1978	389.170664322717	6
2	1982	389.62309950934	7
2	1983	390.279894918358	6
2	1986	391.188062157357	5
2	1990	391.533705669754	6
2	1992	391.769897633869	7
2	1993	392.259109939044	6
2	1997	392.481868133511	7
2	1998	393.262888841392	6
2	2002	393.604323533515	7
2	2003	394.073997550705	6
2	2007	394.397719028479	7
2	2009	394.81450912092	8
2	2010	395.025127776587	7
2	2014	395.107362800054	8
2	2016	395.942466486309	9
2	2017	395.998188892999	8
2	2021	396.075323756982	9
2	2022	396.819715259378	8
2	2025	397.833225654126	7
2	2028	398.658225515545	6
2	2032	399.228001279454	7
2	2033	399.460756967649	6
2	2037	399.51684359584	7
2	2038	400.584093490116	6
2	2041	401.422984375771	5
2	2045	402.368981621039	6
2	2046	402.600954437595	5
2	2049	403.590084584303	4
2	2053	404.11563860046	5
2	2054	404.75764541129	4
2	2058	405.371934111012	5
2	2059	405.953961778398	4
2	2063	406.058393849719	5
2	2065	406.838915046883	6
2	2066	407.085713723175	5
2	2070	407.623845180805	6
2	2072	407.801733885326	7
2	2073	407.981650546811	6
2	2077	408.20767756396	7
2	2079	408.496008785183	8
2	2080	409.125862806908	7
2	2084	409.248895995267	8
2	2086	409.375968825969	9
2	2087	410.064171230759	8
2	2091	410.57517530083	9
2	2092	410.923376044318	8
2	2095	411.737493876614	7
2	2099	412.275750366839	8
2	2100	412.703841044721	7
2	2104	413.002929068319	8
2	2105	413.642508227718	7
2	2108	414.461477769413	6
2	2111	415.413424916347	5
2	2115	415.58942524599	6
2	2116	416.21740758779	5
2	2120	416.673684375818	6
2	2122	417.027841464937	7
2	2123	417.090036976864	6
2	2127	417.198157873211	7
2	2129	417.678669060926	8
2	2130	417.993929615398	7
2	2134	419.16643157454	8
2	2135	419.171604959541	7
2	2138	420.055058934879	6
2	2142	420.706880802819	7
2	2143	421.160962441903	6
2	2149	421.352583800303	7
2	2151	421.865736436879	8
2	2152	421.977957035195	7
2	2155	423.034845912982	6
2	2158	424.076056728292	5
2	2161	424.905860073365	4
2	2165	425.245725681855	5
2	2166	425.915451923258	4
2	2169	426.800844086859	3
2	2172	427.635343215581	2
2	2176	428.516720485155	3
2	2177	428.589332119808	2
2	2181	428.917548377733	3
2	2182	429.487042273269	2
2	2187	430.45198225413	1
2	2191	430.766198487399	2
2	2192	431.375529585746	1
2	2196	432.125972977473	2
2	2197	432.382576470696	1
2	2200	433.578618659232	0
2	2204	433.707744493583	1
2	2206	434.17076895765	2
2	2208	434.201158896846	3
2	2209	434.514002520744	2
2	2213	434.531043160176	3
2	2215	434.75333756637	4
2	2216	435.321346794408	3
2	2219	436.18550894462	2
2	2223	436.194887085573	3
2	2225	436.291922591937	4
2	2227	437.234246363519	5
2	2229	437.27675648204	6
2	2230	437.3760033989	5
2	2233	438.238678061278	4
2	2237	438.770540195423	5
2	2239	439.090670670791	6
2	2240	439.26480564714	5
2	2244	439.407606344647	6
2	2245	440.111403621049	5
2	2248	440.912797349845	4
2	2252	441.563299329965	5
2	2254	441.597571374859	6
2	2255	441.959082333338	5
2	2259	442.722123185233	6
2	2260	443.087085348335	5
2	2264	443.337724370406	6
2	2265	444.128000275851	5
2	2269	444.402648998426	6
2	2270	444.949759410009	5
2	2274	445.339697279751	6
2	2275	445.85803370994	5
2	2278	446.840972261098	4
2	2281	447.826467942507	3
2	2285	448.012985472675	4
2	2286	448.998930603047	3
2	2289	449.827914089118	2
2	2293	450.577370944035	3
2	2294	450.8100123312	2
2	2298	451.197823534408	3
2	2299	451.979871868403	2
2	2303	452.804740259475	3
2	2305	452.893442245725	4
2	2306	452.927229874735	3
2	2310	453.626818956541	4
2	2311	454.082656194424	3
2	2314	455.082916673241	2
2	2317	455.955170823881	1
2	2320	456.823357856521	0
2	2327	458.143484514784	1
2	2328	458.529477766682	0
2	2332	458.811100767462	1
2	2333	459.410384125136	0
2	2337	459.786012139312	1
2	2341	459.908609055152	2
2	2343	460.302286438176	3
2	2344	460.306481722616	2
2	2348	460.586848555175	3
2	2349	461.316549486727	2
2	2353	461.410436621364	3
2	2355	461.68879611576	4
2	2357	462.024361424144	5
2	2358	462.293473046799	4
2	2362	462.308079121767	5
2	2363	463.141022189488	4
2	2366	464.018792755124	3
2	2370	464.432875302657	4
2	2372	464.547768984678	5
2	2375	465.089904112709	4
2	2379	465.106913017276	5
2	2381	465.478945503786	6
2	2382	466.158414607928	5
2	2386	466.264038213775	6
2	2388	466.750103235808	7
2	2389	467.256360530634	6
2	2393	467.773690000112	7
2	2394	468.16481140858	6
2	2398	468.95573467654	7
2	2399	469.138645420377	6
2	2402	469.973927601022	5
2	2406	469.984309924352	6
2	2408	470.464925784712	7
2	2409	470.819457733971	6
2	2413	471.009358356816	7
2	2414	471.793776267362	6
2	2417	472.614104831	5
2	2421	473.292348280941	6
2	2422	473.527375274771	5
2	2425	474.44047048368	4
2	2429	474.701752830746	5
2	2431	474.813214290249	6
2	2433	475.039142176193	7
2	2434	475.422766411272	6
2	2437	476.314479107843	5
2	2440	477.360654189219	4
2	2444	477.450570502351	5
2	2445	478.265606196006	4
2	2448	479.445157421162	3
2	2452	479.463077322744	4
2	2456	479.967420025135	5
2	2457	480.250222676588	4
2	2461	480.620043295212	5
2	2462	481.350841014148	4
2	2465	482.259997575791	3
2	2468	483.213520494723	2
2	2472	483.553702755604	3
2	2473	484.281496248734	2
2	2476	485.218702457906	1
2	2480	485.495692566301	2
2	2482	485.595585309358	3
2	2483	486.166990603847	2
2	2486	487.36244557655	1
2	2490	487.453424260633	2
2	2492	487.454597906795	3
2	2493	488.526274111742	2
2	2499	489.313246136572	3
2	2500	489.553955127733	2
2	2503	490.402006238295	1
2	2507	490.629397167698	2
2	2509	490.819221924531	3
2	2511	491.084792286008	4
2	2512	491.304911447751	3
2	2516	492.0329684967	4
2	2517	492.267100419166	3
2	2521	492.781630548141	4
2	2522	493.094164610902	3
2	2526	493.899481120438	4
2	2527	493.965857552612	3
2	2530	494.852910123547	2
2	2534	495.404057516738	3
2	2535	495.707859989875	2
2	2538	496.788788377275	1
2	2541	497.801616326967	0
2	2545	498.163338111013	1
2	2547	498.243928988483	2
2	2548	498.965912861252	1
2	2552	499.323749680446	2
2	2553	500.141720667543	1
2	2557	500.441738968055	2
2	2559	500.686342756398	3
2	2560	501.119873364518	2
2	2564	501.166391648869	3
2	2566	501.932311618973	4
2	2567	502.214059580645	3
2	2571	502.487984735574	4
2	2573	502.752824699022	5
2	2575	502.816338340499	6
2	2577	503.007068959696	7
2	2578	503.046096271804	6
2	2582	503.132422323665	7
2	2584	503.311638684195	8
2	2586	503.44289572252	9
2	2588	503.737510600128	10
2	2589	503.864672946619	9
2	2593	503.949746570149	10
2	2595	504.648280602976	11
2	2596	505.035671755826	10
2	2600	505.302088608207	11
2	2602	505.577767191947	12
2	2603	506.133798650155	11
2	2606	506.992131547319	10
2	2610	507.407312562105	11
2	2611	507.823112575399	10
2	2615	508.499628995715	11
2	2616	508.639349560222	10
2	2619	509.60340598446	9
2	2623	510.011096625738	10
2	2625	510.351412524491	11
2	2626	510.617300057008	10
2	2630	510.668051470021	11
2	2631	511.677967220235	10
2	2635	512.612714173745	11
2	2636	512.728991339977	10
2	2639	513.594837178259	9
2	2642	514.463941693554	8
2	2647	515.641862723107	7
2	2651	515.803090641614	8
2	2653	516.125448230445	9
2	2654	516.832567039567	8
2	2658	516.871643609369	9
2	2659	517.802559028721	8
2	2662	518.694438553012	7
2	2665	519.776292364921	6
2	2669	520.111756337316	7
2	2670	520.640431777358	6
2	2674	520.681550953491	7
2	2676	520.921487376115	8
2	2678	520.983703631941	9
2	2679	521.631948518258	8
2	2683	521.802402601815	9
2	2685	521.85311291056	10
2	2686	522.804294123937	9
2	2689	523.957891693216	8
2	2693	524.232110198062	9
2	2694	524.987665650405	8
2	2698	525.146744338688	9
2	2699	526.084868876699	8
2	2703	526.387676015637	9
2	2705	526.889035718816	10
2	2706	526.949404394503	9
2	2709	527.830072239383	8
2	2713	528.153486213734	9
2	2714	528.827728390849	8
2	2717	529.849506599146	7
2	2721	530.367788013505	8
2	2723	530.49759742205	9
2	2724	530.948744987945	8
2	2728	531.565391747806	9
2	2729	531.927109734497	8
2	2733	532.425401791043	9
2	2734	532.964472486421	8
2	2737	534.109204867359	7
2	2740	535.238408850942	6
2	2744	535.451612848212	7
2	2745	536.310622964118	6
2	2748	537.390284037374	5
2	2752	537.477463929673	6
2	2754	537.594036677064	7
2	2755	538.477678597875	6
2	2759	538.794477317893	7
2	2761	539.145223369612	8
2	2762	539.448760803387	7
2	2766	539.463290621374	8
2	2767	540.446490091522	7
2	2771	540.648477511712	8
2	2773	540.760473517633	9
2	2774	541.410884029669	8
2	2777	542.563075710246	7
2	2781	542.891848669266	8
2	2783	543.054976850822	9
2	2784	543.401745990729	8
2	2790	544.351161436253	9
2	2791	544.59907099816	8
2	2795	544.629336700846	9
2	2796	545.417015326461	8
2	2799	546.602148150159	7
2	2802	547.406291961176	6
2	2805	548.291307374434	5
2	2809	548.829826430412	6
2	2810	549.398896261928	5
2	2814	549.420028712153	6
2	2815	550.284499457636	5
2	2819	550.36250052082	6
2	2820	551.308093593241	5
2	2824	551.947416899582	6
2	2825	552.16741843882	5
2	2829	552.527183607889	6
2	2831	552.611987842669	7
2	2832	552.99883403291	6
2	2835	553.862816421567	5
2	2838	555.056351153898	4
2	2842	555.497489553105	5
2	2844	555.511609641177	6
2	2846	555.900861313761	7
2	2847	556.092247624575	6
2	2850	557.12747383115	5
2	2854	558.171338112201	6
2	2855	558.244603629011	5
2	2859	558.903825685988	6
2	2860	559.225769201733	5
2	2863	560.158889025424	4
2	2866	561.12605856226	3
2	2870	561.142556489128	4
2	2871	562.153574197713	3
2	2875	562.714993115407	4
2	2877	562.766747880519	5
2	2878	563.156144521173	4
2	2882	563.222273171349	5
2	2883	564.181170081135	4
2	2886	564.997492365979	3
2	2889	566.134134974491	2
2	2892	566.970994573061	1
2	2896	567.924303440857	2
2	2897	568.005714711987	1
2	2901	568.477343053784	2
2	2903	568.540139204324	3
2	2904	569.086384101559	2
2	2907	569.952557394069	1
2	2911	570.162461348421	2
2	2913	570.239142393659	3
2	2915	570.36412109724	4
2	2916	570.823995021239	3
2	2920	570.979077070992	4
2	2922	571.348214131224	5
2	2923	571.735101216354	4
2	2927	572.620801124085	5
2	2928	572.671547726423	4
2	2932	572.774230182673	5
2	2934	573.666767841941	6
2	2935	573.763905339942	5
2	2939	574.076906781385	6
2	2940	574.86030977757	5
2	2944	575.268882218103	6
2	2945	575.84985985623	5
2	2949	576.450932475049	6
2	2950	576.705430592385	5
2	2954	577.481298057386	6
2	2955	577.719177132354	5
2	2959	578.06850790538	6
2	2961	578.358038553319	7
2	2962	578.750127194517	6
2	2966	578.796433120499	7
2	2967	579.784834871788	6
2	2971	580.241269021643	7
2	2973	580.349903152078	8
2	2975	580.434965033258	9
2	2977	580.568062354658	10
2	2978	580.735700808347	9
2	2981	581.853083578286	8
2	2984	582.887441869707	7
2	2987	583.842663464391	6
2	2991	584.038023233642	7
2	2992	584.846697895763	6
2	2996	584.967441609398	7
2	2998	585.713465852776	8
2	2999	585.881073052598	7
2	3003	586.774952868544	8
2	3004	587.054408700926	7
2	3008	587.816247984103	8
2	3009	587.874792541446	7
2	3013	588.494415142091	8
2	3014	588.825991224008	7
2	3018	589.47883055656	8
2	3019	589.839864782872	7
2	3023	590.002427541991	8
2	3025	590.424279813096	9
2	3026	590.755453299893	8
2	3029	591.558648038445	7
2	3032	592.438487833993	6
2	3036	593.124819587252	7
2	3037	593.572150238765	6
2	3040	594.647446800651	5
2	3045	595.814593087858	4
2	3049	596.397843606798	5
2	3050	596.847543469048	4
2	3054	596.872804611097	5
2	3056	596.976929879386	6
2	3058	597.094856511166	7
2	3060	597.284275611895	8
2	3062	597.864802289717	9
2	3063	597.942447000439	8
2	3067	598.790124417311	9
2	3068	598.894106100104	8
2	3071	599.961471271212	7
2	3075	600.669226048489	8
2	3076	600.784835221874	7
2	3080	601.13315940476	8
2	3082	601.308931649493	9
2	3084	601.420263278153	10
2	3085	601.613298066589	9
2	3089	601.753913142248	10
2	3091	601.998803270283	11
2	3092	602.513083449355	10
2	3096	603.377815972685	11
2	3097	603.625062178331	10
2	3101	604.077528224111	11
2	3102	604.505131941451	10
2	3105	605.561755587416	9
2	3108	606.426874562981	8
2	3111	607.540249943616	7
2	3114	608.677931647631	6
2	3118	609.056420070398	7
2	3119	609.802092613722	6
2	3122	610.937451301585	5
2	3126	611.581471467104	6
2	3127	612.036474560364	5
2	3131	612.166656265549	6
2	3133	613.011993188552	7
2	3134	613.032964382111	6
2	3138	613.259872366384	7
2	3140	613.834868304336	8
2	3142	614.041244356649	9
2	3143	614.048788371659	8
2	3147	614.089562924394	9
2	3149	614.444409993703	10
2	3150	615.115077624354	9
2	3153	616.039235116612	8
2	3157	616.48156390546	9
2	3158	617.155472353637	8
2	3162	617.370703851478	9
2	3163	618.277747815452	8
2	3167	619.223520952211	9
2	3169	619.238149438685	10
2	3170	619.372946156259	9
2	3174	619.439629994534	10
2	3176	620.20411487764	11
2	3177	620.317353269901	10
2	3181	621.062565962714	11
2	3182	621.285738208495	10
2	3185	622.180761452183	9
2	3189	622.532156506761	10
2	3190	623.285374851875	9
2	3193	624.266075606808	8
2	3197	624.636452673319	9
2	3199	624.919433139345	10
2	3200	625.393984776806	9
2	3203	626.210885556113	8
2	3208	627.30744207136	7
2	3211	628.322734891694	6
2	3215	628.541444420716	7
2	3217	628.648476653847	8
2	3218	629.27643116105	7
2	3222	629.338800599167	8
2	3223	630.185413737573	7
2	3226	631.066978775874	6
2	3230	631.384008934889	7
2	3232	631.549909711281	8
2	3233	632.007869776223	7
2	3238	633.046826981172	6
2	3241	633.979142129399	5
2	3245	634.301008921386	6
2	3246	635.170515316982	5
2	3252	635.56868252011	6
2	3253	636.027542529047	5
2	3257	636.726740755858	6
2	3258	636.960029513181	5
2	3261	637.900283506957	4
2	3265	637.904298977361	5
2	3266	639.030351387688	4
2	3270	639.269540400494	5
2	3271	640.1571752304	4
2	3275	640.276596600678	5
2	3277	640.736334379732	6
2	3278	641.063958912694	5
2	3282	641.260477650796	6
2	3283	642.008995134548	5
2	3286	642.929634151959	4
2	3289	643.832940703982	3
2	3293	644.48921325498	4
2	3294	644.774310613403	3
2	3298	645.089111422544	4
2	3300	645.143613822311	5
2	3301	645.601155903822	4
2	3305	646.137653422142	5
2	3307	646.175777445023	6
2	3308	646.640589512026	5
2	3312	646.918243467029	6
2	3315	647.484674863869	5
2	3319	648.177414443253	6
2	3321	648.304465801049	7
2	3322	648.386968915982	6
2	3326	648.661079624887	7
2	3327	649.196124410329	6
2	3330	650.385925044098	5
2	3334	650.476673396769	6
2	3337	651.54369370395	5
2	3340	652.386138747331	4
2	3343	653.35692339379	3
2	3347	653.543430095305	4
2	3348	654.435854219809	3
2	3352	654.553486022077	4
2	3354	654.666889366255	5
2	3355	655.573052149895	4
2	3359	656.251169099212	5
2	3361	656.4718008871	6
2	3362	656.485871447507	5
2	3366	656.516939497191	6
2	3368	656.887945965037	7
2	3370	657.154737690809	8
2	3371	657.536409847881	7
2	3377	657.97671605802	8
2	3378	658.668220210425	7
2	3381	659.49816112693	6
2	3385	659.991108164697	7
2	3386	660.475638886519	6
2	3389	661.382436934371	5
2	3393	662.076337775163	6
2	3395	662.136400782126	7
2	3397	662.217643958363	8
2	3398	662.567757545483	7
2	3402	663.582545495382	8
2	3403	663.594309222583	7
2	3407	664.488339261271	8
2	3408	664.610119160801	7
2	3412	664.680287611289	8
2	3413	665.657189590555	7
2	3417	666.148396445603	8
2	3418	666.754108816829	7
2	3422	666.920217923324	8
2	3424	667.081680906587	9
2	3426	667.11712196579	10
2	3428	667.305304998212	11
2	3429	667.698591096584	10
2	3432	668.523322601687	9
2	3436	668.541012251438	10
2	3437	669.5181115655	9
2	3441	669.753772196052	10
2	3442	670.586538074143	9
2	3446	671.000559063113	10
2	3449	671.54055793162	9
2	3453	671.545706863578	10
2	3454	672.5608842219	9
2	3458	673.428142604648	10
2	3460	673.527597502703	11
2	3461	673.669830140821	10
2	3465	674.661234361918	11
2	3467	674.762806820792	12
2	3468	674.80832741519	11
2	3472	675.010545134575	12
2	3474	675.526520740807	13
2	3475	675.954877333227	12
2	3479	676.401844091581	13
2	3480	676.772377125244	12
2	3483	677.866516639735	11
2	3486	678.984437116865	10
2	3490	679.630973558353	11
2	3491	679.871028491739	10
2	3495	679.92402659282	11
2	3499	680.167994794422	12
2	3501	680.365277730266	13
2	3502	680.992283618055	12
2	3505	681.946396722529	11
2	3509	682.254302157613	12
2	3510	682.833144960344	11
2	3514	683.127608449361	12
2	3516	683.440286811311	13
2	3517	683.961468236499	12
2	3522	684.845549133305	11
2	3526	685.222182863139	12
2	3527	685.887462566399	11
2	3530	686.736956144289	10
2	3534	687.076993036826	11
2	3536	687.756680531718	12
2	3537	687.850290547197	11
2	3541	688.295011052352	12
2	3542	688.81955845149	11
2	3546	689.10686862627	12
2	3548	689.44643343498	13
2	3549	689.993641241153	12
2	3553	690.219344770635	13
2	3554	690.819304702503	12
2	3558	691.219231653685	13
2	3559	691.641792440859	12
2	3563	692.150544264501	13
2	3564	692.771467044277	12
2	3567	693.969319222847	11
2	3570	694.846250043323	10
2	3573	695.92313194189	9
2	3577	696.309614330668	10
2	3578	696.828802351446	9
2	3581	697.780556933281	8
2	3584	698.768423978311	7
2	3587	699.917061176316	6
2	3591	700.008093514503	7
2	3592	700.828132205063	6
2	3595	701.848822527172	5
2	3598	702.989199088959	4
2	3602	703.39297989431	5
2	3604	703.560600341478	6
2	3606	704.109505430913	7
2	3607	704.159703078473	6
2	3611	704.172216533077	7
2	3613	704.830014732251	8
2	3614	705.329526303316	7
2	3618	705.366857303114	8
2	3621	706.249219083766	7
2	3624	707.06764490621	6
2	3628	707.35666699122	7
2	3630	707.365100296405	8
2	3632	707.607336718659	9
2	3634	707.685795920826	10
2	3635	708.05345127506	9
2	3639	708.340590202515	10
2	3640	708.885146648696	9
2	3644	709.14937157664	10
2	3646	709.731930137103	11
2	3647	709.918879901784	10
2	3650	710.946902186776	9
2	3654	711.473147660626	10
2	3655	711.936688462811	9
2	3659	712.3731070997	10
2	3660	713.090691533106	9
2	3663	713.932885126377	8
2	3667	713.970128831697	9
2	3669	714.069562423344	10
2	3671	714.841557063553	11
2	3672	715.058702789134	10
2	3676	715.181728491181	11
2	3679	716.049796698502	10
2	3683	716.208121084191	11
2	3684	716.975012928041	10
2	3688	717.465713556371	11
2	3690	717.907520161293	12
2	3691	717.946087612471	11
2	3694	718.977474540731	10
2	3698	719.384285731519	11
2	3700	719.496656042951	12
2	3701	720.116985787803	11
2	3705	721.002704076998	12
2	3706	721.25774087019	11
2	3709	722.213335386642	10
2	3714	723.324791688916	9
2	3718	723.739993188556	10
2	3719	724.31150271909	9
2	3723	724.681348118718	10
2	3725	724.950578995864	11
2	3726	725.356704434172	10
2	3729	726.245512856801	9
2	3732	727.376659706865	8
2	3736	727.674679861874	9
2	3738	727.734929497295	10
2	3739	728.425223273203	9
2	3743	728.469097760528	10
2	3746	729.617580914382	9
2	3750	729.742473755976	10
2	3752	730.398443782957	11
2	3753	730.49673674123	10
2	3757	730.899023208176	11
2	3759	731.323271631434	12
2	3760	731.684438777413	11
2	3764	732.260403496241	12
2	3765	732.604736830737	11
2	3768	733.591568996455	10
2	3772	734.291163069376	11
2	3774	734.594966212384	12
2	3775	734.739232011862	11
2	3778	735.567432692345	10
2	3782	735.959556285089	11
2	3783	736.485386315431	10
2	3786	737.460187653429	9
2	3789	738.655343770585	8
2	3793	739.366595473759	9
2	3795	739.453880105272	10
2	3797	739.572518305944	11
2	3798	739.623883339274	10
2	3802	739.710258592827	11
2	3804	740.574302117747	12
2	3805	740.823582936148	11
2	3809	740.941746648296	12
2	3811	741.804208676249	13
2	3812	741.85325661439	12
2	3815	742.77122430203	11
2	3818	743.740141902002	10
2	3822	744.009841772858	11
2	3824	744.246593021702	12
2	3826	744.723299929063	13
2	3828	744.781633547806	14
2	3829	744.934184038895	13
2	3833	745.457811571915	14
2	3835	745.511968022353	15
2	3837	745.76450858242	16
2	3839	745.978378483224	17
2	3840	746.050350286881	16
2	3843	746.936561063467	15
2	3847	747.164145291722	16
2	3849	747.312542836349	17
2	3851	747.778948691969	18
2	3852	747.975801510619	17
2	3856	748.06579874544	18
2	3858	748.19812235216	19
2	3860	748.517783246117	20
2	3861	748.935706974449	19
2	3865	749.310553350614	20
2	3867	749.645653001731	21
2	3868	750.037627815338	20
2	3873	750.918516076053	19
2	3876	751.842147820699	18
2	3880	752.685711781797	19
2	3881	753.011781380954	18
2	3884	754.117823908361	17
2	3887	755.261387973534	16
2	3891	755.866824677912	17
2	3892	756.256116369994	16
2	3896	756.50500406065	17
2	3897	757.166453835623	16
2	3901	758.065873336506	17
2	3902	758.168344067851	16
2	3905	759.179432675498	15
2	3909	759.416056798694	16
2	3911	759.935252175599	17
2	3912	760.03747619295	16
2	3915	760.984443287155	15
2	3918	761.874454811564	14
2	3924	762.292453859615	15
2	3925	762.712034394009	14
2	3929	763.103483554994	15
2	3931	763.137780498856	16
2	3933	763.441283491837	17
2	3934	763.688357078446	16
2	3938	764.286257116111	17
2	3939	764.666176223265	16
2	3942	765.829100152453	15
2	3946	766.438394466482	16
2	3947	766.848329395217	15
2	3950	767.942823987522	14
2	3954	768.066074712377	15
2	3956	768.115619557207	16
2	3957	768.922685324282	15
2	3963	769.236859831489	16
2	3965	769.251866420341	17
2	3967	769.815086057303	18
2	3968	769.948351163112	17
2	3971	770.993176425409	16
2	3975	771.508041215876	17
2	3976	772.128392404758	16
2	3980	772.262302865103	17
2	3981	772.973776226372	16
2	3985	773.164930995048	17
2	3988	774.050386511136	16
2	3992	774.256730102099	17
2	3993	775.099486744192	16
2	3997	775.65300582597	17
2	3998	776.286111958113	16
2	4001	777.191879976701	15
2	4007	777.837671327215	16
2	4008	778.064296905857	15
2	4012	778.166909306688	16
2	4014	778.976981217644	17
2	4015	779.234244223845	16
2	4018	780.211135043644	15
2	4021	781.141097151463	14
2	4025	781.179897515244	15
2	4027	781.830619992386	16
2	4029	782.11549579332	17
2	4031	782.224812826398	18
2	4032	782.22510366251	17
2	4036	782.491554402112	18
2	4038	782.580819499336	19
2	4039	783.19198092378	18
2	4045	783.923166808026	19
2	4046	784.161761476912	18
2	4050	785.157497468542	19
2	4051	785.169296797898	18
2	4055	786.191616124805	19
2	4056	786.290969218288	18
2	4060	786.424785503741	19
2	4062	787.233550574452	20
2	4063	787.273997967571	19
2	4067	787.55395440638	20
2	4069	787.959015765762	21
2	4070	788.404337405108	20
2	4074	788.800556411928	21
2	4075	789.285337934896	20
2	4079	789.939251385775	21
2	4080	790.265442647479	20
2	4083	791.161740380872	19
2	4086	792.068005812421	18
2	4089	792.887750622417	17
2	4092	793.954361654139	16
2	4096	794.192195502388	17
2	4098	794.240083056109	18
2	4100	794.83608643737	19
2	4101	794.873597173366	18
2	4105	795.42287226141	19
2	4106	796.068275947749	18
2	4109	796.904562313176	17
2	4113	797.218898792197	18
2	4115	797.413066693744	19
2	4116	797.854740601565	18
2	4120	798.696644543537	19
2	4121	798.742247098006	18
2	4125	799.394935190332	19
2	4126	799.581825647197	18
2	4129	800.389225426383	17
2	4133	801.185942278651	18
2	4134	801.244868627537	17
2	4138	801.255961627455	18
2	4139	802.36405674142	17
2	4143	802.440822878811	18
2	4145	802.852905947077	19
2	4146	803.300115934174	18
2	4150	804.147519497219	19
2	4151	804.227863186012	18
2	4155	805.031496561379	19
2	4156	805.311130142744	18
2	4159	806.23014763917	17
2	4163	806.66836128259	18
2	4164	807.15322253301	17
2	4168	807.227380046153	18
2	4169	808.337544951189	17
2	4172	809.403637555495	16
2	4176	809.768020867105	17
2	4178	809.923347709845	18
2	4180	810.220418269184	19
2	4181	810.414039777473	18
2	4185	810.695889420033	19
2	4186	811.524408297774	18
2	4189	812.340471721322	17
2	4193	812.39734132047	18
2	4194	813.488748624802	17
2	4197	814.34071314025	16
2	4200	815.488211954825	15
2	4203	816.358977597088	14
2	4206	817.265395296712	13
2	4209	818.418022158716	12
2	4213	818.88237446418	13
2	4214	819.336432422578	12
2	4217	820.230180551178	11
2	4221	821.304736439492	12
2	4222	821.415065406143	11
2	4225	822.491480964395	10
2	4230	823.474001031249	9
2	4234	823.797182967339	10
2	4235	824.360733618002	9
2	4239	824.858508715501	10
2	4241	824.958903037507	11
2	4242	825.353965334382	10
2	4245	826.397012631662	9
2	4249	826.969968641131	10
2	4251	827.190585943838	11
2	4252	827.402531850684	10
2	4256	828.205053560051	11
2	4257	828.233309201683	10
2	4261	828.292584787897	11
2	4262	829.318912591665	10
2	4265	830.153306276604	9
2	4269	830.766858418814	10
2	4270	831.093480770543	9
2	4273	832.229620960887	8
2	4277	832.546804796342	9
2	4279	832.749336946102	10
2	4280	833.14585220541	9
2	4283	834.261209346793	8
2	4287	835.124789107988	9
2	4288	835.428641807354	8
2	4291	836.254323858461	7
2	4295	836.465162807725	8
2	4297	836.765000854498	9
2	4299	837.065349078921	10
2	4300	837.348675523764	9
2	4303	838.427650816152	8
2	4306	839.534288875358	7
2	4310	840.615925715147	8
2	4311	840.623889312493	7
2	4315	841.41314677094	8
2	4316	841.430943533378	7
2	4320	842.312045276027	8
2	4321	842.363717660094	7
2	4325	842.486189616588	8
2	4326	843.416607211316	7
2	4330	844.089067417491	8
2	4332	844.369250039916	9
2	4334	844.392542508138	10
2	4335	844.558074784065	9
2	4339	845.410983464492	10
2	4341	845.495439428404	11
2	4342	845.506570984116	10
2	4346	845.902668213408	11
2	4347	846.477831531568	10
2	4351	846.698134896182	11
2	4352	847.4278106773	10
2	4355	848.622728235061	9
2	4359	849.25707929858	10
2	4360	849.655050861249	9
2	4364	849.728886504522	10
2	4366	850.090379668508	11
2	4368	850.273800748564	12
2	4369	850.476430384694	11
2	4373	850.725761547122	12
2	4374	851.620173995076	11
2	4377	852.577525574966	10
2	4381	852.721923528743	11
2	4382	853.707671320411	10
2	4386	854.255340335857	11
2	4387	854.616376152421	10
2	4390	855.486117392006	9
2	4394	855.547926137567	10
2	4396	855.680075844463	11
2	4397	856.62573105122	10
2	4401	856.721221510545	11
2	4403	857.142526640413	12
2	4406	857.63093515548	11
2	4409	858.823972985773	10
2	4412	859.875344127017	9
2	4417	861.052533750861	8
2	4421	861.438237014673	9
2	4422	862.070415791656	8
2	4426	862.085977340763	9
2	4427	863.02977355837	8
2	4431	863.446426516188	9
2	4433	863.615838008725	10
2	4434	864.212475444629	9
2	4437	865.255497040666	8
2	4440	866.342295675325	7
2	4443	867.367652389659	6
2	4447	867.553190359524	7
2	4449	867.84810625019	8
2	4450	868.492498645531	7
2	4454	868.837508678734	8
2	4455	869.484726303136	7
2	4459	869.702039476013	8
2	4460	870.327781701898	7
2	4464	870.72026720694	8
2	4466	870.964948590398	9
2	4468	871.037354773899	10
2	4469	871.204499441171	9
2	4473	871.444725901182	10
2	4474	872.105093992473	9
2	4478	872.157798805067	10
2	4479	873.196411434533	9
2	4482	874.336728859106	8
2	4485	875.181456032833	7
2	4489	875.226947766421	8
2	4491	875.556671617198	9
2	4493	875.559232370345	10
2	4494	876.360702169007	9
2	4498	876.616014485187	10
2	4499	877.4809071738	9
2	4503	878.017548748833	10
2	4505	878.279586758874	11
2	4507	878.628792105092	12
2	4508	878.641241667392	11
2	4512	879.265077010603	12
2	4514	879.385725168678	13
2	4516	879.539617843699	14
2	4517	879.809838716751	13
2	4521	880.683009560899	14
2	4523	880.845071914483	15
2	4524	880.851241677599	14
2	4527	881.732574506728	13
2	4530	882.706645473531	12
2	4534	883.415727928192	13
2	4535	883.751569537139	12
2	4538	884.658146969108	11
2	4542	885.127799988116	12
2	4543	885.815142041976	11
2	4546	886.709636312602	10
2	4550	886.855282539467	11
2	4552	887.567400233104	12
2	4553	887.656257537259	11
2	4557	888.211678079124	12
2	4558	888.602274828283	11
2	4562	888.835337190238	12
2	4563	889.57038945497	11
2	4567	890.452057920951	12
2	4568	890.586109885918	11
2	4571	891.387737897383	10
2	4574	892.410151780369	9
2	4578	892.800175932661	10
2	4579	893.558589314269	9
2	4582	894.728774375254	8
2	4585	895.702871608985	7
2	4589	895.726550751776	8
2	4590	896.534191235406	7
2	4594	897.311290428128	8
2	4595	897.636343838526	7
2	4599	897.798772036013	8
2	4601	898.640500230859	9
2	4603	898.691748850014	10
2	4604	898.807086464176	9
2	4608	899.548154248588	10
2	4609	899.693620363316	9
2	4612	900.590316142953	8
2	4616	900.600702829727	9
2	4617	901.786930406812	8
2	4621	901.925676064028	9
2	4623	902.195124090878	10
2	4624	902.968302779525	9
2	4628	903.123690709828	10
2	4630	903.376415957019	11
2	4632	903.640112180847	12
2	4633	904.075073548752	11
2	4636	904.978285356118	10
2	4642	905.70818666478	11
2	4644	905.861463013495	12
2	4645	906.09872680164	11
2	4649	906.443059223107	12
2	4650	907.252213057476	11
2	4654	907.309702272636	12
2	4655	908.355060845028	11
2	4660	909.222498803838	10
2	4664	909.799072948601	11
2	4665	910.26423077236	10
2	4669	910.861525414303	11
2	4670	911.335028243783	10
2	4673	912.326053631558	9
2	4676	913.460640973664	8
2	4679	914.6527350296	7
2	4683	915.234053264602	8
2	4684	915.561525577839	7
2	4687	916.756755683638	6
2	4691	916.823683868467	7
2	4693	916.88485473668	8
2	4694	917.690657661456	7
2	4697	918.799215126942	6
2	4701	919.522358148697	7
2	4703	919.571392635795	8
2	4705	919.626607572355	9
2	4706	919.708861666239	8
2	4709	920.566201489392	7
2	4713	921.539864113235	8
2	4714	921.687212537109	7
2	4717	922.537749065432	6
2	4723	923.490412000299	7
2	4724	923.725678068931	6
2	4727	924.827336424003	5
2	4731	925.722565087326	6
2	4733	925.935645646627	7
2	4734	925.987699704404	6
2	4737	927.000349429875	5
2	4740	928.040244492769	4
2	4744	928.248289942608	5
2	4746	928.521430222717	6
2	4748	928.635116345757	7
2	4749	928.961250330016	6
2	4753	929.099880008762	7
2	4755	929.130641000481	8
2	4756	930.008036001187	7
2	4761	930.868721500199	6
2	4764	931.909304072868	5
2	4767	932.97168802188	4
2	4771	933.269174591487	5
2	4773	933.357298507958	6
2	4774	934.10433014489	5
2	4778	934.712770884586	6
2	4779	935.015087108661	5
2	4782	936.020450170126	4
2	4785	937.204430535782	3
2	4789	937.961132337332	4
2	4790	938.230260746527	3
2	4794	938.70876858309	4
2	4796	938.956808783106	5
2	4797	939.21246939541	4
2	4800	940.035894796785	3
2	4804	940.288111686478	4
2	4806	940.549587522114	5
2	4808	940.603237325176	6
2	4809	940.92127908298	5
2	4813	940.92831826259	6
2	4815	942.007276603297	7
2	4816	942.027356787093	6
2	4820	942.078507414198	7
2	4822	942.62249136246	8
2	4823	943.133894233845	7
2	4827	943.72309551998	8
2	4829	944.164279171598	9
2	4830	944.185670364808	8
2	4834	944.324372555648	9
2	4835	945.001200728465	8
2	4839	945.404391181499	9
2	4840	945.893870267619	8
2	4846	946.741831124755	9
2	4847	946.847544495643	8
2	4850	947.91294794611	7
2	4853	948.724387110745	6
2	4857	948.751740944044	7
2	4858	949.884811032818	6
2	4862	950.115848467253	7
2	4864	950.429497584223	8
2	4867	951.070906108034	7
2	4871	951.344027411248	8
2	4873	951.585137356294	9
2	4875	952.053603803021	10
2	4876	952.157118705449	9
2	4880	952.18698964664	10
2	4881	952.95749866932	9
2	4885	953.244205144934	10
2	4887	953.659250856298	11
2	4888	954.104020281856	10
2	4892	954.456765676163	11
2	4894	954.77560233108	12
2	4896	954.940751216083	13
2	4897	955.074453055461	12
2	4901	955.520305340072	13
2	4903	955.889132590962	14
2	4904	956.081710814101	13
2	4908	956.504874016189	14
2	4910	956.582536245378	15
2	4911	957.099160779988	14
2	4914	958.085755105851	13
2	4918	958.396273194664	14
2	4922	958.668473990728	15
2	4923	959.213052202644	14
2	4926	960.230145867611	13
2	4929	961.193200188945	12
2	4932	962.089593600086	11
2	4936	962.691126437737	12
2	4937	963.235858161911	11
2	4941	963.484186442016	12
2	4943	964.128257899979	13
2	4944	964.241940275464	12
2	4950	964.869432132421	13
2	4953	965.430207826175	12
2	4957	965.776017565604	13
2	4958	966.248499665667	12
2	4961	967.153372542073	11
2	4965	967.292022125163	12
2	4966	968.240488024593	11
2	4969	969.395383619123	10
2	4972	970.563205688332	9
2	4976	970.852855672445	10
2	4978	971.073803045397	11
2	4980	971.516185130672	12
2	4981	971.645934276261	11
2	4985	972.594955949552	12
2	4986	972.629589604937	11
2	4990	973.414046488641	12
2	4991	973.825032487583	11
2	4994	974.726901282535	10
2	4998	975.25930770975	11
2	4999	975.75970020767	10
2	5003	975.765438325481	11
2	5005	976.420791629341	12
2	5006	976.594973654092	11
2	5009	977.399006108918	10
2	5015	978.303399104746	11
2	5016	978.500526616701	10
2	5019	979.612526163531	9
2	5023	980.284851911133	10
2	5024	980.633401131888	9
2	5028	981.287353236419	10
2	5029	981.597832921685	9
2	5033	981.723957183956	10
2	5034	982.566166260724	9
2	5038	983.05652506965	10
2	5040	983.231100884033	11
2	5041	983.575997467783	10
2	5045	983.63499663462	11
2	5047	984.509403535097	12
2	5048	984.726173114755	11
2	5052	985.094129673235	12
2	5053	985.771127476428	11
2	5059	986.064671403046	12
2	5060	986.865355723329	11
2	5064	987.559841586369	12
2	5065	987.910288474314	11
2	5068	988.954008239206	10
2	5072	989.383127043366	11
2	5073	989.991238307279	10
2	5076	990.883745167382	9
2	5080	990.987224388934	10
2	5082	991.112267683443	11
2	5083	992.049327779539	10
2	5087	992.928858130148	11
2	5089	993.06635794755	12
2	5090	993.182007529005	11
2	5094	993.978282103447	12
2	5095	994.003588096775	11
2	5098	994.854477447715	10
2	5102	995.367611547523	11
2	5104	995.729719542848	12
2	5105	995.802748499789	11
2	5108	996.934287799594	10
2	5112	997.429104340186	11
2	5113	997.942772549742	10
2	5117	998.26312862148	11
2	5118	999.101618121171	10
2	5122	999.293745860127	11
2	5124	999.355573681141	12
2	5125	1000.267628919685	11
2	5128	1001.116425759045	10
2	5132	1001.183767604886	11
2	5134	1002.240728883544	12
2	5135	1002.270040852835	11
2	5139	1002.596543356116	12
2	5141	1003.171848729256	13
2	5142	1003.352128832766	12
2	5146	1003.763581307857	13
2	5147	1004.326608058137	12
2	5150	1005.411428082341	11
2	5154	1005.593825299155	12
2	5156	1006.373219274669	13
2	5157	1006.60587157279	12
2	5160	1007.505372414065	11
2	5164	1007.958228759383	12
2	5165	1008.382356375249	11
2	5169	1009.259397963076	12
2	5170	1009.539034004768	11
2	5174	1009.665305888284	12
2	5176	1009.936927127629	13
2	5178	1010.175899711391	14
2	5179	1010.355393561886	13
2	5182	1011.193255589416	12
2	5186	1011.392564837259	13
2	5187	1012.372448006252	12
2	5190	1013.389227422679	11
2	5193	1014.265241255405	10
2	5196	1015.124875858313	9
2	5199	1016.109520554243	8
2	5202	1017.155039540286	7
2	5205	1018.176652901227	6
2	5209	1018.711039550238	7
2	5210	1019.175169401968	6
2	5213	1020.239292186758	5
2	5216	1021.102150493561	4
2	5219	1022.195672025884	3
2	5223	1022.468091850059	4
2	5225	1022.816615614319	5
2	5226	1023.141977694424	4
2	5230	1023.877223154299	5
2	5232	1024.250819681211	6
2	5233	1024.285190686284	5
2	5237	1024.67679115332	6
2	5239	1024.922793969923	7
2	5241	1025.243920653709	8
2	5242	1025.265216048414	7
2	5246	1025.794105052711	8
2	5248	1026.237054603064	9
2	5249	1026.435423456112	8
2	5253	1027.277680333643	9
2	5254	1027.362578554897	8
2	5257	1028.271040918658	7
2	5261	1028.408914458385	8
2	5263	1028.939723653341	9
2	5264	1029.123294793142	8
2	5267	1030.156863678319	7
2	5271	1030.223275134419	8
2	5273	1030.714923601195	9
2	5274	1031.289053374974	8
2	5277	1032.107321434354	7
2	5280	1033.271743909714	6
2	5284	1033.9852878776	7
2	5285	1034.074038831123	6
2	5288	1035.20697486473	5
2	5292	1035.227971254393	6
2	5294	1035.761711434694	7
2	5295	1036.035896761694	6
2	5299	1036.280086238322	7
2	5300	1037.10379793083	6
2	5304	1037.999847893445	7
2	5305	1038.134749386624	6
2	5309	1038.856018607305	7
2	5310	1039.087142399118	6
2	5314	1039.786119092134	7
2	5315	1040.027672743217	6
2	5319	1040.08883071776	7
2	5321	1040.477447597444	8
2	5322	1041.031218745817	7
2	5326	1041.268587916385	8
2	5327	1042.143579280448	7
2	5331	1042.510078905348	8
2	5333	1042.619065903502	9
2	5334	1043.292026193139	8
2	5338	1043.366709969878	9
2	5339	1044.284680179858	8
2	5343	1045.200723852894	9
2	5344	1045.371243662273	8
2	5348	1046.050547349647	9
2	5349	1046.337149305155	8
2	5352	1047.364447978863	7
2	5356	1047.420678280375	8
2	5358	1047.859199905765	9
2	5359	1048.31219705546	8
2	5363	1048.838230434058	9
2	5364	1049.377869919294	8
2	5368	1049.960014646976	9
2	5369	1050.348415509218	8
2	5372	1051.275465656237	7
2	5378	1052.117607574037	8
2	5379	1052.439058487096	7
2	5383	1052.456623459915	8
2	5385	1053.16854306378	9
2	5386	1053.395758404375	8
2	5390	1054.112929220112	9
2	5393	1054.55245873749	8
2	5397	1055.090126702306	9
2	5399	1055.262389317534	10
2	5400	1055.441195760553	9
2	5404	1055.674192018588	10
2	5407	1056.408991483857	9
2	5410	1057.240348069162	8
2	5414	1057.967917866642	9
2	5415	1058.329950315577	8
2	5418	1059.477908370716	7
2	5422	1059.951374024474	8
2	5424	1060.371956714471	9
2	5425	1060.614967512784	8
2	5429	1060.655396638774	9
2	5430	1061.474378241578	8
2	5433	1062.604876075292	7
2	5437	1062.92514397384	8
2	5438	1063.556830619162	7
2	5441	1064.550676885227	6
2	5445	1064.642252811553	7
2	5447	1065.082835951162	8
2	5449	1065.481027504469	9
2	5450	1065.665886832381	8
2	5454	1065.714813454832	9
2	5455	1066.659841247162	8
2	5459	1067.7218585453	9
2	5460	1067.789135357158	8
2	5464	1067.934784657426	9
2	5466	1068.290738546133	10
2	5467	1068.89545644678	9
2	5471	1068.909841973521	10
2	5475	1069.439115397528	11
2	5476	1069.898040663524	10
2	5480	1070.052023977302	11
2	5482	1070.803769739549	12
2	5484	1070.884323694488	13
2	5485	1070.916630120183	12
2	5488	1071.741145066152	11
2	5491	1072.722341635245	10
2	5494	1073.662865872941	9
2	5497	1074.791047927904	8
2	5500	1075.785517558157	7
2	5504	1075.918960716409	8
2	5506	1076.26090325478	9
2	5508	1076.422448624929	10
2	5510	1076.497068758441	11
2	5511	1076.761953508742	10
2	5514	1077.947554626763	9
2	5518	1078.076090893582	10
2	5519	1079.06189176606	9
2	5524	1079.973665538691	8
2	5528	1080.024457654669	9
2	5530	1080.605743971457	10
2	5532	1080.608708104702	11
2	5534	1080.646011898166	12
2	5536	1080.710062970991	13
2	5537	1081.046335799135	12
2	5540	1082.156431313771	11
2	5543	1083.199674330353	10
2	5547	1083.653435918424	11
2	5549	1083.955853796767	12
2	5550	1084.337987983952	11
2	5553	1085.527122710998	10
2	5557	1086.063287383836	11
2	5558	1086.380184366627	10
2	5561	1087.476391088477	9
2	5565	1087.945959475676	10
2	5567	1088.136174449085	11
2	5569	1088.210748670082	12
2	5571	1088.212352343732	13
2	5573	1088.26305279294	14
2	5574	1088.622788711338	13
2	5580	1088.852306142152	14
2	5581	1089.685795551519	13
2	5585	1089.690369708306	14
2	5588	1090.678335827849	13
2	5592	1091.490572012458	14
2	5593	1091.669280073214	13
2	5597	1091.819931227738	14
2	5599	1092.465012719074	15
2	5600	1092.53427452797	14
2	5604	1092.897721484951	15
2	5606	1093.103247217565	16
2	5607	1093.351779135484	15
2	5610	1094.291622169576	14
2	5614	1094.730700319322	15
2	5616	1095.195403213919	16
2	5617	1095.467612686641	15
2	5621	1095.690692219959	16
2	5622	1096.313140508327	15
2	5626	1097.336741424917	16
2	5627	1097.40859690316	15
2	5631	1097.67912470763	16
2	5632	1098.523852098435	15
2	5636	1098.796968036608	16
2	5638	1099.098927736806	17
2	5639	1099.480965352412	16
2	5642	1100.63088522505	15
2	5646	1100.757932654906	16
2	5650	1101.602715809114	17
2	5651	1101.758565146457	16
2	5655	1102.47791629926	17
2	5656	1102.911778291575	16
2	5660	1103.424590927938	17
2	5661	1103.823338104579	16
2	5665	1104.464390212487	17
2	5666	1104.971112546492	16
2	5670	1105.018582328184	17
2	5671	1105.861635009739	16
2	5674	1106.98098712068	15
2	5678	1107.294366248566	16
2	5680	1107.393310853454	17
2	5681	1107.920532847177	16
2	5684	1109.113682822864	15
2	5688	1109.421200693073	16
2	5689	1110.168494144249	15
2	5693	1110.311315966981	16
2	5695	1110.518697526763	17
2	5696	1111.328829810377	16
2	5699	1112.424867065698	15
2	5703	1112.59843082292	16
2	5705	1112.727317385833	17
2	5706	1113.347739567496	16
2	5710	1114.313625039173	17
2	5711	1114.332924860325	16
2	5714	1115.150812540558	15
2	5718	1115.236684053545	16
2	5720	1115.561775425821	17
2	5723	1116.160956965648	16
2	5727	1116.399426028946	17
2	5728	1117.282560022809	16
2	5731	1118.164072838594	15
2	5734	1119.306616325938	14
2	5738	1119.63076851107	15
2	5739	1120.461674691626	14
2	5743	1120.503526710593	15
2	5745	1121.467602584045	16
2	5746	1121.614437932969	15
2	5750	1122.400694055541	16
2	5751	1122.7383775316	15
2	5754	1123.628703420498	14
2	5758	1124.247830845712	15
2	5759	1124.782704939675	14
2	5763	1124.82868179529	15
2	5765	1125.865607954899	16
2	5766	1125.924747128766	15
2	5770	1126.453272243633	16
2	5771	1126.874100110102	15
2	5775	1126.999431976482	16
2	5776	1127.979123769495	15
2	5780	1128.803163228076	16
2	5781	1129.109158240146	15
2	5785	1129.311421221317	16
2	5786	1130.043722296673	15
2	5790	1130.547848105401	16
2	5791	1131.089042658153	15
2	5795	1131.493307480192	16
2	5796	1132.181646944749	15
2	5799	1133.131938221565	14
2	5803	1133.24464558662	15
2	5805	1133.372572462388	16
2	5806	1134.017869566734	15
2	5809	1135.002789616565	14
2	5812	1136.025569026525	13
2	5815	1137.160708360913	12
2	5818	1137.996546641066	11
2	5821	1139.140323559734	10
2	5825	1140.016926247403	11
2	5827	1140.098750896321	12
2	5828	1140.326970830168	11
2	5832	1140.855316462689	12
2	5834	1140.871853150071	13
2	5835	1141.469214814882	12
2	5839	1142.000177758745	13
2	5841	1142.319143020172	14
2	5843	1142.566065853929	15
2	5844	1142.583231333717	14
2	5848	1142.796001656153	15
2	5849	1143.394480745103	14
2	5853	1143.421746473988	15
2	5855	1143.841348694236	16
2	5856	1144.222198251523	15
2	5860	1144.890861499172	16
2	5861	1145.363044013157	15
2	5865	1145.720138387956	16
2	5867	1146.183530958242	17
2	5868	1146.27283459099	16
2	5872	1146.988409244693	17
2	5873	1147.243624294996	16
2	5877	1147.25228817865	17
2	5879	1147.494084492707	18
2	5880	1148.04848843988	17
2	5884	1148.655664836316	18
2	5885	1149.089237016048	17
2	5888	1150.080336721129	16
2	5892	1150.391073966329	17
2	5893	1150.927606012001	16
2	5897	1151.588823663035	17
2	5898	1152.0103083059	16
2	5902	1152.068547338768	17
2	5904	1152.512025721316	18
2	5906	1152.63557661181	19
2	5907	1152.985198299102	18
2	5911	1153.61900617174	19
2	5912	1154.029226557426	18
2	5915	1154.921978479419	17
2	5918	1155.798224446625	16
2	5922	1156.263839954231	17
2	5924	1156.307716928393	18
2	5926	1156.551131523688	19
2	5927	1156.621249824185	18
2	5931	1156.629420636963	19
2	5932	1157.603191804681	18
2	5935	1158.473896107618	17
2	5939	1158.824499981802	18
2	5941	1158.852011433746	19
2	5942	1159.43085483376	18
2	5946	1159.518949552975	19
2	5948	1160.191927363409	20
2	5949	1160.609091552795	19
2	5952	1161.445798370411	18
2	5956	1161.640148094252	19
2	5958	1161.92832826519	20
2	5960	1162.26076627183	21
2	5961	1162.390305169468	20
2	5964	1163.281831747369	19
2	5968	1164.263896924313	20
2	5969	1164.36408903774	19
2	5973	1164.675829635957	20
2	5975	1165.264117343236	21
2	5976	1165.489778240008	20
2	5981	1166.686838712619	19
2	5985	1167.680954434314	20
2	5986	1167.755356695113	19
2	5990	1168.460432291156	20
2	5991	1168.743570768443	19
2	5995	1169.296009254325	20
2	5997	1169.453285562674	21
2	5998	1169.567624379025	20
2	6003	1170.48385119157	19
2	6007	1170.820153323733	20
2	6008	1171.466368110088	19
2	6012	1171.595136550377	20
2	6013	1172.583590946143	19
2	6016	1173.484379992896	18
2	6022	1174.163890531124	19
2	6023	1174.332187549473	18
2	6026	1175.35614205923	17
2	6030	1175.585265568313	18
2	6032	1175.697575685239	19
2	6034	1175.855141166048	20
2	6036	1175.987259009067	21
2	6037	1176.325440342148	20
2	6040	1177.27618865667	19
2	6044	1177.478734486369	20
2	6045	1178.466097179596	19
2	6049	1178.841330371572	20
2	6050	1179.348637806886	19
2	6053	1180.522208136116	18
2	6056	1181.641184474883	17
2	6059	1182.612828801089	16
2	6062	1183.457499380765	15
2	6066	1183.905408673708	16
2	6068	1184.107676992119	17
2	6069	1184.303368894739	16
2	6073	1184.364757331809	17
2	6075	1184.414809967697	18
2	6077	1185.171657481271	19
2	6078	1185.171948868671	18
2	6081	1185.996549694316	17
2	6084	1186.895776531735	16
2	6087	1188.022955766862	15
2	6091	1188.125742128601	16
2	6093	1188.489599066824	17
2	6094	1188.865766121616	16
2	6097	1189.981597334129	15
2	6101	1190.75486565825	16
2	6102	1190.895490542316	15
2	6106	1191.369324810628	16
2	6107	1191.85963868525	15
2	6110	1192.709693646879	14
2	6113	1193.623499722389	13
2	6117	1194.238626743737	14
2	6118	1194.483777714038	13
2	6122	1194.925945882132	14
2	6124	1195.001174826539	15
2	6126	1195.058831972041	16
2	6128	1195.098448335043	17
2	6130	1195.294759085768	18
2	6132	1195.35345384639	19
2	6134	1195.395874565151	20
2	6136	1195.436206936586	21
2	6138	1195.551996265359	22
2	6139	1195.627734921949	21
2	6144	1196.81960539425	20
2	6148	1197.497153048522	21
2	6149	1197.990603205918	20
2	6152	1198.963356710116	19
2	6155	1199.863589019778	18
2	6158	1200.806034865401	17
2	6162	1200.873168718792	18
2	6163	1201.629321796711	17
2	6167	1201.924139374735	18
2	6169	1202.047142676141	19
2	6171	1202.336740449958	20
2	6172	1202.651743464529	19
2	6176	1203.05015109947	20
2	6178	1203.110622795873	21
2	6179	1203.633657678574	20
2	6183	1204.368008519546	21
2	6185	1204.67591825133	22
2	6186	1204.784616415001	21
2	6189	1205.874064525947	20
2	6192	1206.838161182109	19
2	6196	1207.222886899406	20
2	6197	1207.87249063196	19
2	6201	1207.872559107711	20
2	6205	1208.49660498008	21
2	6206	1208.744783443663	20
2	6210	1209.020872004294	21
2	6212	1209.31284920243	22
2	6214	1209.415185293105	23
2	6215	1209.563779193893	22
2	6219	1210.434872504001	23
2	6220	1210.479889134582	22
2	6223	1211.632515847575	21
2	6227	1212.69142772998	22
2	6228	1212.800315888118	21
2	6232	1212.837345555303	22
2	6234	1213.584772869511	23
2	6235	1213.670128912929	22
2	6239	1214.470022414141	23
2	6240	1214.79313265866	22
2	6244	1214.820956046081	23
2	6246	1215.511111696424	24
2	6247	1215.651380853898	23
2	6251	1216.037965720302	24
2	6252	1216.623498361728	23
2	6256	1217.087167187619	24
2	6258	1217.335209148945	25
2	6259	1217.77383171784	24
2	6263	1218.348780499238	25
2	6265	1218.520544104122	26
2	6266	1218.862281771267	25
2	6270	1219.200522365417	26
2	6271	1219.670370279702	25
2	6276	1220.827449645086	24
2	6280	1221.661537680996	25
2	6281	1221.958361326421	24
2	6284	1222.966478247458	23
2	6287	1224.047456248274	22
2	6291	1224.24139632587	23
2	6292	1224.864926405141	22
2	6295	1225.980416404812	21
2	6300	1226.907188248339	20
2	6303	1227.9033069318	19
2	6307	1228.074508388193	20
2	6309	1228.309359403742	21
2	6310	1228.913790965809	20
2	6314	1229.124095363829	21
2	6316	1229.73841035655	22
2	6317	1230.015587758908	21
2	6321	1230.892221910267	22
2	6322	1231.038276459632	21
2	6326	1231.53879412157	22
2	6328	1231.548069216304	23
2	6330	1231.884854494056	24
2	6331	1232.00487150157	23
2	6335	1232.497573821603	24
2	6336	1232.840483357926	23
2	6339	1233.695862497185	22
2	6343	1234.155573731174	23
2	6344	1234.571780725923	22
2	6348	1234.60135999117	23
2	6350	1234.632288330438	24
2	6351	1235.658701753319	23
2	6355	1235.935480412384	24
2	6356	1236.707705404498	23
2	6360	1236.776529603137	24
2	6362	1237.337841898511	25
2	6363	1237.698448257782	24
2	6366	1238.663738503196	23
2	6370	1238.875334678925	24
2	6372	1239.150932098816	25
2	6373	1239.745217067544	24
2	6377	1240.367468705267	25
2	6379	1240.532605658892	26
2	6381	1240.576494288378	27
2	6383	1240.843311035852	28
2	6384	1240.846023115032	27
2	6388	1240.969333937672	28
2	6389	1241.750970498361	27
2	6392	1242.922073657606	26
2	6395	1243.745296563283	25
2	6403	1244.762563970627	26
2	6404	1244.836283566133	25
2	6408	1244.856589877459	26
2	6410	1245.050102705614	27
2	6411	1245.943554669787	26
2	6415	1245.961716419201	27
2	6416	1246.924541265313	26
2	6420	1246.998050513494	27
2	6421	1248.078247184288	26
2	6424	1249.254681771975	25
2	6427	1250.265004567504	24
2	6430	1251.203219999075	23
2	6434	1251.998337945415	24
2	6435	1252.323466412425	23
2	6440	1253.235678468347	22
2	6443	1254.319110227917	21
2	6447	1254.885634883216	22
2	6449	1255.121713326478	23
2	6450	1255.384162790124	22
2	6453	1256.366507729218	21
2	6457	1256.850248820152	22
2	6459	1257.016647253764	23
2	6460	1257.48100061927	22
2	6463	1258.444482060224	21
2	6467	1258.843052885409	22
2	6468	1259.492678526025	21
2	6472	1259.634088910776	22
2	6474	1260.003575428829	23
2	6475	1260.55670829162	22
2	6479	1261.174943364365	23
2	6480	1261.56078792315	22
2	6485	1262.451424252875	21
2	6488	1263.370204860326	20
2	6492	1264.295711703153	21
2	6493	1264.555974801239	20
2	6496	1265.627452443615	19
2	6500	1265.70896263929	20
2	6501	1266.696593013015	19
2	6504	1267.540859844517	18
2	6507	1268.58380894538	17
2	6510	1269.781422164365	16
2	6514	1270.362953339615	17
2	6516	1270.553896905824	18
2	6517	1270.815582829881	17
2	6520	1271.733320042751	16
2	6524	1272.013790316298	17
2	6526	1272.194356671205	18
2	6527	1272.907601400911	17
2	6531	1272.997563152573	18
2	6533	1273.118977458865	19
2	6534	1273.734304395299	18
2	6538	1274.23056345991	19
2	6540	1274.762903258659	20
2	6541	1274.798615719825	19
2	6545	1275.237882254718	20
2	6546	1275.697620628569	19
2	6550	1276.767923578128	20
2	6551	1276.855831270739	19
2	6555	1277.648784674363	20
2	6556	1277.811785611584	19
2	6560	1278.776033990322	20
2	6561	1278.845870844442	19
2	6565	1279.710939494126	20
2	6566	1279.817856861353	19
2	6570	1279.888679605796	20
2	6572	1280.322227455544	21
2	6574	1280.377768958134	22
2	6575	1280.79753272783	21
2	6579	1281.219203013314	22
2	6581	1281.325136262672	23
2	6582	1281.851544192415	22
2	6585	1282.908458591327	21
2	6589	1283.638531267927	22
2	6591	1283.937488516352	23
2	6592	1283.954447419271	22
2	6596	1284.091250090503	23
2	6598	1284.522555113137	24
2	6600	1284.691102320372	25
2	6602	1285.06711336638	26
2	6603	1285.093712453246	25
2	6607	1285.756843371895	26
2	6608	1285.993960688151	25
2	6611	1287.045759926252	24
2	6615	1287.817805016487	25
2	6616	1288.067675867751	24
2	6620	1288.265782541105	25
2	6622	1288.517400257097	26
2	6623	1289.18706130635	25
2	6626	1290.068193200491	24
2	6630	1290.557997551155	25
2	6632	1290.822216958473	26
2	6633	1290.959459954202	25
2	6637	1291.422568708856	26
2	6638	1292.138920207955	25
2	6642	1292.873196003046	26
2	6643	1293.152467370201	25
2	6647	1293.244908528414	26
2	6649	1293.357425336295	27
2	6650	1294.057203694321	26
2	6653	1295.191488987747	25
2	6656	1296.219443047307	24
2	6660	1296.769475731207	25
2	6661	1297.352250230666	24
2	6664	1298.507898167688	23
2	6667	1299.344238132778	22
2	6671	1299.843377931013	23
2	6672	1300.239811820983	22
2	6676	1300.421793558695	23
2	6678	1300.737008028419	24
2	6679	1301.337787546757	23
2	6684	1302.174372833948	22
2	6687	1303.16885867834	21
2	6690	1304.362220289352	20
2	6693	1305.3548091471	19
2	6696	1306.430579664818	18
2	6700	1306.823794670743	19
2	6702	1307.332695031356	20
2	6703	1307.575054058879	19
2	6707	1308.451076801769	20
2	6708	1308.473556993324	19
2	6712	1308.648282997269	20
2	6714	1308.662587420494	21
2	6716	1308.998223705072	22
2	6717	1309.55711525239	21
2	6720	1310.451108517106	20
2	6724	1310.746316857435	21
2	6725	1311.413781681451	20
2	6729	1311.420913511482	21
2	6731	1311.564075928509	22
2	6733	1312.014854533013	23
2	6734	1312.464249821733	22
2	6737	1313.291067348867	21
2	6741	1314.13049336895	22
2	6742	1314.262872105073	21
2	6746	1314.567735969638	22
2	6747	1315.07953219356	21
2	6751	1315.690723731296	22
2	6753	1315.746750140697	23
2	6754	1316.174605909437	22
2	6758	1317.064001763223	23
2	6759	1317.067648866568	22
2	6762	1317.966273084916	21
2	6766	1318.124536429822	22
2	6768	1318.489165342738	23
2	6770	1318.802504140392	24
2	6772	1318.914445722766	25
2	6773	1318.94474698117	24
2	6777	1319.518058152778	25
2	6778	1319.999643127508	24
2	6781	1320.974967332445	23
2	6784	1321.789735344779	22
2	6788	1322.037389348895	23
2	6790	1322.074448750313	24
2	6792	1322.335538141811	25
2	6793	1322.805167810694	24
2	6797	1323.003940256888	25
2	6799	1323.504196472467	26
2	6800	1323.648206116148	25
2	6804	1324.006851269529	26
2	6806	1324.205090031959	27
2	6807	1324.497897738387	26
2	6811	1325.355886975428	27
2	6812	1325.536668351275	26
2	6816	1325.666989197052	27
2	6818	1326.303488898373	28
2	6819	1326.494288860989	27
2	6823	1326.618522125165	28
2	6825	1327.075304822657	29
2	6826	1327.365332025645	28
2	6829	1328.352025356313	27
2	6833	1328.907041669513	28
2	6835	1328.927432295487	29
2	6836	1329.529435140623	28
2	6839	1330.63370662749	27
2	6842	1331.513096800243	26
2	6846	1332.002823806233	27
2	6847	1332.467028565501	26
2	6850	1333.608038115577	25
2	6853	1334.692378841416	24
2	6857	1335.054519278675	25
2	6859	1335.458219831312	26
2	6860	1335.875309591723	25
2	6864	1335.961125824028	26
2	6866	1336.270323272274	27
2	6868	1336.457364245005	28
2	6869	1336.797183863894	27
2	6872	1337.61340992747	26
2	6876	1337.937174880987	27
2	6877	1338.473419803177	26
2	6880	1339.642625107412	25
2	6884	1339.88237685195	26
2	6886	1340.121312188777	27
2	6887	1340.701116762106	26
2	6891	1341.439174444489	27
2	6892	1341.541365899128	26
2	6896	1342.347087230071	27
2	6897	1342.626334239711	26
2	6901	1342.647061585121	27
2	6902	1343.802500994206	26
2	6905	1344.773555784934	25
2	6909	1345.150898694856	26
2	6910	1345.593322227598	25
2	6914	1345.80100297216	26
2	6915	1346.505175967217	25
2	6918	1347.581718323548	24
2	6921	1348.418337942269	23
2	6924	1349.268317023088	22
2	6928	1349.371497334837	23
2	6929	1350.430076394119	22
2	6935	1351.196789199598	23
2	6936	1351.498565467895	22
2	6939	1352.469386360032	21
2	6943	1352.886435075409	22
2	6947	1353.196450852414	23
2	6948	1353.512844701839	22
2	6952	1353.675125310996	23
2	6954	1354.37993104952	24
2	6955	1354.436801959557	23
2	6959	1355.162713615439	24
2	6960	1355.498362560553	23
2	6963	1356.449408756179	22
2	6967	1356.614655393111	23
2	6968	1357.562676472106	22
2	6972	1358.08647316816	23
2	6973	1358.55263376765	22
2	6977	1358.726478022957	23
2	6979	1359.377867511398	24
2	6980	1359.435944914613	23
2	6984	1359.543903899839	24
2	6985	1360.32954355672	23
2	6989	1360.625416064475	24
2	6990	1361.505030496027	23
2	6994	1361.844963886361	24
2	6996	1361.881524459264	25
2	6997	1362.684278563484	24
2	7001	1363.103279242375	25
2	7002	1363.80071329398	24
2	7006	1364.054063888087	25
2	7008	1364.087972930145	26
2	7009	1364.965156020391	25
2	7013	1365.288200186581	26
2	7015	1365.401836464554	27
2	7016	1366.10234451292	26
2	7020	1366.460286285171	27
2	7022	1366.625741583327	28
2	7024	1366.925714419958	29
2	7025	1367.028671405724	28
2	7029	1367.750933504314	29
2	7030	1368.053423551916	28
2	7034	1368.399618379943	29
2	7035	1369.17015695542	28
2	7038	1370.105180956776	27
2	7042	1370.984699737305	28
2	7043	1371.258686897046	27
2	7046	1372.28008866541	26
2	7050	1372.480463699095	27
2	7052	1372.602308930117	28
2	7054	1372.901389037782	29
2	7055	1373.429011421911	28
2	7058	1374.503708379604	27
2	7062	1374.544216306486	28
2	7064	1374.92332594017	29
2	7066	1375.435859059323	30
2	7067	1375.533102988061	29
2	7071	1376.128748326156	30
2	7072	1376.424235418234	29
2	7075	1377.266311577968	28
2	7080	1378.317772037238	27
2	7083	1379.462495010514	26
2	7086	1380.312933541164	25
2	7089	1381.149535159283	24
2	7093	1381.219292740549	25
2	7094	1382.015970995166	24
2	7098	1382.64815744358	25
2	7100	1382.71793952813	26
2	7102	1382.884650740173	27
2	7103	1383.042050770745	26
2	7107	1383.359427133293	27
2	7109	1384.11893164602	28
2	7110	1384.139988096692	27
2	7113	1385.151102165953	26
2	7117	1385.392212539318	27
2	7119	1385.664522409811	28
2	7121	1385.799097403601	29
2	7123	1386.070693212427	30
2	7124	1386.160700593964	29
2	7128	1386.206685362397	30
2	7129	1387.066096700617	29
2	7132	1388.243895309587	28
2	7136	1388.462463501305	29
2	7138	1388.513706516125	30
2	7140	1388.919109286353	31
2	7141	1389.307099929341	30
2	7144	1390.320473249518	29
2	7148	1390.677328755502	30
2	7149	1391.449437777959	29
2	7152	1392.272256942634	28
2	7156	1392.646675471826	29
2	7157	1393.314292572327	28
2	7161	1393.727940830275	29
2	7164	1394.360494788997	28
2	7168	1394.971392024324	29
2	7170	1395.258863323128	30
2	7171	1395.4864649955	29
2	7175	1395.718208599233	30
2	7177	1396.020070173949	31
2	7179	1396.089406428869	32
2	7180	1396.297172455099	31
2	7184	1397.447799943487	32
2	7185	1397.485690967814	31
2	7189	1398.130253941297	32
2	7190	1398.424499388114	31
2	7193	1399.323281777632	30
2	7197	1399.338702668956	31
2	7199	1399.569958812967	32
2	7201	1400.060324677703	33
2	7202	1400.125214759335	32
2	7206	1400.150623250836	33
2	7208	1400.852764741706	34
2	7209	1401.049882830195	33
2	7213	1401.415219173204	34
2	7214	1401.961960002202	33
2	7218	1402.221235111157	34
2	7219	1402.961987248975	33
2	7222	1404.042381177358	32
2	7226	1404.143779149804	33
2	7228	1404.890641080348	34
2	7229	1405.02538853798	33
2	7233	1406.043981461844	34
2	7234	1406.12071937656	33
2	7238	1406.78002808377	34
2	7240	1407.069682462554	35
2	7241	1407.191762309875	34
2	7247	1407.796052751026	35
2	7248	1407.992881883941	34
2	7252	1408.178217975888	35
2	7253	1408.953508993126	34
2	7257	1409.817114008906	35
2	7258	1409.981937010753	34
2	7261	1410.886405387594	33
2	7265	1411.646467279303	34
2	7266	1411.949338271542	33
2	7270	1412.643314061607	34
2	7271	1412.868027662373	33
2	7275	1413.027398147622	34
2	7276	1413.85139874637	33
2	7280	1414.150715196114	34
2	7282	1414.470048359169	35
2	7283	1414.951695225461	34
2	7287	1415.486992397861	35
2	7288	1416.146159410084	34
2	7292	1416.619896006725	35
2	7293	1417.307686367331	34
2	7296	1418.112020849416	33
2	7300	1418.245609086252	34
2	7301	1418.927634365836	33
2	7305	1419.116845852366	34
2	7306	1419.89953950716	33
2	7309	1420.917164323645	32
2	7313	1421.4478496314	33
2	7315	1421.477652963936	34
2	7316	1421.885058191119	33
2	7319	1422.843410410153	32
2	7323	1422.913487811235	33
2	7325	1423.226090220174	34
2	7326	1423.960931527036	33
2	7330	1425.115918916421	34
2	7331	1425.148529270085	33
2	7335	1425.337322682343	34
2	7337	1425.437456696095	35
2	7338	1426.017649807109	34
2	7342	1426.066732626466	35
2	7344	1426.162039051584	36
2	7345	1427.012668305895	35
2	7349	1427.477825872937	36
2	7350	1428.090349302514	35
2	7353	1428.902155164516	34
2	7357	1430.010698632071	35
2	7358	1430.057451174109	34
2	7362	1430.948449760057	35
2	7363	1430.99611288959	34
2	7367	1431.080419278752	35
2	7368	1431.989698350782	34
2	7372	1432.982674731884	35
2	7373	1433.012542943543	34
2	7377	1433.340048182671	35
2	7378	1433.845685628968	34
2	7381	1434.657121465987	33
2	7385	1434.973725599471	34
2	7387	1435.555708488535	35
2	7388	1435.829493336918	34
2	7392	1436.142104508745	35
2	7393	1436.916511593552	34
2	7397	1436.939457331635	35
2	7399	1437.163003154863	36
2	7401	1437.83183304911	37
2	7402	1437.883790712038	36
2	7406	1437.917948890171	37
2	7409	1438.791625567784	36
2	7413	1439.481526773169	37
2	7414	1439.969304908791	36
2	7419	1440.852243145534	35
2	7422	1442.001457297036	34
2	7425	1442.864229647049	33
2	7429	1443.47498736498	34
2	7430	1443.80785881493	33
2	7434	1444.448541136932	34
2	7435	1444.611802966499	33
2	7439	1445.035512660143	34
2	7440	1445.513129353781	33
2	7444	1445.696611165849	34
2	7445	1446.639381232277	33
2	7448	1447.559461441242	32
2	7451	1448.563063835145	31
2	7455	1449.239001846333	32
2	7456	1449.542745250442	31
2	7459	1450.54758352719	30
2	7462	1451.59870730981	29
2	7466	1451.665608358814	30
2	7468	1452.224676912016	31
2	7470	1452.686562041341	32
2	7471	1452.761452331	31
2	7474	1453.617114793674	30
2	7477	1454.674130568725	29
2	7481	1454.911302384068	30
2	7483	1455.042140272511	31
2	7485	1455.232720679163	32
2	7486	1455.669315038414	31
2	7490	1456.440216632676	32
2	7492	1456.504574113395	33
2	7494	1456.545692332533	34
2	7495	1456.772548239378	33
2	7498	1457.764867032299	32
2	7502	1458.164140637595	33
2	7503	1458.587673032636	32
2	7508	1459.600880441329	31
2	7512	1459.941497868824	32
2	7513	1460.799706682822	31
2	7517	1461.141178556844	32
2	7519	1461.180496627021	33
2	7520	1461.627447832635	32
2	7523	1462.674992599039	31
2	7527	1463.005176265183	32
2	7529	1463.357537967492	33
2	7531	1463.565468454498	34
2	7532	1463.798468756935	33
2	7536	1463.976852807593	34
2	7537	1464.84190602878	33
2	7541	1464.866626957929	34
2	7542	1465.690562773756	33
2	7546	1465.883613741104	34
2	7548	1466.230935277342	35
2	7549	1466.497386927418	34
2	7553	1466.588218698441	35
2	7555	1466.725299165389	36
2	7556	1467.517731492295	35
2	7559	1468.593899457417	34
2	7563	1468.935024818349	35
2	7564	1469.759997320249	34
2	7568	1469.918693329143	35
2	7570	1469.998876542421	36
2	7571	1470.622328857779	35
2	7575	1471.108459062513	36
2	7576	1471.818831069935	35
2	7579	1472.696929441653	34
2	7583	1473.30746988611	35
2	7585	1473.668615022178	36
2	7586	1473.718392226547	35
2	7590	1473.893113001728	36
2	7592	1474.222941304407	37
2	7593	1474.841334237885	36
2	7597	1474.855632123292	37
2	7598	1475.697924973611	36
2	7602	1476.113110585656	37
2	7603	1476.528768959437	36
2	7607	1476.75660960819	37
2	7608	1477.592886380833	36
2	7611	1478.617750742268	35
2	7615	1479.095110493098	36
2	7617	1479.384765854737	37
2	7618	1479.518952626623	36
2	7622	1479.708030249628	37
2	7624	1480.253416610192	38
2	7625	1480.599823499918	37
2	7629	1480.855817272536	38
2	7630	1481.536678374633	37
2	7633	1482.380721455607	36
2	7637	1482.896452911563	37
2	7638	1483.477299664523	36
2	7641	1484.560239777695	35
2	7644	1485.432467077002	34
2	7647	1486.575825078487	33
2	7650	1487.624614129476	32
2	7654	1487.839944408199	33
2	7656	1488.358319364314	34
2	7657	1488.557086411286	33
2	7661	1489.277499418849	34
2	7662	1489.41187473394	33
2	7665	1490.423610543534	32
2	7669	1490.678046044731	33
2	7671	1490.863879212837	34
2	7673	1490.955404706587	35
2	7674	1491.280507476423	34
[...]
6	132897	25581.048864665719	2929.8278714673
6	132927	25587.162701158968	885.54815476481
6	132935	25588.906750951798	5091.1820313127
6	133009	25605.593387147128	887.04898945698
6	133068	25617.095510113793	9839.3345858299
6	133192	25639.503984913502	892.24373009663
6	133230	25648.010050889377	891.39722883819
6	133295	25661.410790542132	2944.2539379872
6	133326	25668.538619432776	899.21306459223
6	133381	25679.242612220525	3721.7049826387
6	133435	25689.531191651235	2559.4661583899
6	133476	25696.59522824687	2956.4434930619
6	133501	25701.817637559297	6105.6718746112
6	133510	25704.479035655121	7814.7746040049
6	133591	25719.102546753447	8583.0232919395
6	133744	25748.603553048884	1331.8376702581
6	133764	25752.777292896983	8606.3816092127
6	133813	25761.145058476542	2572.4028848759
6	133862	25770.027522170905	1750.7270886154
6	134244	25840.977514541603	3373.4803686958
6	134308	25850.774625985035	3779.3422841158
6	134316	25852.635946590537	1758.0398157386
6	134353	25861.6691573684	4121.387226826
6	134384	25866.697227439274	2163.5931106937
6	134449	25877.450414734788	8147.0494641176
6	134550	25899.294740328367	6771.6147012251
6	134559	25900.414595011889	4508.7294223064
6	134579	25903.939136803325	11044.524905077
6	134648	25916.94196958997	4510.238575094
6	134653	25917.942675135924	920.5419337019
6	134681	25923.979301546221	463.59021494939
6	134711	25929.850229430838	11843.86135183
6	134736	25934.669316805421	2173.2489223574
6	134847	25958.314656965701	466.63058758862
6	134854	25959.244355804274	10256.122331383
6	134930	25973.401947073158	9138.7423344986
6	134935	25974.596142380018	922.93006264251
6	135008	25989.767216809172	2191.3280101768
6	135014	25991.748002986874	4151.7990345491
6	135058	25999.984787790648	928.27167631803
6	135108	26008.263523794416	6198.8211189543
6	135114	26010.324648636378	1349.2492007486
6	135169	26020.832915142348	927.76740202015
6	135172	26021.74502152119	470.71575489845
6	135257	26040.424407538567	6511.3549229018
6	135309	26050.531682649888	3793.3845972227
6	135369	26062.798898493573	5563.6780767491
6	135403	26068.650968818721	3394.9073914004
6	135426	26073.644491745234	4898.2926845798
6	135491	26085.141038324014	3399.6760610449
6	135523	26089.095828019716	923.65608440699
6	135611	26105.050758809112	469.69048387749
6	135677	26114.798059976826	8752.9511758601
6	135786	26137.440732611231	463.77773226746
6	135878	26155.728485483843	3027.3396482739
6	136030	26184.148597638846	1802.8863189374
6	136173	26209.591962499988	3040.2218115351
6	136188	26212.56203737443	7496.4408377419
6	136231	26221.443812622574	3036.4824553154
6	136243	26223.616158465275	2626.9220692953
6	136360	26246.671505368481	4228.6187751459
6	136430	26258.885775522496	4587.7107426524
6	136480	26269.253503338695	1388.9056599797
6	136557	26284.190542800239	930.58250743962
6	136569	26286.243918633069	3062.5889838342
6	136576	26287.431467094812	3063.6620789859
6	136584	26289.526303685344	2645.3086987057
6	136677	26308.700758688412	3852.8477999964
6	136708	26315.590556195639	6321.0295811664
6	136746	26321.543617728334	5686.1629425472
6	136778	26327.302167310083	3476.5686014283
6	136789	26330.125878546929	935.11801663114
6	136836	26338.944619471004	3477.3477674679
6	136932	26357.069838418143	4257.0144251887
6	136954	26361.153799634969	4250.1609189514
6	136957	26362.154236277828	8888.0091337413
6	137058	26381.123949326091	8389.1184400583
6	137067	26383.955963190627	5676.1619098213
6	137074	26385.108430839312	1398.331183085
6	137087	26388.262820927874	7560.8863026367
6	137100	26391.163537145668	7563.1603712425
6	137105	26392.184264992067	4623.9130085702
6	137121	26395.971608990227	4256.5994342557
6	137170	26404.637537566089	2244.3075457296
6	137234	26415.131414190384	1398.5293088938
6	137270	26423.002194989176	6015.5719408252
6	137291	26427.728668970691	3070.8330798301
6	137303	26429.502511831543	1399.1288366921
6	137334	26436.681831814612	6015.6761041704
6	137356	26441.063978295477	6338.1669819438
6	137405	26451.895123335609	6021.3458442973
6	137416	26452.746650886332	1400.568685524
6	137431	26455.724327956495	4981.2856221589
6	137441	26457.631241642386	16388.972230446
6	137467	26463.6620726493	2667.104065441
6	137485	26467.61874950042	2668.1279546388
6	137539	26477.620657578745	3493.4998476664
6	137559	26481.585700346139	475.90293381445
6	137673	26503.998871607503	4637.9706116443
6	137691	26507.796625811963	471.0773409337
6	137721	26513.836334342027	950.17718900982
6	137944	26555.025293236677	13598.561491313
6	137977	26561.708830891815	475.02798107924
6	138029	26571.433112111954	5003.8077934982
6	138067	26577.37837028884	2670.9387675742
6	138123	26589.473835234797	5014.6532821408
6	138136	26592.72041457499	7024.6807825988
6	138341	26636.071934088119	1860.9209077533
6	138567	26679.530411830159	7675.178377915
6	138579	26681.612922520084	490.63156345901
6	138582	26682.598321177331	4300.2900473824
6	138611	26687.660894437027	4301.6224196214
6	138768	26717.225210268687	492.30951542458
6	138775	26718.334948591779	1429.3083463028
6	138824	26729.482846279053	2298.9243897112
6	138831	26730.379690115416	9583.0747584956
6	138894	26742.123034186644	2717.4131813194
6	138929	26749.139339850731	492.8487734566
6	139017	26766.202968137782	2720.760469943
6	139062	26777.335448298487	3557.1633598507
6	139065	26778.422544321674	973.38022082208
6	139186	26799.484444328186	3969.6462429364
6	139216	26805.609405212917	5113.2557000624
6	139361	26828.02557298408	6818.5249860205
6	139366	26828.920758886981	9845.3105238776
6	139404	26834.784624806857	5486.8777516102
6	139429	26840.267427448714	9616.7250238471
6	139436	26841.431082644099	971.31178005375
6	139452	26845.246221241979	3134.1152579818
6	139660	26885.620143269623	8614.5983981202
6	139757	26901.994425069511	8607.1980688969
6	139829	26917.962145821721	4747.9199509121
6	139886	26928.711001197592	3975.6493795124
6	139919	26933.515273672871	488.43482324694
6	139964	26942.911833226371	5840.4022706224
6	139975	26945.860351015131	964.6619145644
6	140030	26956.725826359695	1890.3125110425
6	140075	26963.968534981242	5472.0919067227
6	140096	26968.796919461494	5111.5453656563
6	140103	26969.925839608876	1892.3473753456
6	140109	26971.933656822206	2311.0381110798
6	140114	26973.010634191209	4354.9148275641
6	140201	26992.040564435966	3979.4706938896
6	140204	26993.04626723301	3149.9906329766
6	140341	27016.133334023098	7186.3485055246
6	140355	27020.090004652331	9446.0641209033
6	140385	27026.125588787778	10413.916458012
6	140450	27039.49119765755	1905.0958786251
6	140463	27042.449137386552	4761.3537564015
6	140535	27054.855643306916	3979.9802422825
6	140545	27056.885175957867	965.99079744205
6	140618	27072.492563931887	1444.2679825556
6	140640	27074.565826534629	969.65024671188
6	140720	27090.430737314523	5508.5800272483
6	140774	27101.206959418079	5161.2890252807
6	140815	27110.074650129081	3998.0199520675
6	140897	27125.367684732993	3177.4119291918
6	140906	27126.466010075957	5173.7665383649
6	140927	27129.511297377628	2355.3667926802
6	140966	27138.293337360733	8449.8171345777
6	140980	27140.501679335591	11141.808391796
6	141086	27161.215173808916	4413.9021201703
6	141156	27175.111788660812	6611.4403396656
6	141164	27176.910015218484	1455.0641650193
6	141174	27178.908755245119	480.90096935859
6	141220	27186.674577904181	6276.4348127995
6	141268	27194.543402470616	6282.0814207614
6	141307	27201.424861660382	7267.0330622207
6	141336	27206.546807023759	2792.5421115747
6	141371	27212.857625430418	2368.282879081
6	141431	27224.808942801565	484.56726444031
6	141450	27227.619515629732	4442.9632942915
6	141474	27231.369183137516	2378.0212672034
6	141506	27236.953900143008	480.71261094861
6	141511	27237.778517804823	2374.2002366736
6	141542	27244.015277555088	4817.9171164948
6	141578	27249.451423364288	2800.4384546397
6	141595	27252.618227511334	989.86271446288
6	141608	27255.733796109974	1464.5136228854
6	141623	27258.926141411316	4449.7488783774
6	141641	27262.636949940556	8801.2750449487
6	141657	27266.574172934581	987.01511712278
6	141694	27273.434385362984	3223.0910307421
6	141815	27299.204929795273	993.03483224092
6	141871	27307.433336378511	8829.882061324
6	141877	27309.45923891167	992.14430427961
6	141887	27311.36814163315	4068.2599128349
6	141974	27328.252926807916	2394.6581774903
6	142070	27348.379377170253	1935.1585650402
6	142101	27354.123777893625	1477.7941087697
6	142112	27355.141620765973	1940.8172339027
6	142147	27361.990715373374	5244.4799487577
6	142175	27368.495497401869	997.842236705
6	142198	27373.212366936887	495.32206126736
6	142265	27386.58030726823	2402.7340083887
6	142271	27388.688554639993	2831.9345786101
6	142283	27390.819269403787	2830.9391874149
6	142441	27420.751425156901	4068.9650312659
6	142539	27438.789851903608	7019.0103460815
6	142542	27439.818526290236	6348.5188786663
6	142557	27442.98714521301	3251.8170108497
6	142733	27477.473538942606	7670.5577216839
6	142760	27482.525640955817	3250.9782947651
6	142785	27489.686109770805	505.98766726758
6	142819	27496.206609087128	995.68695251664
6	142844	27501.140835146482	4875.616481708
6	142871	27505.960788873645	4060.0374458053
6	143042	27539.488926265168	3666.7445733323
6	143069	27544.795487983117	1470.4231432531
6	143104	27551.892354150546	8602.8514622061
6	143231	27574.422772890384	6390.0922091291
6	143244	27577.188005941416	1477.1764701627
6	143286	27585.531672846301	511.60197810652
6	143297	27588.459895701481	510.06473400305
6	143320	27593.648074120336	4090.4013252432
6	143357	27600.902459179756	1965.204459413
6	143360	27602.041039568425	6753.7869623819
6	143475	27626.980261648313	3279.6578701675
6	143519	27636.780944961361	1000.4015890052
6	143541	27640.9783174587	2875.5295598862
6	143602	27651.71022931026	4106.2718049229
6	143753	27680.439126933327	511.32604735088
6	143827	27694.058116636386	5713.2703723345
6	143895	27705.498744452052	2890.176242523
6	143973	27721.066213391029	4552.1709242584
6	144048	27733.694475537963	3719.7454197847
6	144126	27749.329525289552	519.10750477041
6	144199	27764.009612848477	6100.1558244597
6	144249	27774.297287417722	3322.8017404709
6	144265	27777.910126871669	3733.6126886272
6	144268	27778.740802516376	1507.562277355
6	144273	27779.651528918983	2441.7391627368
6	144304	27784.663644804952	1503.4074908004
6	144352	27793.097628014216	1510.6413556522
6	144430	27806.978251810052	512.91116825241
6	144435	27808.044011745282	5356.5712669509
6	144492	27818.344119279699	4166.1219994111
6	144524	27824.367438870443	9062.3163882544
6	144545	27829.253012979643	4166.4377571974
6	144634	27846.562853973881	1996.7083030553
6	144642	27848.594136950989	3340.6943241514
6	144672	27853.982943620402	4582.4763019857
6	144702	27859.805650128667	1020.4865780118
6	144748	27869.720912272726	1020.2635077005
6	144872	27893.372772492154	2463.3005956789
6	144877	27894.370502332656	2462.7525821456
6	144889	27896.642757313477	1995.262204146
6	144946	27907.298337342089	10660.555251339
6	144989	27914.833753003051	4174.9506154226
6	145005	27918.811460237169	4994.8209093093
6	145127	27941.223708894345	8482.9787759038
6	145139	27942.943085517044	5771.549467135
6	145288	27972.216144005915	2915.8157058446
6	145344	27982.622657731508	2462.9971860037
6	145354	27984.937155137078	4183.7027480044
6	145398	27993.41252264097	13469.05894682
6	145430	27999.083307148103	509.16222881779
6	145697	28048.982071042206	1511.0714322822
6	145738	28056.059730101987	511.71936685153
6	145755	28059.2480393522	5008.6751894461
6	145782	28065.946379270922	2928.7876964674
6	145835	28076.540227911488	1513.7385248416
6	145948	28095.55603642646	1518.475785369
6	146033	28110.940570630374	3790.7648548255
6	146130	28127.985991241653	2008.8328593998
6	146148	28131.884103386999	1025.7666332201
6	146192	28140.004447108099	4203.2368279047
6	146213	28145.098020640165	2946.3603713464
6	146298	28161.856754533535	5817.2014304709
6	146471	28197.753873720262	1026.9156743226
6	146486	28200.997363472507	511.48123682373
6	146555	28213.263163917383	6230.3747135759
6	146562	28214.351288451219	2493.3489442921
6	146570	28216.275584949611	2493.8984453791
6	146619	28225.385629525093	1524.3580504532
6	146681	28238.664282881527	2961.8471182832
6	146724	28245.411311862771	2962.8993948367
6	146729	28246.46298287638	517.47298523505
6	146761	28252.181509254376	2502.0894090043
6	146856	28271.078777859702	4253.3338972982
6	146915	28282.197510270651	7690.8726873701
6	146930	28285.198621012427	5492.6656402277
6	146933	28286.032605684705	1525.4700344495
6	146941	28288.105961760662	1525.4715989678
6	146949	28290.07569554948	1524.865623898
6	146991	28298.402769650024	3419.4691302316
6	147031	28308.427548899472	1037.5550682748
6	147068	28314.887765359849	3849.6321145971
6	147094	28320.73356826349	518.16387841683
6	147124	28326.478253201366	3849.8645495785
6	147142	28329.984934830449	2959.9649767732
6	147211	28342.64550364862	3430.6455754671
6	147311	28360.27833439025	1034.1636812104
6	147316	28361.141764732887	4273.9890784229
6	147337	28365.666777835944	3855.4410949206
6	147340	28366.822315031448	1533.5977792762
6	147355	28369.968061606558	2505.0289102612
6	147358	28370.925778797055	14922.830203536
6	147370	28373.036847042824	1031.0678162579
6	147394	28377.630603272067	4275.0032014699
6	147461	28390.890002265452	1538.6308737136
6	147473	28393.051994359745	515.40849942078
6	147492	28398.799679417507	2034.5932469753
6	147500	28400.943198877265	3857.5106636142
6	147508	28403.151829253108	2034.4938273767
6	147569	28413.67385649911	515.79426089053
6	147584	28418.439389820555	8696.7073634307
6	147637	28427.346202467355	517.72590569748
6	147733	28445.094484334692	2032.8209498237
6	147751	28448.896189307209	516.00406688766
6	147785	28455.107182558041	2981.6965253916
6	147929	28480.947203194601	1542.0771271509
6	148005	28495.99733957515	7017.7038109577
6	148131	28518.279413094621	1543.5994210275
6	148224	28536.155017224389	4296.2289498596
6	148244	28540.227965727231	6672.4609031538
6	148261	28543.467192805993	5914.0376916515
6	148300	28550.46866877942	529.51753163701
6	148312	28554.183431856583	3874.951951898
6	148343	28561.312265560467	2509.4794434215
6	148459	28583.097174167603	1041.812980175
6	148516	28593.317515326541	3461.6111343814
6	148574	28603.304877961118	525.12159009955
6	148610	28609.598358733456	1558.1579152105
6	148802	28644.674236603144	534.96726061492
6	148808	28646.805877405002	2539.4735505125
6	148875	28659.92167445232	7077.8750144496
6	148885	28661.739499492075	536.85298368462
6	148890	28662.921100129902	6340.3352887094
6	148956	28678.072439280681	3917.3747664104
6	148988	28684.2667079047	3019.4641188611
6	149012	28688.022342378244	1561.5734411238
6	149017	28688.892602122918	3020.9679270763
6	149029	28690.809160815709	3484.6374240603
6	149150	28713.716112511295	2548.1528967502
6	149300	28742.218738952437	1561.427225608
6	149367	28755.602087962785	1050.481930652
6	149438	28770.481580809383	4777.8409116455
6	149566	28793.598822648703	1049.1051696668
6	149679	28814.56347016587	9189.5214256287
6	149723	28822.3074678065	1045.4794498753
6	149757	28827.671073889799	2054.455533285
6	149824	28840.917978300407	528.07575056429
6	149869	28850.192929035305	5629.5469916832
6	150022	28878.920948328516	3040.1653896696
6	150106	28895.527578634089	1564.317922541
6	150111	28896.386229999988	6418.2765723629
6	150164	28906.123241045858	7164.7085617037
6	150172	28907.847810208305	6416.3758396608
6	150204	28913.740378181237	11686.983628462
6	150346	28941.542665109847	2059.4246960238
6	150384	28950.326603106938	1044.0129117544
6	150416	28956.496101900253	520.86909994392
6	150428	28958.562154589563	2064.9977839821
6	150526	28978.471763567876	7547.7811283395
6	150529	28979.281802957289	2566.3229255245
6	150681	29009.727882779828	3963.8953120264
6	150842	29037.084434475164	1570.2309250731
6	150863	29040.493097253582	6063.5410713785
6	150866	29041.635077641598	5236.4337533366
6	150948	29057.85870622403	3042.1573713522
6	150951	29058.963596145967	2081.4864407986
6	151105	29089.016494973163	7576.8991750591
6	151152	29097.660105620298	2086.6477363874
6	151167	29100.951969381116	2088.9519680539
6	151228	29112.252939872137	1581.4058189997
6	151240	29113.999339652034	2088.8938733424
6	151403	29144.819116759366	8635.9743821258
6	151444	29151.978873429607	9893.7046247246
6	151457	29154.791181582	538.67888211103
6	151465	29156.712911654517	538.37661183812
6	151532	29171.058674571823	6089.7630970844
6	151559	29175.356862997144	6093.6053883155
6	151641	29189.743657284111	2110.6823406721
6	151673	29195.850177755089	4453.3797957713
6	151676	29196.975174919771	1080.2377965856
6	151679	29198.017935322108	2113.8928076021
6	151748	29211.389321434287	12782.24925127
6	151761	29214.318282680002	2109.435990913
6	151796	29221.732683864862	1592.2328049247
6	151846	29231.612970091285	4466.6883090056
6	151922	29245.491881023601	7284.7375202187
6	151956	29251.309599399913	2102.4152839818
6	151976	29255.646318792061	534.46893289537
6	152001	29260.18058696843	11887.748060409
6	152011	29261.864379401666	3564.7812582515
6	152041	29267.887903169704	1589.6250048631
6	152087	29277.519316257698	3568.5743783399
6	152179	29295.439199386046	2105.9067492612
6	152287	29317.306352603875	2114.5422302061
6	152341	29327.369657989193	8069.1253609357
6	152400	29339.981700374345	1590.8480824715
6	152405	29340.961023035991	6935.1963222864
6	152548	29369.094129276528	1084.058673613
6	152703	29399.122351688121	12689.503062576
6	152800	29420.381557885347	5354.2836209739
6	152854	29428.387396275787	2606.7827719422
6	152861	29429.508213098603	547.71011864493
6	152912	29439.679154931359	8112.6426606321
6	152927	29442.825457277686	4048.6278926872
6	152942	29445.540348015145	1585.8056928032
6	153025	29460.133368230962	545.77320366329
6	153062	29467.03081025656	5752.4297149768
6	153069	29468.163111962543	8449.8411440842
6	153127	29477.725073470434	1068.3180012338
6	153223	29496.23957111582	1065.5804825224
6	153377	29524.672230459917	1589.896657128
6	153396	29527.412043436597	8454.1530425525
6	153406	29529.60489206787	4925.5008809587
6	153445	29539.285316575298	546.18529727208
6	153483	29546.641302720809	537.49278131891
6	153527	29554.204218468142	2621.9295266792
6	153600	29567.207435154801	3114.7158191725
6	153621	29571.768843849262	3118.2500213154
6	153773	29601.979455474373	1079.5414911912
6	153781	29603.995851364247	4942.5016198224
6	153829	29614.306969264411	1604.6166527299
6	153846	29617.04373231845	542.65859183766
6	153922	29634.389018174987	3115.5138663025
6	153966	29642.212539841124	545.81197397554
6	154177	29676.691417105854	1081.5169415118
6	154342	29704.723383634431	2138.7644382472
6	154400	29716.283090287715	5813.5169641718
6	154424	29720.343845846213	2139.2908001865
6	154437	29723.270749215397	1086.2846155915
6	154455	29727.132804393011	2654.4622102234
6	154545	29744.775352093284	541.96789120973
6	154548	29745.963712865845	2658.3745057356
6	154553	29746.932934905761	4109.9595641817
6	154625	29760.510566553459	2650.5272495366
6	154659	29768.632346848665	5006.3019422657
6	154698	29775.650038102816	3139.1607313631
6	154809	29796.287837961865	5013.2579500687
6	154898	29811.003988105236	1080.889017139
6	154981	29825.768526365226	8930.0873471202
6	155066	29844.870586404382	1086.3006006606
6	155146	29858.730474462817	1627.4600195085
6	155149	29859.88788195326	545.03592680925
6	155223	29873.720521703728	5878.2691462734
6	155228	29874.641220487088	6286.2986730044
6	155231	29875.645879683822	546.27301345073
6	155279	29885.888210813135	5875.161903644
6	155285	29887.967375145939	540.5209646884
6	155312	29893.212376492092	3159.9389951479
6	155343	29898.114588403975	1096.0348551597
6	155388	29908.479639170219	5061.1570362017
6	155510	29931.021016920074	542.47845845692
6	155523	29933.946365760169	6718.953611166
6	155552	29938.562644827642	1098.6414154887
6	155564	29940.707707217053	13679.678708314
6	155718	29968.521317367623	3160.5039433926
6	155756	29976.275334791927	4149.6053334255
6	155773	29979.244532645954	4147.5737112732
6	155786	29982.238031293074	2154.0569009652
6	155797	29985.326908645773	6739.0637200238
6	155809	29986.997793878516	2672.1997789658

