version 2
run Second_exit_2-0-20191114-11:42:28-8864
attr configname Second_exit_2
attr datetime 20191114-11:42:28
attr experiment Second_exit_2
attr inifile omnetpp.ini
attr iterationvars ""
attr iterationvarsf ""
attr measurement ""
attr network ResponseTimeNetwork
attr processid 8864
attr repetition 0
attr replication #0
attr resultdir results
attr runnumber 0
attr seedset 0
param **.Source.interArrivalTime exponential(5s)
param **.jobPriority bernoulli(0.6)
param **.PS.serviceTimeU1 "uniform(0.8s, 1.2s)"
param **.PS.serviceTimeU2 "uniform(1.8s, 2.2s)"
param **.SS1.serviceTime exponential(1s)
param **.SS2.serviceTime exponential(1.2s)
param **.PS.exitProbability bernoulli(0.2)

vector 0 ResponseTimeNetwork.sink lifeTimeU1:vector ETV
attr interpolationmode none
attr title "lifetime of arrived jobs U1, vector"
attr unit s
vector 1 ResponseTimeNetwork.sink totalServiceTimeU1:vector ETV
attr interpolationmode none
attr title "the total time spent  by arrived jobs U1, vector"
attr unit s
vector 2 ResponseTimeNetwork.sink lifeTime:vector ETV
attr interpolationmode none
attr title "lifetime of arrived jobs, vector"
attr unit s
vector 3 ResponseTimeNetwork.sink totalServiceTime:vector ETV
attr interpolationmode none
attr title "the total time spent  by arrived jobs, vector"
attr unit s
vector 4 ResponseTimeNetwork.QueueU1 queueLength:vector ETV
attr interpolationmode sample-hold
attr title "queue length, vector"
vector 5 ResponseTimeNetwork.sink lifeTimeU2:vector ETV
attr interpolationmode none
attr title "lifetime of arrived jobs U2, vector"
attr unit s
vector 6 ResponseTimeNetwork.sink totalServiceTimeU2:vector ETV
attr interpolationmode none
attr title "the total time spent  by arrived jobs U2, vector"
attr unit s
vector 7 ResponseTimeNetwork.QueueU2 queueLength:vector ETV
attr interpolationmode sample-hold
attr title "queue length, vector"
vector 8 ResponseTimeNetwork.SS1 queueLength:vector ETV
attr interpolationmode sample-hold
attr title "queue length, vector"
vector 9 ResponseTimeNetwork.SS2 queueLength:vector ETV
attr interpolationmode sample-hold
attr title "queue length, vector"
0	12650	10004.603072780874	0.933537990414
0	12655	10009.047383295675	1.035835387837
0	12665	10016.970466929861	1.1182575684
0	12670	10021.040295686781	1.164089592453
0	12675	10022.667896673147	0.85966881318
0	12692	10028.018104200124	1.061873694044
0	12707	10032.424359598553	1.708901826168
0	12724	10035.820340373086	1.994892047664
0	12727	10036.761808737273	6.404749810525
0	12730	10037.931073152086	4.177506769542
0	12740	10044.353950258496	0.958922212198
0	12745	10047.936023640658	1.114865534287
0	12762	10053.526060528974	0.85123497434
0	12765	10054.487118398505	1.588543995155
0	12785	10065.651057593322	1.144407776464
0	12790	10071.154677255383	0.952613644209
0	12810	10081.655268809078	1.011811608449
0	12840	10096.880602196399	0.984923147224
0	12850	10106.007184336169	1.822037352448
0	12877	10112.811487030515	1.502630729716
0	12885	10114.752080081959	10.981221425882
0	12890	10117.813143554939	0.965003607795
0	12907	10130.583003778435	1.707689307527
0	12910	10131.773426100012	2.139548005499
0	12925	10140.96220187036	0.912880576774
0	12935	10151.028309394306	1.003127625864
0	12987	10183.630660245394	5.254559212078
0	12990	10184.682272354526	6.7666335051
0	12995	10201.329038461449	0.936543824058
0	13000	10203.750457766262	1.197902229894
0	13005	10209.683167789737	1.169217549916
0	13010	10211.675415433383	1.138795717247
0	13015	10218.067828333012	1.013315956295
0	13025	10222.707174695861	2.097754994783
0	13035	10228.384340767818	3.821508461646
0	13040	10232.385052101168	1.151357803401
0	13047	10233.585699941485	1.19549608836
0	13050	10234.723249758768	1.696876416211
0	13065	10238.507162931605	3.239187107001
0	13070	10239.948603695142	0.86496858485
0	13085	10243.070367968497	1.558440104828
0	13097	10255.046094673012	0.886289778631
0	13100	10255.849167840627	1.539310001144
0	13112	10260.161944890944	1.692900354505
0	13125	10268.07247017676	0.947888763063
0	13130	10272.623055553592	1.169801641535
0	13140	10286.075352299602	0.968210462574
0	13164	10315.559698782759	0.925188657927
0	13169	10316.44696108223	1.598582092661
0	13180	10319.393467154904	3.07319316462
0	13190	10329.116094932314	2.08305574381
0	13207	10337.155455627031	1.404169187394
0	13210	10338.271969089954	2.481700607215
0	13215	10344.968914983274	0.915435471199
0	13220	10349.411653522175	1.03688731119
0	13225	10351.248477247995	0.953639221564
0	13235	10361.604143115657	1.014220052585
0	13260	10373.170382038295	6.964905116747
0	13275	10378.655262446099	1.917868666845
0	13300	10385.28460120845	3.319770078636
0	13317	10404.009143019631	1.103494167328
0	13320	10404.938865070302	3.472684860955
0	13335	10427.458171502697	1.992331606129
0	13342	10432.303216244335	1.067580719292
0	13350	10437.461304113759	0.941136995144
0	13367	10446.046780350089	4.190126539683
0	13377	10450.773217054722	1.023687270749
0	13390	10469.375880657561	0.848265975714
0	13415	10492.03543350328	0.933038833831
0	13429	10501.764272554009	1.049675473291
0	13440	10509.210955606135	0.85298684556
0	13459	10524.327223482335	1.008009526692
0	13464	10525.284481740722	1.653555626886
0	13467	10526.254979230163	2.579322832897
0	13485	10541.435678286229	0.93745792266
0	13490	10548.439813254657	0.822829595581
0	13495	10550.604780405713	1.103892216645
0	13500	10551.497515230735	0.862616186123
0	13517	10558.381138986775	5.066943785368
0	13552	10576.609339950819	1.144270787574
0	13565	10579.315782337197	3.181358872092
0	13580	10591.281708850895	1.990937008529
0	13605	10618.739645139738	2.839003530163
0	13610	10621.964888508652	0.865070203505
0	13615	10623.226551285822	0.826767888386
0	13620	10626.773189826982	1.122971931472
0	13625	10628.490737356667	1.146167126205
0	13630	10641.29710433239	1.011721271463
0	13635	10643.219592313101	1.026671808399
0	13640	10656.833313903549	1.073839228041
0	13645	10658.06553939156	0.832669290993
0	13660	10670.735378906376	1.13781781923
0	13672	10680.634043539368	0.858616182208
0	13680	10689.755538768324	1.102536993474
0	13695	10697.710568001725	1.170062472671
0	13700	10707.893515427824	0.803454635758
0	13720	10722.90593964533	2.386581901142
0	13725	10725.616738768452	0.849411896802
0	13737	10735.340845516864	2.493094979634
0	13742	10736.399288531653	1.519681775347
0	13747	10737.373541381843	1.866670159408
0	13750	10738.241938439086	1.469398890672
0	13765	10756.332393626407	1.123628507834
0	13775	10780.970289990844	0.842396163009
0	13790	10805.514690096177	1.190363274142
0	13800	10815.568024340311	1.16786057055
0	13805	10818.664673368061	0.823234514799
0	13810	10821.978279843834	0.801500874944
0	13820	10826.410260246783	0.816515660938
0	13825	10834.547639179796	0.844526549522
0	13842	10850.125077166559	2.890149145149
0	13847	10851.259295423945	4.081352208428
0	13850	10852.136813087819	1.487730805027
0	13860	10863.353728473079	1.185889129713
0	13865	10871.25994856777	0.927600839548
0	13885	10896.564211809536	0.898858065903
0	13890	10912.062235655243	1.00961043546
0	13895	10928.467946793129	1.112536356039
0	13910	10937.230535948798	0.930505768489
0	13925	10949.345082400679	3.77619205519
0	13930	10955.966996451255	0.843145279307
0	13945	10968.50844837048	1.119755228236
0	13950	10973.66594363277	1.047014136799
0	13955	10979.657193747233	0.899112702068
0	13965	10993.064663630821	2.459338633779
0	14002	11007.074780475729	1.105390283093
0	14020	11033.121074992893	3.227001385448
0	14025	11038.574901270805	0.89577095639
0	14030	11042.569192832216	1.088437018264
0	14047	11060.142346242137	1.590938656534
0	14055	11062.459401846651	1.285648992577
0	14060	11070.258476422293	1.170458426047
0	14065	11073.483810493667	1.151461540349
0	14072	11075.823500930194	0.936520818435
0	14105	11085.650014932561	1.61894602338
0	14117	11090.04850846696	3.112774400522
0	14140	11097.627715142868	8.553715121585
0	14145	11100.821320199941	0.849771843851
0	14180	11132.06996850047	1.003646267145
0	14190	11138.976134360997	2.158534751174
0	14200	11141.852033631843	1.193389176391
0	14205	11146.394783399904	1.147727639135
0	14235	11159.641403810853	2.798441088416
0	14245	11166.596132171327	2.96485902419
0	14282	11178.409435002527	3.316556616986
0	14295	11183.454445882619	6.869235807928
0	14305	11203.650864773241	0.905800812785
0	14325	11220.654828502306	1.068846088368
0	14335	11225.919934999821	4.241142972629
0	14340	11235.886840490362	1.068384404108
0	14355	11245.08687697754	1.100010835533
0	14360	11248.736383897516	0.885770152789
0	14380	11259.398818824085	3.539013134362
0	14396	11266.945167870123	1.291390225468
0	14445	11287.02669473622	17.89063123529
0	14450	11289.46552583379	1.141189167742
0	14455	11295.62301448946	1.022900017351
0	14465	11302.519250354239	0.980637183879
0	14470	11311.912269148034	0.820162034594
0	14480	11316.151847398802	2.704977018121
0	14490	11323.443521708617	1.185110235866
0	14497	11327.048998602985	1.140748868976
0	14502	11327.868160938046	1.090184360916
0	14515	11332.371959134372	5.033075297924
0	14539	11338.131277118153	1.771490748169
0	14551	11340.070757460217	2.18217561776
0	14554	11341.115949015594	6.126221612654
0	14557	11342.173330737366	2.232166555473
0	14577	11355.663454162133	1.11405447796
0	14590	11358.488072352288	3.507559382799
0	14600	11364.248671048716	2.520152442485
0	14610	11379.394056463567	1.033008509222
0	14620	11399.530838432429	0.870201366674
0	14625	11401.611364997359	1.094469652139
0	14635	11409.455292843914	4.302804508021
0	14650	11426.562173354814	1.147131966054
0	14667	11432.763708593809	0.936228945106
0	14670	11433.929984712434	2.0412216619
0	14685	11444.866007867974	1.109206675831
0	14690	11447.89927320142	0.995254711062
0	14695	11450.152659877501	1.076104864012
0	14705	11467.895590055286	1.946415631334
0	14710	11477.533075233533	1.071452246606
0	14720	11485.781672967859	1.620061930465
0	14730	11487.946913552577	1.776360717851
0	14735	11497.257312225486	0.929695203435
0	14755	11523.645355821833	1.01790394308
0	14765	11527.112329489701	2.087812046442
0	14770	11540.73335435923	1.095827534888
0	14780	11554.277727080896	0.807223505899
0	14785	11556.119535510941	1.1946284228
0	14805	11573.59993621647	5.453176621262
0	14810	11583.050237078753	1.011950653233
0	14830	11594.340977261288	1.126233434118
0	14845	11605.095476297651	4.190907028417
0	14850	11614.28187046421	1.094901291654
0	14860	11616.996678439721	1.99300099653
0	14865	11621.903346046295	1.111065900978
0	14882	11627.861235248813	1.192173138261
0	14885	11629.039981515104	4.858019515944
0	14905	11637.353037000618	3.033584421786
0	14915	11660.044650148429	1.134861600772
0	14920	11672.546076986851	0.993558555841
0	14935	11693.193829655456	3.939793884677
0	14940	11701.330965416576	1.145268936176
0	14950	11719.760592471358	1.111589854956
0	14955	11738.6102528191	0.936167000048
0	14960	11745.135542802598	0.854969087988
0	14965	11758.47971922478	0.98082435457
0	14975	11773.321133634836	0.837537882756
0	14987	11777.312890304785	2.397767472046
0	14990	11778.346663435988	1.728343395145
0	14995	11792.448510148259	0.945557110943
0	15017	11803.203537516682	8.448824393667
0	15020	11804.181366796898	1.291253711388
0	15030	11807.202103181072	0.956316480506
0	15035	11808.939816237296	0.852265468147
0	15047	11811.182837785182	2.223534733872
0	15052	11811.989553271288	0.939255252189
0	15062	11816.172822959829	1.102037619241
0	15067	11817.217442312293	1.217480752915
0	15072	11818.190015869417	1.235163581798
0	15075	11819.073840609395	1.074870624995
0	15085	11840.065160681061	1.241261138109
0	15090	11845.632417895648	1.144851729274
0	15105	11850.966418290403	3.748689733057
0	15115	11854.795140349116	0.897885422315
0	15120	11861.656345431448	1.143795171939
0	15130	11865.211048030341	1.848199779947
0	15135	11874.755936662338	1.166108515207
0	15142	11877.699762557284	1.196122470405
0	15145	11878.523331485712	1.18952050419
0	15155	11891.619458283255	0.898738369066
0	15179	11900.415515779281	5.070619154739
0	15182	11901.392934356114	1.1273183113
0	15195	11931.690291529001	1.101184224058
0	15235	11951.253245533961	1.186777824536
0	15240	11953.35841940235	1.044954303093
0	15260	11982.528338195904	1.333762753379
0	15275	11992.915810279637	1.055225630756
0	15285	12009.203979954711	0.981948314793
0	15292	12016.114882074334	0.837832022738
0	15300	12018.191535813864	1.316861293753
0	15315	12058.694773400252	1.164704264235
0	15320	12063.852703347852	1.000099169742
0	15327	12069.397928411881	0.966012103204
0	15330	12070.547004522285	1.63161941171
0	15340	12075.299691344625	1.142441844754
0	15345	12082.328748345665	0.956803475693
0	15357	12085.798732289223	1.216138132225
0	15360	12086.752787363267	2.926965934504
0	15370	12104.252609162094	1.03847761685
0	15375	12107.44403811045	1.008553417772
0	15380	12108.599798364314	0.843567173928
0	15385	12110.854752727152	0.9443181674
0	15397	12120.28518491202	0.900737788808
0	15400	12121.364835959961	1.786661332479
0	15405	12127.516816523219	1.118609955814
0	15410	12129.636372184677	0.940226822346
0	15422	12134.98690237239	1.010906342231
0	15435	12140.876255378438	2.597136552455
0	15440	12147.929327940046	1.090360560734
0	15445	12151.350789371263	0.906837932765
0	15457	12164.340986818102	1.513803714027
0	15460	12165.217344829746	1.30473005681
0	15490	12184.943297188745	0.947137735784
0	15505	12194.64741323873	5.97453650671
0	15512	12217.029160807986	1.09405692555
0	15515	12218.098792623967	2.022321918488
0	15525	12237.458831969311	0.808961126115
0	15530	12239.243979118823	0.979463655036
0	15535	12244.871474378464	0.822513798345
0	15562	12257.441508252959	3.174317647004
0	15575	12267.587640196496	1.013582194876
0	15600	12314.378564863605	1.291103842813
0	15612	12318.992084467431	3.17792749411
0	15615	12320.088299986926	1.382872156091
0	15630	12327.540714081112	1.663223048226
0	15635	12332.080046742121	1.038655917346
0	15655	12343.016528074969	0.940590021107
0	15672	12352.401617880882	1.882592278458
0	15680	12358.817788824023	0.965238264482
0	15695	12387.802944477234	1.220279624143
0	15702	12389.540553298716	3.505962348708
0	15705	12390.54602898651	1.700006526528
0	15742	12412.404871560215	2.986351952235
0	15745	12413.588473917312	3.59420139952
0	15757	12421.840620733267	1.008881266695
0	15760	12422.826654444384	3.003843821658
0	15765	12425.692462649975	1.041235492844
0	15785	12455.416646997893	0.949914473016
0	15820	12469.064402581066	1.059598571807
0	15825	12473.997223601888	0.948066270072
0	15850	12480.392311794145	2.016682780831
0	15890	12522.981910766668	0.990061365627
0	15900	12533.787196216455	0.944951028097
0	15905	12537.98356773386	0.991248092428
0	15915	12541.246831810462	1.137400344945
0	15925	12557.429414621673	1.084622899536
0	15942	12577.212637725872	0.988837623224
0	15984	12593.210018586629	1.085545329403
0	15995	12596.546828471043	5.482861597214
0	16005	12607.149087761072	0.946199453156
0	16010	12609.951629791897	1.026997259445
0	16017	12616.340554807087	0.815906649083
0	16037	12624.332302381963	0.820103932358
0	16070	12637.696094085769	1.070630308241
0	16077	12642.320922182584	1.135284504481
0	16085	12644.974686815885	0.886346250307
0	16095	12667.687727027202	0.839103648905
0	16105	12675.448024133051	2.17556812253
0	16110	12689.321299876348	0.808949928544
0	16115	12691.327754409197	1.166386890691
0	16135	12708.426841037449	2.947268030048
0	16150	12716.613148707938	0.934597524628
0	16167	12738.205748004831	0.860210026056
0	16170	12739.216457007072	1.569713932603
0	16190	12757.8301096562	4.837347317048
0	16195	12764.247969224136	0.941881873086
0	16200	12777.001297596656	1.164827693533
0	16205	12778.114682819408	1.055107856356
0	16235	12801.141600748669	1.475847998977
0	16240	12812.135918919052	0.940568556357
0	16250	12821.295783216374	0.936973407958
0	16255	12823.896537499809	1.155168307666
0	16275	12853.089687589378	3.582899283184
0	16300	12866.041815974977	0.9705587673
0	16305	12874.526405578198	0.84366708966
0	16322	12890.912653505962	4.011289069909
0	16327	12891.879719583012	0.995963854783
0	16330	12892.746929223437	1.508910229263
0	16335	12902.152061033107	0.990136642475
0	16340	12910.752254031464	1.049124543183
0	16350	12912.828823100602	1.770801353427
0	16355	12914.07615982112	3.185074282094
0	16362	12918.963525016907	0.96588807581
0	16370	12921.116753022043	1.012934023514
0	16389	12924.487524594947	1.302282716001
0	16392	12925.438296632583	3.884212054685
0	16410	12931.129907288524	3.604870900791
0	16420	12941.658396537856	2.691752716832
0	16442	12968.865664221503	1.161326595675
0	16457	12974.330281339709	0.865008153208
0	16462	12975.449183629018	1.827555798215
0	16465	12976.496092107736	1.950449381369
0	16487	12991.263368100283	2.929241423682
0	16495	12993.191352539399	1.689704591345
0	16502	12994.906021003701	4.379202610053
0	16517	12999.260461120415	5.295409040046
0	16520	13000.162307496011	1.795859911975
0	16540	13011.411242492525	5.673641977293
0	16560	13019.584795129445	5.665051182621
0	16565	13031.515705550621	1.058046000823
0	16580	13050.968114724738	2.365470916267
0	16601	13055.571428342392	1.560544025753
0	16609	13057.582388629993	5.352494952066
0	16612	13058.635943353219	3.335428493975
0	16615	13059.55150432861	4.83589950937
0	16620	13067.556489510243	1.061894940585
0	16630	13080.291868096823	0.863166838698
0	16640	13084.452799901448	1.133625584561
0	16650	13095.146108912881	1.022145838849
0	16660	13099.443947977461	3.301180928584
0	16670	13111.599615155327	0.842501099873
0	16680	13130.082016706364	1.09476224687
0	16685	13131.040364197627	0.843200633954
0	16707	13142.635374708142	1.733045388764
0	16725	13154.465048005353	3.838267672468
0	16730	13179.807913955926	0.875891230348
0	16735	13181.276518187389	0.978965713643
0	16750	13207.596079031962	1.08909150064
0	16755	13212.354454388016	1.104841355886
0	16762	13217.539095193038	0.83761245776
0	16767	13218.531826337876	1.039440599244
0	16770	13219.641116148496	1.946524699401
0	16775	13226.290701217247	1.165431566723
0	16785	13234.373349504742	2.891174662142
0	16792	13239.026625551541	1.017002673633
0	16795	13240.100315264311	1.51454858527
0	16800	13244.008439888747	0.816767095774
0	16805	13257.287247659337	0.987461800128
0	16815	13265.640147119168	0.859725078475
0	16825	13268.054437851673	1.051181065943
0	16830	13272.979152123926	7.017640407236
0	16840	13277.633851567684	0.989575148094
0	16850	13284.29434270568	4.489433578519
0	16865	13292.941535574821	3.512889799905
0	16877	13314.83138221388	0.885078460258
0	16895	13320.231476611353	1.393692993306
0	16900	13322.448941152343	1.071148385108
0	16920	13332.202984966361	3.175842000225
0	16945	13347.010084442925	1.03463180922
0	16960	13354.544149985864	1.084554699529
0	16965	13359.798396216048	1.165869152918
0	16975	13366.988303571901	1.122739818599
0	16980	13370.405080114532	0.96990183033
0	16985	13376.107292174913	0.86763180187
0	16990	13377.315636741566	1.158940802887
0	16995	13380.200815963882	1.173939052969
0	17005	13385.759451302692	0.804768615868
0	17010	13387.45292563354	0.984312943835
0	17015	13388.773595853093	1.196285284497
0	17022	13391.831593173055	1.034717796091
0	17027	13392.772699475346	1.225589013516
0	17035	13417.499550730335	1.068472682312
0	17045	13425.163481272017	0.961919621099
0	17060	13444.296220392189	0.923695670627
0	17070	13469.623694902261	0.867000913434
0	17087	13484.393685507393	0.975995313004
0	17090	13485.563394323076	1.248737280981
0	17095	13489.078908669994	0.840401892085
0	17115	13501.53749090321	0.807734498382
0	17122	13503.502949117134	0.933163552172
0	17140	13510.935213512731	0.903132397309
0	17145	13512.393830229659	4.337665912801
0	17152	13513.80132657777	0.955325296149
0	17155	13514.874610657556	1.394136178696
0	17167	13521.727868323473	3.992304231569
0	17172	13522.747101683056	1.368873325581
0	17179	13523.796450939382	1.393532540084
0	17189	13525.714314682203	2.08828733038
0	17192	13526.743860001563	2.942842682096
0	17195	13527.656170586011	4.229428089613
0	17200	13549.670746492522	0.918150684424
0	17212	13558.0883841228	1.103424666356
0	17215	13559.149810058184	1.121368083462
0	17220	13560.588816170116	0.867293619551
0	17230	13574.76688868837	1.064642509725
0	17247	13579.410368874988	1.32652402184
0	17255	13581.724755485495	1.132086395472
0	17265	13586.733050223072	2.017303395234
0	17270	13612.140838503069	0.984449359123
0	17277	13614.602286903414	0.811034199037
0	17280	13615.526401764195	1.196637859687
0	17287	13617.981952641955	1.106930031441
0	17315	13632.057820048808	2.137693761321
0	17335	13641.978305653536	2.264736310674
0	17350	13645.644631212708	3.339426822029
0	17355	13646.858458860542	3.752559924545
0	17370	13653.040564523674	2.658456807267
0	17385	13669.270376185093	1.104206990451
0	17390	13672.539964801593	1.116860730294
0	17405	13682.896656793467	0.816256319721
0	17415	13689.428698834546	0.882749796379
0	17422	13713.440973346122	0.945747385174
0	17427	13714.506773073133	1.182932662378
0	17430	13715.398149728682	1.425450136021
0	17437	13721.283708045134	0.87337880116
0	17454	13724.732868802521	1.572029847128
0	17469	13727.82597900347	1.652000459173
0	17477	13730.11120008479	9.674680189786
0	17480	13731.18442392151	7.613528727234
0	17497	13736.968567513235	1.84418156987
0	17505	13739.585107651241	1.086640422791
0	17510	13740.964281986849	0.938008636981
0	17517	13761.034265100344	0.837158049457
0	17525	13764.779806709065	3.781092062752
0	17532	13768.916956003473	1.149252450746
0	17535	13769.767236384095	1.950176704306
0	17540	13777.954922568683	0.859337203018
0	17555	13781.714555034357	3.709987989349
0	17560	13786.94652335085	1.023615941964
0	17585	13799.158769208169	1.090497094858
0	17599	13803.289615350095	1.465907954391
0	17602	13804.448326844787	3.131558095571
0	17605	13805.339022967843	2.053205169708
0	17622	13809.961117266386	1.301841599426
0	17625	13810.933709571685	1.766823744328
0	17630	13813.952635950958	0.966312787682
0	17645	13839.411432750205	1.025255205389
0	17664	13849.844216990355	0.991007385962
0	17667	13851.005550859846	1.538928799937
0	17680	13856.007091461875	3.567387579148
0	17690	13865.219679990763	2.230808273797
0	17702	13870.676219495288	0.814831637405
0	17705	13871.678158195591	1.714004450522
0	17725	13882.318308599392	2.921059050755
0	17747	13913.609816893309	0.983418111037
0	17780	13936.620575476757	6.315118841061
0	17790	13938.525206394039	6.574326600691
0	17800	13945.112868977863	1.470027739744
0	17805	13947.23423468524	1.162456867471
0	17810	13953.048785736762	0.867736661155
0	17815	13956.576391600409	1.037471394148
0	17820	13959.332499012022	1.15852219658
0	17850	13986.959946572963	1.195927154832
0	17865	14002.49843967791	0.873903183732
0	17877	14008.738926410772	3.549966132866
0	17890	14014.121999572236	2.730062828329
0	17900	14027.828426449698	0.821154182777
0	17912	14031.448914602568	1.644063322164
0	17917	14032.277314238513	2.986701649521
0	17920	14033.447567403114	1.492252347722
0	17935	14047.800533059679	2.139906435023
0	17959	14082.083797505509	0.997890927583
0	17962	14082.989127510983	2.80999563057
0	17970	14087.604995429903	1.139203030337
0	17975	14093.942229521072	0.935826576501
0	17985	14104.652398141073	0.814734464791
0	17990	14106.308463968292	0.834439448919
0	18007	14121.27807111826	0.836494542751
0	18010	14122.095229475407	4.042257159443
0	18030	14147.801512753421	1.146110160928
0	18035	14148.925722551136	0.975034561567
0	18050	14190.013573910279	1.539141997648
0	18080	14213.223823283278	1.114035548829
0	18090	14217.555179451524	1.896423979578
0	18107	14221.765638294015	2.947531759739
0	18110	14222.878278194405	2.329981289975
0	18120	14227.720794528932	2.064694562874
0	18130	14230.015775895871	1.793465218475
0	18142	14236.052987542759	1.011668294761
0	18165	14249.641645583014	1.109335000627
0	18180	14275.905093789979	1.012718194351
0	18200	14301.776782693208	3.001021215271
0	18205	14302.830929735971	0.953204752691
0	18225	14320.354643264283	1.755661741088
0	18242	14327.532039202356	1.714043612355
0	18245	14328.40324518576	2.82372080395
0	18255	14334.841914955754	1.156386535961
0	18284	14346.136068518713	7.1537203061
0	18289	14347.144942584142	1.482361475309
0	18294	14348.246213660084	1.963776290548
0	18307	14352.028569528768	3.8125771124
0	18315	14361.035835933275	1.113616871741
0	18320	14370.132886334107	0.960788981989
0	18325	14371.363945579968	0.957510607503
0	18345	14381.336343112839	0.815123418067
0	18352	14382.713186743539	0.961771632265
0	18365	14392.104196239973	1.036386267841
0	18370	14394.286639546309	0.984787178226
0	18375	14395.428480351125	0.855237599369
0	18387	14401.474056028288	2.623392614632
0	18390	14402.58778217518	1.903709274833
0	18412	14435.330730067306	3.002703857721
0	18440	14444.333498325602	3.609522042827
0	18445	14447.778944465013	1.103544086963
0	18450	14449.920035912279	0.978513362166
0	18455	14456.288584042447	0.820368390717
0	18465	14459.110755092933	1.893138917968
0	18470	14466.922043254545	0.870608003065
0	18485	14479.355433879504	1.559811904473
0	18495	14483.195882629438	0.871564356051
0	18505	14492.514929588692	0.894512189832
0	18512	14500.810359744798	1.064307585917
0	18515	14501.829962818116	1.650580613347
0	18537	14537.514521576672	1.008523037005
0	18540	14538.671086776185	1.901190621278
0	18545	14565.075282194573	1.102996865381
0	18552	14567.008232823201	0.955401298963
0	18555	14567.880841746275	1.118429353871
0	18560	14578.217484450926	0.898136352468
0	18565	14579.598544332543	1.177396360505
0	18580	14588.133219796733	2.242646260925
0	18585	14596.38146805942	0.967600521632
0	18590	14602.474489114786	1.159234328475
0	18595	14612.131548309923	1.145251924265
0	18600	14625.101986674996	1.092275419272
0	18605	14634.504971773799	0.879820571002
0	18617	14639.147751359497	1.144168334175
0	18642	14654.237967181094	0.820581168495
0	18645	14655.258182463776	1.349579978203
0	18650	14666.282506173295	1.099495005701
0	18660	14671.694089001343	0.879037313443
0	18677	14680.290771841861	1.432285174791
0	18685	14697.270478823735	0.891422011517
0	18695	14716.052729486158	0.910443886742
0	18705	14720.148621627467	3.428210309859
0	18727	14728.259659408009	2.780913649407
0	18747	14736.848341216942	3.113379700676
0	18752	14737.70552270492	0.955818219341
0	18755	14738.898454374405	4.99858941484
0	18760	14747.82031121397	0.91767371241
0	18767	14751.336975578689	0.925728657469
0	18775	14765.007087822917	0.911311247945
0	18782	14769.272080845936	0.965266503766
0	18785	14770.170436909879	1.636258467779
0	18790	14785.433111636383	0.955849131104
0	18795	14789.289941034427	1.048491650727
0	18807	14806.052726038096	2.838065260222
0	18810	14807.22087297553	1.789176663024
0	18820	14821.745310859714	0.87967212284
0	18832	14826.845290715211	1.141699217723
0	18840	14828.803648992964	4.068933709059
0	18845	14831.632073133592	1.153904203046
0	18850	14845.758376571154	1.057067912072
0	18860	14859.103387432201	0.916916627437
0	18867	14860.540119711366	1.199192726519
0	18879	14863.125196692583	2.836370711115
0	18884	14864.091665135466	1.209718270369
0	18887	14865.210039956358	2.158782145409
0	18935	14883.522570735703	1.189241188113
0	18940	14884.779567804867	0.911383839976
0	18957	14899.374108385782	1.716072996881
0	18972	14904.561528835442	7.415823802513
0	18980	14920.813628804118	1.060156472586
0	18992	14937.383263925277	1.187820834294
0	19012	14946.754205753445	1.166373141482
0	19015	14947.80000958459	2.056377518618
0	19020	14955.845462997705	1.022185434215
0	19030	14965.705751741618	2.434792413551
0	19035	14973.841410776467	1.108125062101
0	19040	14983.01427064838	1.034523876756
0	19045	14984.522067970205	1.126621570252
0	19050	14987.581031883819	0.814638780802
0	19060	14991.159156605854	2.212008365868
0	19065	15000.990183590093	1.12897893656
0	19070	15006.982534504055	1.003410322312
0	19080	15012.174044359251	1.182587277237
0	19100	15027.550768800655	3.88986269744
0	19105	15043.044296839043	0.889364342205
0	19110	15060.467175738234	0.955213282071
0	19115	15063.255196687628	1.043495341856
0	19125	15068.926706376901	2.702883613153
0	19140	15094.611739946988	1.04957160186
0	19145	15096.628649259653	1.157603301015
0	19150	15099.567876386685	0.919682733901
0	19165	15104.076469946834	2.642900771928
0	19180	15135.25239470591	0.824836238381
0	19190	15140.498563294505	2.680690284935
0	19200	15153.642252366034	0.800340256654
0	19205	15157.610320408628	1.040540371183
0	19215	15161.510690168191	0.922388359718
0	19220	15162.746066435314	4.521959566316
0	19240	15182.835262717212	1.064776251931
0	19255	15189.826339608813	0.918384138588
0	19260	15202.011854468001	1.046145262942
0	19290	15245.10401949304	0.982138366066
0	19295	15249.054975099447	1.058254752774
0	19312	15259.715437304557	1.005706720698
0	19330	15267.810023209456	1.14149976084
0	19335	15273.760004095657	0.854367407411
0	19355	15287.407768898384	0.983092657663
0	19362	15289.585097086807	1.14447848592
0	19365	15290.514424523623	1.111321241628
0	19377	15297.379836243889	1.013333622925
0	19385	15299.402361753056	1.960228922885
0	19400	15317.572628471211	0.853593603522
0	19405	15326.626706034681	1.004281342588
0	19410	15334.815549709879	0.843351690657
0	19415	15337.035689416409	1.112132602558
0	19420	15341.597436643495	1.18864764208
0	19432	15353.099477216152	1.189842773537
0	19440	15355.231174982251	3.978856878531
0	19455	15365.032914258582	1.674666290721
0	19470	15368.902964096028	0.8989370639
0	19475	15376.096197117312	0.800249150861
0	19482	15379.37547233647	0.990492659807
0	19520	15401.045949144515	4.572117879832
0	19540	15414.104974054073	3.214402087395
0	19545	15418.135593931898	1.155624434352
0	19562	15429.248719872757	1.740877776763
0	19570	15431.046080639995	3.758124545403
0	19587	15435.71603933454	3.244230518398
0	19597	15437.90078464786	4.868528151633
0	19600	15438.984691998199	2.322963761186
0	19610	15445.756476929851	1.179233498592
0	19615	15450.336905821522	0.891194955725
0	19625	15461.480264731891	1.089623795915
0	19655	15480.327000424088	2.019719531023
0	19667	15487.145475793864	0.936678087246
0	19692	15492.767832487962	4.984786756075
0	19695	15493.839898426506	6.3623457335
0	19717	15516.68289952024	1.138548037182
0	19720	15517.859095259822	3.308258046489
0	19725	15520.019972178279	0.926065579802
0	19745	15529.280924947082	0.958386933152
0	19750	15531.813907030906	0.825095869135
0	19760	15540.231274453708	1.239758744903
0	19767	15545.505306250477	1.036143847927
0	19770	15546.363248801665	1.778457924546
0	19790	15555.531109792147	3.735051996732
0	19795	15559.325586278995	0.983310032729
0	19810	15596.297768375421	0.821012167353
0	19815	15602.988695282302	0.989327476453
0	19836	15640.189485908361	1.545434473166
0	19839	15640.992632669551	3.917786529754
0	19844	15642.005846940322	4.616317584097
0	19847	15643.091778937789	1.55119879119
0	19865	15662.200077476201	0.964582691062
0	19870	15682.557112103269	1.104661331419
0	19875	15687.103263666301	0.870806660783
0	19880	15700.432926198811	1.05056970017
0	19890	15720.574890703388	0.883583673928
0	19895	15724.039884271466	0.881831634697
0	19905	15734.935583429528	2.136055018179
0	19915	15738.628190468391	1.441903329981
0	19925	15743.006189363337	0.825977148674
0	19930	15747.690054610938	1.016802433971
0	19942	15755.188204576632	1.030895654569
0	19954	15757.361463132126	1.777534854396
0	19975	15779.223390567143	0.835310760979
0	19994	15806.035186146438	3.237612221576
0	19997	15807.141863043938	2.713322696391
0	20005	15816.297388634665	0.917270288151
0	20020	15827.078355850291	4.506486708953
0	20025	15833.254907502981	0.851192212384
0	20032	15835.171657340056	1.116142995376
0	20060	15847.160381085778	2.038852012384
0	20075	15852.447604464964	4.133114167026
0	20085	15855.239706878803	1.691487591325
0	20115	15865.029183781708	2.902286714313
0	20120	15876.686814137658	0.810036689695
0	20132	15880.569479991253	1.399767103421
0	20135	15881.59517991174	2.34363716714
0	20140	15892.813615386228	0.899360757228
0	20152	15901.122208144405	0.872999660112
0	20165	15906.508572650183	0.976787788793
0	20170	15914.844675330423	0.80006015012
0	20177	15923.111396356585	0.947337307222
0	20182	15924.244899508363	1.469843625077
0	20194	15926.822860071089	3.69809773092
0	20197	15927.678161037926	1.560079830492
0	20200	15928.872351730455	2.407713844479
0	20205	15930.403455867145	0.876721681096
0	20210	15932.698106079886	1.001073702797
0	20235	15941.485869524084	3.939198523845
0	20270	15963.253491954434	2.985603010256
0	20292	15991.230857057826	1.086401741114
0	20330	16002.032862576137	0.954474097397
0	20337	16005.034760464521	0.879738093074
0	20350	16009.430185400316	5.123263781382
0	20357	16013.027201248153	1.105866162572
0	20365	16025.192595707707	1.047875457723
0	20370	16029.961328177642	1.035405288916
0	20380	16034.488582647382	1.071454178449
0	20390	16052.690308676911	3.393251959286
0	20405	16071.231424553499	1.880701257918
0	20415	16079.266545867176	1.021221328527
0	20425	16083.591520665098	2.09322354041
0	20432	16090.739662759942	0.877677332796
0	20440	16093.878870734216	3.627957412218
0	20450	16112.334962121515	1.002145002969
0	20455	16115.035275601849	1.156497169007
0	20472	16128.024265031146	1.055280404445
0	20490	16157.288128730562	1.096915778331
0	20500	16165.110501358159	3.210777050538
0	20507	16167.029171762647	1.103505397402
0	20522	16170.025040697532	4.073724812785
0	20552	16176.110243185091	3.2762843861
0	20560	16178.158691096253	1.770096896241
0	20565	16182.865682374277	1.099791738857
0	20570	16185.328782954317	0.995892586187
0	20575	16195.712020081073	0.918214795552
0	20611	16209.813725479016	4.824694405907
0	20614	16210.888988004321	1.86735062807
0	20632	16216.661419895673	2.000501976104
0	20635	16217.595237555737	1.417063444767
0	20655	16248.313525952175	0.828460735362
0	20660	16252.846486286634	1.17881268207
0	20665	16254.602224505547	0.867071567103
0	20680	16267.420281943808	1.012556401826
0	20685	16277.38026760901	0.920779411867
0	20695	16283.784967589985	3.474393839586
0	20700	16289.810434150449	0.96947685089
0	20715	16295.876962287425	0.966540249158
0	20720	16299.700096152448	0.889067882951
0	20725	16301.077906142246	0.992366988771
0	20755	16333.272815393678	5.384124288681
0	20765	16345.182453524774	0.975949752051
0	20770	16347.652535190428	0.953120205738
0	20775	16350.556374808688	1.156994714122
0	20785	16359.256941191949	2.343399703785
0	20805	16376.125217075844	1.888663420045
0	20810	16388.73316508396	0.840910939127
0	20820	16396.421099322791	1.145852005109
0	20832	16402.214583047391	1.731698918368
0	20835	16403.40077152886	2.95187132964
0	20840	16405.135620895226	1.169786177389
0	20856	16420.610695380167	1.177762925861
0	20859	16421.661920252916	1.860350775665
0	20870	16425.87137918554	0.865834069531
0	20875	16435.335736764219	1.176198722236
0	20892	16456.51469744504	1.143018439412
0	20917	16471.02642212379	4.362598113818
0	20944	16489.252142092339	2.123270727174
0	20947	16490.055136788949	2.181717810158
0	20950	16490.951365801073	2.256846861112
0	20960	16497.003141252236	3.626055075258
0	20970	16502.556038929799	2.908011526213
0	20980	16512.306455506511	1.082711927779
0	20985	16516.888684068868	1.056732394546
0	20992	16520.132482015823	1.14962622067
0	21002	16523.027649442128	1.007721074298
0	21010	16524.860826258197	1.10594104453
0	21015	16527.727136452587	1.118756504357
0	21020	16532.421441991095	1.027286989335
0	21032	16561.935647024047	2.078703148513
0	21045	16568.668135824957	4.836557044329
0	21050	16572.666863079607	0.879216700606
0	21055	16578.575709127715	0.912342251092
0	21065	16589.093901201345	3.123152045725
0	21087	16596.608150463681	1.181915354778
0	21090	16597.493233442064	2.923497591168
0	21095	16600.595218500073	1.169273371063
0	21115	16627.274353973148	0.882929643523
0	21126	16633.396770136291	0.946410651226
0	21141	16636.414935890445	3.578661553111
0	21144	16637.523436915734	2.728196012135
0	21147	16638.488658362207	5.597145227982
0	21157	16640.558446661708	1.878827217167
0	21162	16641.425259446212	1.086464456
0	21170	16644.93439004291	3.62640930644
0	21175	16651.210950063682	1.139995504357
0	21190	16669.826118822586	0.820587174967
0	21195	16673.72408303847	0.992538738158
0	21202	16684.433736100307	1.121884792019
0	21207	16685.468729955217	1.930038467068
0	21215	16687.651069373984	2.985093920977
0	21220	16696.811507537003	0.820202160347
0	21225	16709.94426496455	1.013355420344
0	21230	16711.409576326193	0.891222566832
0	21235	16718.135329958338	0.877815371286
0	21240	16720.04508681154	1.001738417801
0	21250	16734.473345898638	1.029067901894
0	21255	16740.554696410183	0.828030776791
0	21275	16746.957251013734	2.448118266634
0	21285	16749.083495245503	1.75897015977
0	21330	16783.369704361366	1.003508981331
0	21350	16795.187143144729	0.9046315399
0	21362	16800.039422673507	1.176692125294
0	21365	16801.094543757996	1.361594822789
0	21370	16807.200048578437	1.028989525605
0	21384	16821.478685958976	1.245924153909
0	21387	16822.360976259982	3.119771655928
0	21400	16832.773583205096	0.970777667873
0	21405	16838.760008775696	0.908612634894
0	21415	16852.91788972136	1.06190296784
0	21420	16857.890663556334	1.007062041387
0	21425	16871.36629774693	1.144760331977
0	21437	16879.241525974279	1.069871527236
0	21445	16885.488500417493	1.161169881932
0	21450	16891.571815516971	1.007136935275
0	21457	16899.868318236024	1.156935694721
0	21460	16900.831469247733	1.409701949593
0	21470	16905.37005462417	2.244654572776
0	21475	16908.031934184425	0.938898169342
0	21497	16928.028339801998	1.134021514375
0	21500	16928.833515913029	1.618686150904
0	21505	16931.041553604477	0.868842121959
0	21517	16937.598655126187	1.951260205147
0	21525	16939.980299864275	4.651368252742
0	21530	16941.229957172373	0.997375076264
0	21545	16953.215960605026	1.037472926173
0	21557	16957.83729681887	1.162047092182
0	21600	16980.392828207718	0.908764577471
0	21610	16983.708998099427	0.976337451208
0	21617	16985.152283060889	0.980292238202
0	21625	16987.403439533398	3.078683891073
0	21632	16991.259631821789	1.119166654907
0	21635	16992.294194870811	1.461400479176
0	21640	16997.26885352254	0.870748070814
0	21657	17022.426828288211	1.046975829639
0	21660	17023.530024294852	1.357219839268
0	21665	17026.083664149124	1.069145813864
0	21670	17030.427623992524	1.039605515823
0	21682	17036.230299220484	1.408022878288
0	21690	17038.263394941826	1.859581505756
0	21717	17052.172189937609	1.546938328505
0	21720	17053.107799296158	3.376543047594
0	21727	17062.374695562748	1.010156696569
0	21740	17068.591223498982	0.904080507997
0	21747	17069.95955965813	1.137322267797
0	21750	17071.077137361893	1.69713728826
0	21755	17080.196048764672	0.912827012595
0	21765	17087.922993847135	1.094703949429
0	21775	17095.293393682431	1.717103324364
0	21782	17096.637806807411	0.818619041331
0	21790	17100.039696975825	3.749291300675
0	21800	17108.283051778564	1.092540217098
0	21805	17116.937398777072	1.080617142376
0	21810	17119.890740614412	1.174334405269
0	21815	17121.628696925706	0.844481169339
0	21847	17139.436285611142	0.993458143994
0	21855	17153.362723141246	1.137712444365
0	21860	17158.575842379714	0.81013053162
0	21870	17182.210171273183	1.097060842253
0	21892	17195.232539906366	3.145119346129
0	21912	17210.773199413983	1.677234262318
0	21919	17211.602341124868	3.937481667112
0	21930	17214.762736253055	3.206392333775
0	21940	17218.337852138748	0.948833647091
0	21945	17221.263741069033	0.944494323246
0	21950	17225.555286462468	1.103314077575
0	21970	17243.575577979976	1.165018132981
0	21980	17252.653481764417	3.028185304726
0	22002	17261.454329800664	5.557121162555
0	22025	17283.005197736365	3.253319840009
0	22030	17287.705732128112	0.824555159826
0	22049	17293.134732148728	3.943570438046
0	22054	17294.135898823782	1.615659627078
0	22080	17300.685714211919	1.168343676534
0	22099	17304.928063176735	1.549844925857
0	22102	17305.771007550764	14.723447395255
0	22110	17309.273296175661	1.044137943722
0	22115	17310.288176248366	0.991629966535
0	22120	17324.430273018197	0.977232131362
0	22130	17332.211602583266	1.08397143241
0	22135	17338.20745247791	1.143803354912
0	22140	17341.739661646979	0.997398202028
0	22185	17370.88013727629	1.13631982943
0	22190	17374.049259306153	0.883108680323
0	22197	17381.086522670354	1.121639520768
0	22200	17381.997840219441	0.939479646869
0	22229	17398.823195197539	3.236989505124
0	22245	17403.190334845161	7.143278446927
0	22252	17412.398193771997	0.848487849161
0	22265	17415.729424969777	1.534949977878
0	22270	17417.519501468862	1.145288844034
0	22280	17421.749009700328	2.516488625694
0	22285	17425.898679952864	1.119102118071
0	22315	17449.225180901467	4.714667573804
0	22342	17490.366327172137	2.695872165994
0	22357	17494.637316666848	4.774973832177
0	22360	17495.547279416143	1.896942209402
0	22385	17515.272982678404	3.267243902782
0	22400	17528.928463756604	1.125647521112
0	22405	17531.24791181925	0.928460120969
0	22415	17538.719885696521	1.077711554244
0	22420	17539.826889549914	0.893206212018
0	22430	17542.038618641946	1.071367566008
0	22445	17552.710108631998	2.685764735756
0	22460	17557.010799747254	0.883841580636
0	22470	17561.538525388575	2.382608477506
0	22489	17567.208738655088	1.087926590819
0	22492	17568.179348066313	3.649847317672
0	22504	17570.205071548516	1.443276067448
0	22517	17572.799659000295	3.962498477807
0	22522	17573.74367312524	1.653991613296
0	22537	17587.227666099468	1.070936622005
0	22547	17590.174513912127	1.096881103236
0	22555	17594.022833647769	4.338329000556
0	22560	17597.061517351128	1.189719794411
0	22567	17600.545428278228	0.971605098434
0	22577	17602.802867544107	1.080273972824
0	22585	17605.944528602367	5.838726462629
0	22590	17610.652592612529	0.843263591733
0	22597	17611.97970688446	0.977876739763
0	22605	17614.613320652832	1.127775667608
0	22610	17622.963555428213	1.166909536347
0	22645	17641.062283683918	0.922726164665
0	22650	17645.678575110438	1.078115723561
0	22655	17652.671643581486	1.073896392155
0	22685	17676.390769703671	2.996680652097
0	22697	17694.588401580009	1.056201598234
0	22702	17695.573300490308	1.261284840315
0	22715	17702.566348969765	0.870003961585
0	22725	17716.642166619026	1.181425036117
0	22747	17723.761811614214	2.376564903028
0	22752	17724.852692053272	5.96251643327
0	22762	17726.759934551633	1.717870800581
0	22772	17729.76148358129	5.195769911507
0	22782	17731.745362418071	1.906212899275
0	22797	17741.066073708867	2.209803004718
0	22800	17742.214983810463	1.970815822997
0	22840	17754.92100652547	4.162781771978
0	22852	17760.731420344359	2.309825444709
0	22865	17777.463870655496	1.198562281393
0	22890	17787.127881509463	1.392375608036
0	22897	17797.881783368094	0.806198355928
0	22905	17801.189232352477	1.090145127848
0	22925	17821.403629093229	3.449779139414
0	22935	17823.995307440194	2.340110411798
0	22945	17842.570377867211	0.856528294925
0	22957	17850.648495226227	0.983210676722
0	22975	17868.043063962318	1.024543866143
0	22980	17875.657811919623	1.047765453812
0	22990	17883.953472560035	1.839504476264
0	23000	17894.909104923886	1.039133771136
0	23010	17908.659282437552	3.214624663889
0	23029	17913.251783140882	1.408163071962
0	23032	17914.193581326253	1.754390483388
0	23054	17930.214848951142	1.094387390092
0	23065	17933.043518417593	3.832734829963
0	23109	17948.799393504123	1.641891303277
0	23114	17949.967425723291	4.12420727316
0	23122	17952.057741404894	1.102397936181
0	23132	17953.801765979744	4.769582820279
0	23140	17957.355543697973	0.828102900274
0	23145	17965.646609684102	0.946077590622
0	23162	17969.248318426769	1.298786373235
0	23172	17971.360750062943	1.752212895354
0	23190	17979.392940666766	5.266813192665
0	23199	17984.28733112708	0.960365094617
0	23202	17985.269883532527	1.572454108712
0	23207	17986.317116378977	2.327746356316
0	23210	17987.150073791931	1.392165986266
0	23225	18002.340438034961	0.914834538382
0	23250	18014.317511662829	4.135554537027
0	23259	18016.589213578611	0.876389276702
0	23262	18017.405814627766	1.497416944661
0	23290	18036.337801182984	0.887416489236
0	23297	18037.836074409651	1.1387675195
0	23310	18047.564350215233	1.154664098285
0	23315	18048.829723233599	0.931450227462
0	23322	18054.626158999864	1.177825620398
0	23330	18059.598864329914	5.701034940035
0	23340	18065.930118899456	1.162256699731
0	23345	18076.260355442803	0.824708865024
0	23395	18109.733020168217	1.170230783522
0	23405	18121.472547909514	3.000803607359
0	23410	18126.220656352468	0.827967665251
0	23417	18149.12147205563	0.945070997626
0	23425	18151.263946696443	1.929314494555
0	23430	18152.691812502572	1.073872341495
0	23437	18154.000762013728	1.052856388036
0	23440	18154.91224439499	1.372056314497
0	23452	18161.906985240478	2.970995136928
0	23465	18165.068004268058	2.271364589003
0	23470	18167.328940836359	0.910687931906
0	23475	18168.913504533724	1.06013145959
0	23480	18174.637576721118	1.126125804987
0	23485	18184.82576270454	1.035562612023
0	23492	18192.634154218598	1.075099416263
0	23495	18193.747512120078	1.624670111955
0	23500	18196.597385057447	0.853762413096
0	23515	18204.755800258785	1.112910865992
0	23527	18207.262352512236	1.258457619015
0	23530	18208.161914676725	1.408532599138
0	23537	18216.220068395197	0.994327762537
0	23544	18217.294271118253	1.648271092151
0	23550	18219.181936830248	2.695455011086
0	23555	18221.643882395469	5.229386608622
0	23575	18236.350522671131	5.84308087299
0	23580	18237.616155278177	1.17960492149
0	23585	18241.467905924078	1.180512109865
0	23590	18245.48030950352	0.868795201834
0	23602	18266.403124276519	1.198361153156
0	23620	18271.206546602913	1.799620325231
0	23635	18277.630226186047	4.141359844414
0	23645	18281.901979546032	2.918216275184
0	23650	18305.766088351607	1.150391196925
0	23665	18319.589419816006	0.937743418943
0	23700	18344.901719122446	2.704162729903
0	23705	18352.121729304216	1.136991085857
0	23712	18380.429090330539	0.844568962231
0	23715	18381.50749965438	1.432272470064
0	23730	18386.997227832663	5.304414197828
0	23735	18391.606789515667	1.144417555071
0	23740	18394.718561693079	1.072617460601
0	23745	18399.493048935878	0.906752145849
0	23770	18421.413220240994	3.279474672861
0	23780	18430.39103827486	2.297108737732
0	23787	18432.0483304808	1.051662466209
0	23795	18433.937490021539	1.796773762076
0	23800	18435.190840814734	3.312848525002
0	23805	18439.85256369898	1.081418081746
0	23817	18450.764503075829	1.018579507433
0	23822	18451.915280434577	3.460535877976
0	23825	18452.995849548554	1.898573134012
0	23837	18469.38217814613	1.194615110382
0	23840	18470.294580972305	1.532372821543
0	23845	18475.731044261058	0.910168100987
0	23861	18486.93798357612	0.87530443329
0	23864	18487.95445133355	2.957799739391
0	23880	18506.704536837914	1.076567765512
0	23885	18510.618287141726	0.884628575202
0	23890	18512.330911605809	1.074960989971
0	23895	18513.835630925253	0.846710592136
0	23920	18524.322676608737	1.216116631969
0	23947	18532.826412702264	2.48046611842
0	23950	18533.63652496534	1.059936698821
0	23967	18540.485720819814	1.913203398083
0	23975	18543.351907086685	0.819006835669
0	23982	18549.366878440456	0.979725233372
0	23985	18550.394705254251	1.845274714036
0	23992	18554.910166744633	1.116606894229
0	24005	18558.547370577469	1.502657770259
0	24015	18579.588380826659	2.201884787124
0	24034	18584.287066688795	1.701150569396
0	24037	18585.393227512051	2.665033422845
0	24042	18586.548986603354	4.942522522435
0	24060	18592.99898226463	4.142436014677
0	24075	18599.879618415026	0.809020297229
0	24080	18609.044227490371	0.829096551333
0	24087	18612.619781475247	0.986117584631
0	24090	18613.674459336338	1.251951402014
0	24120	18631.718145480969	2.241289278384
0	24125	18633.254285658904	1.035815643147
0	24135	18644.497644757012	2.273133631092
0	24170	18656.453281009017	0.98435421288
0	24182	18665.818517173836	1.721387059105
0	24200	18677.955681772012	1.645683107629
0	24250	18718.85215915989	1.404246477736
0	24255	18729.173954688578	0.803726927843
0	24262	18735.337016036351	0.951209377311
0	24267	18736.280518680894	1.669116642812
0	24275	18738.045181513195	0.99731138361
0	24280	18740.46565200193	1.121748598199
0	24289	18748.234585577406	0.971141331829
0	24292	18749.426429359864	1.735487589037
0	24297	18750.420954076916	2.624063806945
0	24300	18751.556807568267	1.857446900315
0	24315	18758.635877666085	2.226402305926
0	24320	18761.26567692559	0.864557156339
0	24344	18778.478679438059	1.877178233602
0	24360	18785.637415893381	8.938344861736
0	24375	18794.88095319615	0.888309247792
0	24399	18800.747536902713	5.473078851671
0	24402	18801.588015663276	2.017679721403
0	24405	18802.601830576944	2.978267639218
0	24420	18817.712628464828	0.827858101763
0	24435	18828.018668093754	2.382922780558
0	24440	18847.439982352098	0.918200467806
0	24445	18852.807531015032	1.146114749834
0	24467	18861.045426077498	2.322176640756
0	24470	18862.003346055755	5.411397404038
0	24475	18870.367060987157	1.030961356219
0	24485	18883.167246290823	1.029533110466
0	24495	18890.490214915815	1.353483613418
0	24505	18908.211489736842	3.061419792825
0	24510	18911.686866225714	1.154333713464
0	24520	18914.073460475671	1.725339088633
0	24525	18924.928690853369	1.181450494658
0	24540	18944.278309729478	3.196575098578
0	24557	18958.102194680346	0.957538581826
0	24560	18959.171280605605	1.800615028678
0	24567	18960.514868394712	1.118791151326
0	24570	18961.359271744134	1.081626012874
0	24600	18983.346413792788	1.155547182541
0	24610	19008.561695896129	1.187831467576
0	24615	19016.249923597301	1.106080827862
0	24620	19017.604740303079	0.914126238972
0	24625	19019.060218502438	0.976864017826
0	24630	19021.715558305721	0.841896091308
0	24647	19037.949304686097	1.653199902339
0	24672	19044.650151780986	1.323959854257
0	24685	19053.530185546668	0.911342256051
0	24692	19056.897711373411	1.175873844698
0	24697	19057.805921709176	1.78325314656
0	24724	19064.25253503598	2.572814635038
0	24731	19065.077460374736	1.733078705289
0	24734	19065.966184078489	4.378356445787
0	24737	19067.006553314493	2.501633881604
0	24755	19076.979761426103	0.962972642388
0	24767	19086.269641017708	1.05535680959
0	24775	19090.739002192316	1.163552237116
0	24785	19096.245863091599	0.938930465654
0	24797	19098.681353341765	2.345692030134
0	24805	19100.881595027502	2.33652067072
0	24810	19103.562921582052	1.040682090539
0	24815	19109.634550279169	0.946230406966
0	24820	19112.988536137817	0.855622490868
0	24830	19119.768000293147	0.922975717299
0	24845	19130.897720213148	2.610860300824
0	24850	19134.924695008636	1.019554786943
0	24892	19152.288176428198	1.799563327909
0	24895	19153.277999581813	8.350501674352
0	24905	19157.189110404693	2.467225376159
0	24910	19173.88485100497	0.985935424268
0	24915	19179.73142223065	0.968112221826
0	24935	19186.78351179387	1.195312710408
0	24955	19192.07847912616	7.254090785136
0	24962	19204.711134508437	0.984857294708
0	24972	19206.857724815699	1.889226755499
0	24975	19208.044768215808	4.092783361095
0	24980	19211.679938043769	1.194353519194
0	24995	19235.976487137278	3.252736101308
0	25000	19246.516599050065	0.98301452361
0	25019	19258.129247847063	1.775474378082
0	25026	19259.214401525868	1.788552878415
0	25029	19260.113096880684	2.206441581643
0	25034	19261.078419948886	2.907504191984
0	25037	19262.136859578038	1.494946470933
0	25055	19276.198838695362	1.148917240463
0	25070	19280.478274629177	1.026117248274
0	25080	19283.111272485633	2.19682308756
0	25100	19299.280492831073	1.702868083736
0	25105	19307.713438679563	1.012763222679
0	25110	19312.013213356449	1.132372352201
0	25127	19323.711133032899	3.797293000652
0	25135	19326.534067850784	0.963472231477
0	25162	19350.786906675795	1.128374854289
0	25170	19354.019533933716	3.548845133483
0	25214	19392.995743777863	1.835168857679
0	25217	19393.813835460021	2.52420409161
0	25220	19394.685756503026	2.314496207259
0	25232	19410.662088754452	1.18393021021
0	25247	19414.544995545568	3.9529667408
0	25255	19422.359430485288	1.030333610158
0	25260	19424.705586602054	0.905653964449
0	25270	19436.378783843796	0.859444105811
0	25280	19445.941096097152	0.807038565539
0	25290	19450.898442673644	3.453411763233
0	25295	19456.153442361455	0.819728617836
0	25300	19459.573711202418	1.172628463712
0	25332	19474.881204585695	0.887087149266
0	25340	19477.471334438656	0.947962894663
0	25355	19492.584232398864	2.274809795361
0	25362	19496.273444227257	1.166268969886
0	25367	19497.096189321798	1.743256852456
0	25382	19502.83668289811	0.805846918188
0	25397	19509.379601288619	8.389705830813
0	25400	19510.559508650503	1.699394189304
0	25405	19520.369229496838	0.925050189625
0	25410	19529.061234683646	1.026940897666
0	25415	19535.858589896338	0.853754859697
0	25420	19537.309340839609	1.051596238092
0	25435	19544.163781069924	6.472658557142
0	25445	19555.293930490125	1.679868165211
0	25450	19575.017857393089	0.931942806207
0	25470	19589.580710850498	0.964524900261
0	25475	19593.617460258507	0.841786678415
0	25492	19600.00538203264	2.294105085129
0	25495	19600.975011321943	3.50938842206
0	25507	19605.692609012306	2.270428973988
0	25510	19606.868642509535	2.0075868653
0	25517	19608.253366823693	1.046296171378
0	25525	19613.761805532442	1.146206412558
0	25537	19621.954343478521	0.934822659381
0	25540	19623.028490688419	1.539448255621
0	25552	19627.761901372002	1.875248392092
0	25560	19629.776012568334	0.959915283974
0	25565	19634.225729500333	1.059840025567
0	25575	19639.767139856369	1.155514428485
0	25600	19662.03138875069	1.146542560123
0	25620	19668.724483911751	4.593411095835
0	25632	19677.647789401607	1.507201186958
0	25635	19678.715452525066	3.257811843418
0	25645	19689.569088550066	2.044224097023
0	25655	19701.961007661487	1.024472629988
0	25660	19703.60114336327	1.029956661351
0	25685	19719.589508703764	1.093502697628
0	25690	19724.489315621428	0.87984519517
0	25695	19733.396671455297	1.062599936035
0	25700	19736.613003321397	0.873803428933
0	25707	19758.788133519916	0.825285886135
0	25710	19759.929585320344	1.245255075119
0	25717	19769.611528935947	1.122163503151
0	25720	19770.506929496129	1.85695059025
0	25725	19780.675457696286	1.125692415051
0	25739	19796.063681674158	0.831642405782
0	25742	19797.223957949379	1.627386954447
0	25770	19811.816488969373	3.331779306658
0	25785	19833.412324919558	1.025606808439
0	25795	19848.082754901228	2.496175111384
0	25800	19851.301206880365	1.109619296063
0	25815	19864.823652380123	4.060783323342
0	25820	19868.247619258104	1.197847330477
0	25862	19888.269972532469	0.962940192875
0	25865	19889.318644579913	5.760090822097
0	25870	19894.449816728977	1.063366559055
0	25875	19896.751684202181	1.000013030414
0	25885	19910.197357098677	0.943901875893
0	25890	19918.572050331234	1.089517221227
0	25920	19929.927401425243	4.909285665095
0	25930	19948.141015785316	1.087799332943
0	25937	19955.134284298559	1.014550898597
0	25940	19956.292226286297	1.664583500676
0	25945	19957.658533813548	1.023663024325
0	25955	19963.324703981574	3.762785561141
0	25970	19968.157692605995	0.805124600884
0	25975	19970.102108221003	0.837709265575
0	25980	19974.16877005112	1.09591016937
0	26005	19988.921498999501	0.892494073045
0	26010	19990.213685517498	1.119037533458
0	26025	20014.005788960672	0.802479082998
0	26040	20035.723603000246	0.858693838865
0	26045	20046.694877800354	1.105888103601
0	26050	20055.922724962442	1.074879073631
0	26055	20062.623655213578	1.063116377592
0	26065	20064.811605877163	1.544933207251
0	26070	20070.317609533711	1.118170934077
0	26080	20083.153624607234	1.935176162564
0	26085	20091.350979061653	0.826369782817
0	26097	20098.711891254487	0.9223038489
0	26100	20099.756358480251	1.086673262127
0	26105	20101.416648470949	6.348377202337
0	26110	20120.388762739343	0.854327380005
0	26115	20126.159818956631	1.165653750952
0	26120	20131.849137683371	0.929269050714
0	26125	20133.005391451862	0.824700477161
0	26135	20136.097364286289	1.130737823527
0	26142	20137.519400857296	1.037687134556
0	26145	20138.562645680923	2.067330443577
0	26150	20141.657257926302	0.958190408908
0	26160	20154.531686162523	1.043227264751
0	26165	20157.066562595322	1.117275800183
0	26177	20160.561359522888	2.759312005841
0	26190	20163.718655701751	1.415284198305
0	26195	20172.147286884587	0.981587573513
0	26200	20173.612480945815	1.181952954829
0	26215	20208.387037340982	1.006930676941
0	26220	20209.819084130872	1.020916741993
0	26225	20213.906360757527	0.85856819246
0	26230	20216.494404354628	0.844931218587
0	26237	20226.636069291243	0.859699268173
0	26244	20227.779162030825	1.251768680206
0	26247	20228.763789532771	1.520205968096
0	26267	20233.76786892154	4.895940926217
0	26289	20237.431882896468	2.904995893937
0	26305	20241.421130940792	1.083764224725
0	26310	20243.590689910243	1.101739359926
0	26320	20252.948088096032	1.138842917886
0	26325	20254.177318006435	1.135487735923
0	26332	20265.193742322518	0.908622468449
0	26335	20266.031193755256	1.464165816184
0	26345	20277.588056737207	1.137553351466
0	26350	20280.203573132595	1.098960141279
0	26365	20294.144361056743	0.847182530165
0	26400	20306.566265270925	1.182176574692
0	26410	20311.027241837588	3.221829894141
0	26415	20313.317775831433	0.948809904046
0	26435	20326.202691644919	0.933094433136
0	26440	20340.91535554682	0.801992361527
0	26450	20352.980748647853	1.170640317909
0	26457	20357.021728662847	1.146931845322
0	26462	20358.191511134224	1.467382777908
0	26470	20359.980782128105	0.95881225749
0	26480	20363.687883198241	3.130343293047
0	26492	20372.896783649843	1.716689584879
0	26495	20374.02149021003	3.097415789869
0	26525	20400.245761441932	3.507221264172
0	26530	20421.130028842898	1.038461048808
0	26545	20433.044856507835	1.013865673542
0	26550	20436.698886149738	1.015970018506
0	26565	20457.808654636032	1.171945464052
0	26570	20459.231326156479	0.971459708642
0	26575	20469.483759631319	1.015290406905
0	26587	20478.123016371355	1.268522389019
0	26592	20479.063743688688	2.787092258036
0	26595	20480.179410696645	1.732973504765
0	26605	20493.984678980231	0.989091448393
0	26617	20496.476179411251	1.24628657561
0	26622	20497.379024507467	1.286619840015
0	26632	20499.118899698079	4.487891360094
0	26635	20499.953086822376	1.538067492796
0	26640	20502.399333464594	0.91518159043
0	26645	20511.142564129603	1.194992605038
0	26660	20516.580858534047	3.993170943497
0	26670	20524.849528355774	2.207139342929
0	26682	20529.807276452226	1.461306556863
0	26715	20547.850620224029	6.870578376557
0	26720	20548.897904163191	1.006704639643
0	26735	20552.744387087625	1.898537518428
0	26755	20565.723667659103	1.648953969238
0	26765	20577.823760056177	1.117295440566
0	26789	20594.141262295401	2.232610344365
0	26810	20599.244144856562	1.49473365238
0	26827	20612.5771799445	0.977905791998
0	26830	20613.545083080683	6.067577353457
0	26840	20617.321110895904	1.930926374549
0	26860	20631.811172438092	2.500493514087
0	26875	20660.238966934366	0.851337123197
0	26880	20668.083866590226	1.150431247894
0	26885	20673.60854976043	0.873066232912
0	26900	20698.313157328521	0.977204237413
0	26905	20706.363686008543	0.8119694422
0	26910	20710.2493966779	1.133948524483
0	26935	20738.75606903114	2.337280309036
0	26945	20746.937981213112	1.074306112807
0	26960	20758.42412571301	0.883633489162
0	26965	20765.793268553041	0.986059315782
0	26970	20773.868632332125	0.815403626766
0	26975	20780.065392202737	1.092439174186
0	26980	20782.506967985525	0.888400313072
0	26985	20796.71811396787	1.062068162486
0	26990	20798.116390036349	0.941188924015
0	26995	20799.207212751675	0.872489111684
0	27000	20804.767919425354	1.078884299565
0	27015	20821.986014255713	0.996196454298
0	27032	20839.250722570053	2.603018321727
0	27035	20840.448315098217	1.229046450305
0	27045	20849.624002499157	1.314506429117
0	27050	20851.016787702033	3.420383205708
0	27060	20856.35778308086	0.92212166395
0	27070	20861.477426510368	3.63666143493
0	27089	20873.959286085815	1.766186911331
0	27105	20885.586201376114	1.078031966276
0	27115	20889.77991048397	0.811352477409
0	27125	20895.440032893976	0.966159792431
0	27135	20899.54467349687	7.25460572353
0	27140	20902.472082583756	1.193708951864
0	27145	20924.334381807409	1.065064470377
0	27160	20934.516072848099	3.56704106977
0	27167	20939.940155342377	1.129192582332
0	27175	20957.010162886926	0.819047269132
0	27180	20960.402491240704	0.891624202579
0	27185	20961.722671311425	1.13056664383
0	27200	20970.166207123647	0.815524721518
0	27220	20978.970724928476	1.040850841068
0	27225	20980.155959939313	0.863921970688
0	27235	20983.46794248394	1.414308304999
0	27240	20985.292279353197	1.101528754551
0	27272	21004.353787572765	1.473114674454
0	27275	21005.168307727845	4.645182111333
0	27280	21016.944285940478	0.97144282423
0	27307	21040.541006134028	1.656335678618
0	27310	21041.553569223682	2.390372675206
0	27315	21043.972133045153	1.149407273065
0	27342	21077.750496867936	3.107111065601
0	27350	21090.999160897285	0.974733954575
0	27360	21096.645957158693	1.158644618466
0	27367	21097.681299964032	0.858993802965
0	27370	21098.754356329209	1.770103337032
0	27375	21101.098827864725	0.896143133659
0	27385	21105.63509229634	1.188114256132
0	27410	21121.628502828855	0.967698926013
0	27415	21122.733494889238	0.803657451179
0	27447	21136.707926396477	3.37047198824
0	27460	21167.150161729456	2.672018062304
0	27465	21182.263545228399	1.006360062398
0	27475	21193.569719687546	0.873859687895
0	27495	21206.215764625872	1.127762198728
0	27500	21211.940498088933	1.034043364879
0	27510	21219.565666504138	3.721288772532
0	27525	21238.366197677098	4.844468083529
0	27550	21248.092294424627	1.350162169205
0	27557	21249.411548191555	0.829244570341
0	27567	21253.634182160776	7.383331681803
0	27580	21277.909488616216	1.177972014435
0	27590	21287.626032942461	0.968488282897
0	27602	21294.152239707773	2.621293968226
0	27605	21295.019622399667	1.753697303538
0	27625	21310.704429930528	0.819573576376
0	27630	21313.428494268168	0.811706271954
0	27652	21332.651567109402	2.193446730583
0	27655	21333.50282556881	1.587108771413
0	27660	21336.250931270195	0.973940336145
0	27665	21338.54923701846	1.021621965244
0	27675	21365.495802671136	0.829859691951
0	27695	21378.183547084382	4.795227174217
0	27700	21383.489855020916	1.15930185793
0	27705	21391.567679596158	0.97833832968
0	27710	21398.902216619534	1.092426378932
0	27715	21405.087244448441	1.02247728603
0	27725	21408.948476284961	2.503198867521
0	27730	21413.274319122347	1.122885702644
0	27735	21414.897308805969	1.025979065709
0	27745	21421.655439987511	1.151060730316
0	27754	21424.435298163466	1.141903892066
0	27760	21426.331693944543	2.592437349595
0	27772	21430.128805424787	1.257795851501
0	27775	21431.007213283472	11.057273621429
0	27780	21433.00629755036	1.138531286921
0	27795	21438.705588377424	4.516117133297
0	27800	21441.918531273883	1.0920645006
0	27819	21449.822189951705	1.783054892871
0	27822	21450.963921193423	2.941516320604
0	27830	21454.868109449624	0.860322738998
0	27845	21459.525705023274	1.099784284771
0	27867	21473.853339898465	1.615906949677
0	27880	21478.446478818727	0.908212230168
0	27890	21484.955029404348	1.935998947757
0	27902	21487.176324765319	1.341725425747
0	27907	21488.025526508996	1.243871612703
0	27915	21491.213680259827	3.806196601616
0	27930	21502.170013111234	0.945978072751
0	27935	21509.907008874221	1.050747616123
0	27945	21514.838308182709	0.852054431755
0	27955	21518.186549086986	1.89780196176
0	27975	21541.935812559022	1.090191362798
0	27980	21543.501032848113	1.131225066073
0	27987	21545.520534137111	1.074045637436
0	28000	21556.796180937781	0.873617203906
0	28005	21561.637900985633	0.940623374935
0	28020	21580.545356600922	1.177754027676
0	28062	21612.574116059916	1.034540315159
0	28075	21625.762032642851	2.129768628569
0	28100	21648.07933452254	0.862623540033
0	28105	21653.928506864795	0.892157167662
0	28110	21654.840389887395	0.885438634269
0	28115	21656.592337284297	1.004446377046
0	28150	21680.078069317051	1.1680869202
0	28160	21682.299755959409	1.403501616801
0	28165	21701.595596931705	1.162157562282
0	28170	21705.538847378836	0.967433990445
0	28180	21712.474004774207	2.120957064717
0	28185	21715.812166589092	1.14304569317
0	28190	21718.011389307725	0.960259354953
0	28220	21739.017045253325	1.572638044925
0	28235	21746.256572552312	2.392658767819
0	28242	21751.849873406459	1.019315496553
0	28275	21769.782032475558	0.873447181843
0	28280	21781.779453157834	1.032684173621
0	28290	21792.57832114257	2.864619164134
0	28310	21800.987068569564	1.140850638697
0	28315	21803.096690938944	5.681022080093
0	28320	21812.795983893483	1.097580695245
0	28325	21817.32625476633	0.951922286395
0	28330	21820.718865602515	1.087474429142
0	28335	21822.953854110469	0.967911362089
0	28342	21824.351615428353	1.028761316091
0	28345	21825.32292519909	1.117342199152
0	28350	21839.721502803339	1.161648014653
0	28355	21844.252206609172	1.051817398891
0	28360	21850.091190328932	0.867983145081
0	28365	21853.856206635672	1.116812192276
0	28390	21871.687350694243	0.944663893618
0	28395	21874.638968676662	0.995315706357
0	28400	21875.652151950023	1.003110539168
0	28405	21877.150892020688	0.917058106419
0	28410	21878.719231873173	1.044364583772
0	28415	21881.354673308685	0.911461858358
0	28425	21892.732030629242	1.062340983469
0	28430	21897.089404025802	7.402545377507
0	28440	21908.073680392204	0.812274440192
0	28445	21914.546681463586	1.103158306889
0	28482	21932.794584830627	9.493724074556
0	28485	21933.926090724263	3.169801860245
0	28510	21964.471509217938	1.053351926059
0	28520	21973.12056623887	2.367398906439
0	28527	21977.011779137142	0.862643561698
0	28530	21977.845521078166	1.681156851416
0	28535	21979.053043912246	0.807475975342
0	28555	22004.171126260804	0.989389001485
0	28560	22006.337564132993	0.820697102882
0	28570	22026.700936856699	4.729341936839
0	28597	22038.728070609803	2.559299468154
0	28610	22049.68527114199	1.027798186801
0	28632	22073.531142176685	5.003389155206
0	28642	22075.671921291851	1.89286930744
0	28645	22076.806036956512	1.747615812562
0	28660	22093.30881772339	1.016018932499
0	28690	22114.978225634152	4.426712022012
0	28700	22125.058342763153	1.186517335754
0	28705	22128.8787624899	0.807310837321
0	28710	22131.059854363116	0.986938637588
0	28722	22136.513669851603	1.00110523147
0	28725	22137.462776797725	2.904622443951
0	28737	22141.375337688634	0.822942959131
0	28750	22145.447234806293	1.258838238996
0	28760	22153.643243512024	1.934532810113
0	28765	22169.0088484536	0.919790779427
0	28770	22171.393158216658	1.093557210732
0	28775	22176.415056950618	0.966654978972
0	28782	22184.380002483453	1.174974327721
0	28785	22185.194161082066	1.360735531184
0	28790	22187.574518887553	1.166004183795
0	28795	22190.200903565627	1.179336388037
0	28815	22203.060325844031	0.802490881737
0	28825	22208.815017902103	0.966936114896
0	28830	22211.605597084335	1.044760764018
0	28845	22224.755263465895	1.055105569772
0	28862	22241.526197439227	0.910434510652
0	28870	22243.203892116881	1.343960117266
0	28880	22252.539544694749	0.835399178136
0	28885	22257.254786450774	1.113228187896
0	28890	22260.122309939479	0.918336144369
0	28915	22270.513371792815	0.808863335848
0	28925	22279.508934098246	0.857142202184
0	28932	22282.587687808064	0.98808569219
0	28935	22283.601580857088	1.392878177867
0	28955	22294.483217724403	1.011029896885
0	28965	22307.080072669932	1.05895295674
0	28985	22331.657223946682	1.735836493612
0	28995	22335.514007905845	1.068090531882
0	29010	22351.815704705369	2.956972347852
0	29027	22355.288644557974	0.973227705155
0	29030	22356.16583025471	3.712986074079
0	29035	22364.068956226232	0.939969811402
0	29040	22365.812640533936	1.015811314899
0	29045	22367.049170144228	1.111832333636
0	29050	22371.049430890257	0.898321682401
0	29057	22377.258320534619	1.161551885866
0	29077	22382.370768789272	3.172026141639
0	29089	22406.760048428395	1.14103961857
0	29097	22408.999550161542	2.310035154399
0	29105	22411.251482754592	5.235181433313
0	29135	22424.548819501465	2.681968177301
0	29140	22439.465902233298	0.867528199125
0	29152	22457.294537482271	1.776127144079
0	29165	22501.228482890729	1.499770795913
0	29177	22506.685596088104	2.517527722434
0	29180	22507.548286437772	1.754111747374
0	29192	22510.842543982406	0.949098319919
0	29207	22520.56552604979	1.948424891558
0	29240	22567.355203713039	1.083449839614
0	29250	22578.512804745414	0.921188021917
0	29255	22580.893651695675	1.007783858664
0	29265	22592.551842442963	1.126310545448
0	29272	22598.518587181025	0.923772610631
0	29295	22635.105855228664	0.851809508819
0	29300	22642.216178087762	0.95778671205
0	29310	22665.652807390758	0.907922512759
0	29317	22669.256025828285	1.016457198374
0	29322	22670.1401140885	1.367704616737
0	29325	22671.078581532514	1.64371297732
0	29330	22674.65363408421	0.914360165875
0	29342	22686.678240367138	1.04983199602
0	29345	22687.504296241627	0.935405528063
0	29355	22697.858036797874	1.039319674764
0	29360	22700.677866185667	1.114295515139
0	29370	22713.301075109433	1.147701873351
0	29377	22714.640321642614	1.036129783839
0	29380	22715.637008208769	1.633537289522
0	29410	22732.681948223177	3.651132224585
0	29415	22737.037288426406	0.883365521487
0	29425	22751.273881110661	0.869947788306
0	29430	22752.99516071898	1.045068178605
0	29435	22756.62962140016	1.029070375115
0	29440	22760.713224152225	0.882309728116
0	29445	22764.272671535327	1.002388483472
0	29450	22770.079541840044	1.121328854281
0	29460	22783.124695031859	1.168990917597
0	29480	22795.522989075571	2.516617451711
0	29485	22805.28801918866	0.929576001596
0	29490	22815.17594346279	1.051907756086
0	29532	22840.828477308494	1.467721183344
0	29537	22841.826347249155	1.404817153846
0	29540	22842.635546059036	0.946152018165
0	29555	22855.644817600882	1.874057204934
0	29572	22863.325098129234	7.323776149182
0	29580	22865.196445391665	1.402742543178
0	29600	22896.178365124537	0.972104509175
0	29615	22916.080858695785	4.815944412483
0	29620	22918.66712980908	0.95657106787
0	29642	22967.797518843805	1.145914059319
0	29655	22980.218410010712	2.703091954332
0	29682	22989.947900528962	3.609645186831
0	29694	22991.988201025444	1.739237209018
0	29699	22992.994327698498	5.459272105469
0	29720	22998.921920798913	3.852951676514
0	29750	23020.173797008841	0.893664887641
0	29759	23023.239721447149	1.121974870283
0	29762	23024.150357589325	1.960661292114
0	29787	23056.448965443068	0.898248845218
0	29790	23057.622819879421	1.520191798885
0	29802	23061.788290195522	2.617932373462
0	29810	23064.955408033141	4.016446028743
0	29825	23079.487163311456	1.028755993396
0	29842	23083.21529447698	0.997544613853
0	29845	23084.222531471317	4.312952703045
0	29862	23091.479658337129	2.262747063084
0	29865	23092.355119771981	1.760823380893
0	29875	23108.380273014114	0.837226765323
0	29882	23111.104029636799	1.179140298069
0	29894	23115.524314964712	1.192161556333
0	29899	23116.354484483563	1.097806284487
0	29902	23117.259418057334	1.750098457451
0	29925	23126.702948755527	11.071169827666
0	29935	23131.177564704011	2.282465617315
0	29945	23135.77426171326	1.102816240396
0	29975	23158.040252257836	10.505575602185
0	30027	23204.036966445368	1.314117457745
0	30040	23218.330326766196	0.83608202152
0	30045	23222.103363751497	1.056302031968
0	30060	23236.763469685166	0.991251106894
0	30072	23240.725399185494	1.979143483863
0	30080	23243.014030525831	3.673056578195
0	30090	23263.307865375042	0.836283133738
0	30095	23267.126646282071	1.12768078614
0	30107	23276.290747234639	1.196461429398
0	30110	23277.457400378999	3.124208264799
0	30115	23279.790321150931	0.985215384886
0	30125	23284.025441206014	2.535796073462
0	30130	23284.933511699618	0.864057719428
0	30135	23286.644542742179	0.9651057465
0	30145	23298.996034374361	0.941601325851
0	30150	23301.556456394489	0.993285922986
0	30165	23307.741808698144	1.691746928207
0	30200	23332.030309880962	1.113547652308
0	30205	23333.793361640788	1.143302632775
0	30220	23349.06712649014	2.370244384938
0	30225	23350.198769123776	0.967793768924
0	30262	23366.117072621168	5.184686489405
0	30265	23367.098169581958	1.725976131259
0	30272	23371.587475222365	1.109815225843
0	30275	23372.547141454012	1.154671079113
0	30280	23393.494522219079	0.914619897492
0	30285	23395.307578145274	0.964099229034
0	30290	23398.150588893001	1.083559678774
0	30300	23402.362497766518	1.083049813671
0	30310	23410.440217110764	1.120438653044
0	30317	23419.022999642835	0.930000016931
0	30347	23431.441329359893	2.572887725438
0	30355	23434.780885224583	1.101343629789
0	30360	23441.915242599791	1.083488781564
0	30377	23455.449205750809	3.532005860609
0	30410	23499.730708140299	1.406803596405
0	30417	23502.205715251728	1.036474912241
0	30425	23508.886136924294	1.00408554133
0	30435	23518.285321428471	1.832988675949
0	30440	23522.280542995902	1.096127870493
0	30460	23534.099820090627	1.015047486778
0	30485	23554.815427450054	1.903431717464
0	30505	23561.929905379023	1.126428428222
0	30510	23569.508405511761	0.905676612258
0	30530	23584.885215457282	1.780171633546
0	30542	23592.320590749787	1.056602496095
0	30547	23593.496887671513	1.737439478794
0	30552	23594.637114634023	1.83242201736
0	30565	23598.980965643143	4.770940393952
0	30572	23600.859011696062	1.13566115927
0	30602	23614.264013127575	0.963183302459
0	30630	23625.335405063966	1.093848099094
0	30655	23662.869810481952	1.61700055339
0	30660	23664.769541130227	1.152482717577
0	30675	23673.818256817318	3.164824479531
0	30697	23687.093932418735	1.638338150507
0	30707	23688.88232444909	6.597994244123
0	30710	23689.763847908588	3.566076787843
0	30747	23708.271207264209	0.834160176106
0	30762	23711.834724134582	2.008383945923
0	30767	23712.691662812794	1.951099862761
0	30777	23715.195849564637	3.023646014583
0	30785	23718.183683360273	0.862538605835
0	30790	23722.269381318097	1.164853153192
0	30805	23728.987340789999	5.339176295643
0	30810	23733.166400954791	0.982548823114
0	30817	23737.859135837151	1.029782573972
0	30825	23740.887120610104	1.007541925367
0	30830	23742.502971360098	1.170669541135
0	30835	23744.419301238795	1.028221254423
0	30845	23751.657320510569	1.194962990563
0	30865	23768.813184665212	2.647452393024
0	30885	23809.241249733038	1.087678692583
0	30905	23839.946326532709	0.879238768201
0	30915	23847.649915385595	2.695705810662
0	30920	23851.220794374724	1.058937792294
0	30930	23860.422123135954	0.953168060724
0	30935	23862.491804923769	0.882772849221
0	30940	23863.604533647138	0.851357886009
0	30947	23866.823071817068	1.002196007967
0	30950	23867.784061165379	1.380690194581
0	30955	23878.661125101408	1.189702799078
0	30970	23892.510900566922	4.669774880261
0	30980	23896.957504465248	4.172685219673
0	30985	23902.20004693874	0.900537133869
0	30992	23917.99927384772	1.075845598802
0	31005	23928.480166286713	0.829489833023
0	31010	23932.93427151608	1.15214006016
0	31015	23951.674850054271	1.160448385775
0	31025	23975.466272617347	1.151812375151
0	31037	23979.33462498875	1.084281783085
0	31045	23981.354860453864	5.697786771376
0	31065	23991.236547437333	3.065390430606
0	31070	23996.786041974923	0.802981213946
0	31085	24006.162370816631	1.008094370551
0	31104	24016.003320636178	1.126109498275
0	31107	24016.904266865502	1.714110267068
0	31125	24021.567315300188	0.896528856829
0	31135	24043.762135972576	0.890233663842
0	31145	24056.247182371212	0.842712559924
0	31152	24067.66663959205	1.10649914993
0	31155	24068.49443002913	0.885104328685
0	31172	24088.538296869497	1.23794373242
0	31195	24123.878783507927	0.977280697692
0	31215	24134.6255402932	1.108404414449
0	31225	24164.142678792588	1.115403550025
0	31230	24166.930532054943	1.171496978123
0	31250	24199.907910115305	1.031741926802
0	31255	24202.650475082643	1.136129832175
0	31280	24228.280250597047	0.842053145822
0	31285	24239.777466082211	0.871467234846
0	31297	24265.627761139476	0.928359857015
0	31300	24266.456993349676	1.647036904792
0	31310	24285.745340292333	1.158325402811
0	31317	24301.987338168801	0.815750726033
0	31327	24303.917795908365	1.05332026761
0	31330	24304.853399249266	1.116615056315
0	31335	24311.308881149286	0.898200229742
0	31347	24319.338167078775	1.560533680162
0	31350	24320.228396414295	3.070219194516
0	31370	24337.33367184303	1.131183485518
0	31375	24340.691965336163	0.813295550086
0	31380	24348.294569767124	0.986436416022
0	31385	24357.27707275505	0.98922924269
0	31397	24374.235067514347	1.163476767857
0	31400	24375.227429721987	1.694769606548
0	31410	24388.281737905268	3.299749408331
0	31415	24390.766934188979	0.944074512925
0	31420	24399.797820324075	0.955283583421
0	31425	24409.329093605451	1.120290701557
0	31432	24411.119211006316	1.150380652491
0	31435	24412.050695055688	1.706691300159
0	31440	24414.251677960121	1.037762946077
0	31470	24449.692184189932	0.938010210451
0	31480	24451.719509924523	1.194717809734
0	31495	24455.303644890153	5.49972038349
0	31507	24473.62619454639	1.187528520543
0	31520	24478.422022307103	0.856026569381
0	31525	24486.004211665596	1.103478604183
0	31530	24489.765655019816	0.871871769056
0	31540	24497.042328889017	2.231863511591
0	31545	24509.888250725058	0.87220305698
0	31585	24544.161973582569	0.859177084174
0	31595	24547.653473577346	2.41103265421
0	31605	24552.814948732484	1.169584163185
0	31610	24557.534594524741	0.804990418442
0	31635	24579.518389658366	2.001641955959
0	31645	24587.331652008003	3.062975613595
0	31654	24589.717389867053	1.042857195251
0	31657	24590.796691563789	1.281228957841
0	31675	24618.091545865324	5.589631857501
0	31722	24662.412384544464	3.16082502408
0	31727	24663.216882394778	1.36920179888
0	31745	24679.458686926695	1.103844285198
0	31752	24686.763630632451	1.130429429468
0	31757	24687.892592770653	1.913069675364
0	31762	24688.777442415385	1.637093681888
0	31765	24689.608332956816	1.379946929971
0	31792	24703.754065880641	2.313750498394
0	31802	24705.853737709295	2.083516183742
0	31825	24715.048490230989	1.295833496393
0	31845	24726.552970585401	1.061054196581
0	31875	24740.058945399021	12.657807581494
0	31880	24747.016021325774	0.864504745137
0	31885	24757.310327396529	0.936371107306
0	31890	24774.319182089959	0.828909812775
0	31902	24786.439643395702	1.182299295257
0	31915	24798.413700248724	0.841248136293
0	31920	24801.252648467649	1.116170243639
0	31940	24812.408715472414	3.77163159318
0	31950	24816.923736960236	3.548943134704
0	31955	24822.794471931736	0.875431624986
0	31960	24829.909586843382	1.039190245513
0	31975	24844.597690198138	0.935729597881
0	31990	24863.011292934737	1.020192733299
0	31995	24864.595069566162	1.096584126912
0	32010	24869.869103098086	0.903904259857
0	32015	24870.780639718789	4.401747124203
0	32027	24874.084781886618	1.26196135575
0	32040	24888.589061032934	0.974764012452
0	32055	24897.624478298902	2.041498063039
0	32060	24900.922877212567	0.908911314886
0	32065	24902.420884171431	0.917328336742
0	32070	24906.998335375218	1.193407290522
0	32105	24948.942120027338	5.295965592532
0	32110	24951.233482233232	0.94074761942
0	32115	24955.425301688213	0.850703909993
0	32125	24960.098134401228	1.293284127847
0	32137	24974.958499803836	0.892087011226
0	32140	24975.902996275643	1.323351558078
0	32155	24984.330896006062	1.294439210397
0	32182	25001.997305034957	10.89988175601
0	32190	25003.974121672306	1.590056046589
0	32205	25013.577787844418	4.705750977356
0	32210	25017.25704499506	1.159639001451
0	32215	25020.042924227183	0.860152977705
0	32257	25080.801666175779	2.797194798849
0	32272	25085.586246647852	1.751916204133
0	32280	25092.248314129343	1.097387662716
0	32292	25094.458092960531	1.160817905624
0	32325	25122.758151149365	0.955130568147
0	32370	25166.452801538708	2.458873885066
0	32389	25171.903776122221	1.95679709656
0	32392	25173.044867795297	1.956589514249
0	32405	25183.087995423174	0.928184725344
0	32410	25194.302744934753	1.166559650004
0	32415	25202.88146457694	0.932493059896
0	32420	25209.009497841677	1.026882494707
0	32425	25213.501534874331	1.003879540879
0	32435	25221.547131091379	0.941126161162
0	32445	25229.222331600006	2.975478151703
0	32465	25238.83176528282	1.027500101458
0	32472	25247.907958530875	1.191030260175
0	32475	25248.800978369786	1.455940611536
0	32480	25250.520375152705	1.099492089916
0	32485	25260.676771441785	1.151231763419
0	32495	25266.003533854982	3.078865562137
0	32500	25267.005836909022	0.969685169682
0	32510	25289.102370305813	1.075275180582
0	32550	25299.550342356103	2.722510927543
0	32557	25300.873395016542	1.17856421303
0	32602	25325.05422759186	1.289390863396
0	32605	25326.234230217985	2.078959519389
0	32617	25330.032942252408	3.148651332389
0	32655	25343.789219187727	0.975939753372
0	32660	25354.217961098081	0.834946066327
0	32682	25361.117714795357	2.937354600616
0	32690	25368.134850942416	0.914741815347
[...]
7	22771	17729.76148358129	0
7	22780	17731.345230188473	1
7	22781	17731.745362418071	0
7	22820	17749.120982398049	1
7	22821	17749.373918073512	0
7	22850	17759.794038088433	1
7	22851	17760.731420344359	0
7	22870	17781.019790254068	1
7	22871	17781.068983672659	0
7	22895	17797.77304283849	1
7	22896	17797.881783368094	0
7	22955	17850.493453112266	1
7	22956	17850.648495226227	0
7	22965	17865.683428212068	1
7	22966	17865.836868794087	0
7	23027	17913.245794342108	1
7	23031	17914.193581326253	0
7	23052	17929.489458017924	1
7	23056	17931.334246566318	0
7	23070	17936.512780912035	1
7	23071	17937.262993780091	0
7	23100	17947.036040096571	1
7	23121	17952.057741404894	0
7	23130	17953.417987352851	1
7	23131	17953.801765979744	0
7	23160	17968.679616203265	1
7	23161	17969.248318426769	0
7	23167	17970.253268770661	1
7	23171	17971.360750062943	0
7	23235	18010.582454494235	1
7	23236	18011.289842155248	0
7	23255	18015.749276409992	1
7	23261	18017.405814627766	0
7	23280	18027.864586763272	1
7	23281	18028.12507346761	0
7	23295	18037.104744054112	1
7	23296	18037.836074409651	0
7	23360	18091.649044167144	1
7	23361	18092.526354274471	0
7	23415	18148.462706437608	1
7	23416	18149.12147205563	0
7	23450	18161.80392358223	1
7	23451	18161.906985240478	0
7	23600	18266.213228079501	1
7	23601	18266.403124276519	0
7	23760	18418.492038713861	1
7	23761	18419.236971159167	0
7	23850	18485.961729307493	1
7	23857	18486.727964568576	2
7	23863	18487.95445133355	1
7	23866	18488.899347531148	0
7	23905	18518.639477904216	1
7	23906	18518.987177879555	0
7	23930	18527.313806285281	1
7	23931	18527.403487950412	0
7	23965	18539.765422862723	1
7	23966	18540.485720819814	0
7	23990	18554.51460794142	1
7	23991	18554.910166744633	0
7	24020	18582.075984635756	1
7	24021	18582.504288228821	0
7	24040	18585.667524076242	1
7	24041	18586.548986603354	0
7	24100	18620.141824966322	1
7	24101	18621.144408379811	0
7	24145	18648.651666407659	1
7	24147	18648.748744986503	2
7	24148	18649.396918940294	1
7	24152	18649.58686365273	2
7	24153	18650.33739534163	1
7	24157	18651.105184972754	2
7	24158	18651.191105983528	1
7	24161	18652.218542121007	0
7	24180	18665.000699755802	1
7	24181	18665.818517173836	0
7	24225	18707.341216978213	1
7	24226	18707.504445279005	0
7	24230	18708.338474647497	1
7	24231	18708.503003594547	0
7	24240	18716.292314803938	1
7	24241	18716.886604838239	0
7	24265	18735.975894503047	1
7	24266	18736.280518680894	0
7	24335	18776.275703631119	1
7	24346	18779.570692516987	0
7	24450	18857.0641095096	1
7	24451	18857.710701865432	0
7	24530	18941.364214974088	1
7	24531	18942.278041107083	0
7	24640	19036.250391373485	1
7	24646	19037.949304686097	0
7	24655	19039.688343055704	1
7	24656	19040.519737500654	0
7	24670	19044.341532445972	1
7	24671	19044.650151780986	0
7	24675	19044.689923717384	1
7	24676	19045.805509324365	0
7	24695	19057.641381686011	1
7	24696	19057.805921709176	0
7	24705	19061.138388921186	1
7	24706	19061.245186048055	0
7	24710	19061.248347008912	1
7	24736	19067.006553314493	0
7	24745	19070.585063317768	1
7	24746	19071.302403130624	0
7	24765	19085.514041194102	1
7	24766	19086.269641017708	0
7	24870	19146.338452550027	1
7	24871	19146.612704949971	0
7	25024	19259.018454508723	1
7	25036	19262.136859578038	0
7	25085	19295.409809410215	1
7	25086	19296.117336724284	0
7	25090	19296.236785315502	1
7	25091	19297.274993705614	0
7	25125	19322.890237872163	1
7	25126	19323.711133032899	0
7	25185	19363.896562559851	1
7	25186	19364.396494001053	0
7	25245	19413.735776094124	1
7	25246	19414.544995545568	0
7	25310	19465.909653307471	1
7	25311	19465.939482361671	0
7	25330	19474.794821047396	1
7	25331	19474.881204585695	0
7	25365	19496.317056917129	1
7	25366	19497.096189321798	0
7	25515	19607.902158348764	1
7	25516	19608.253366823693	0
7	25547	19626.214725461058	1
7	25551	19627.761901372002	0
7	25675	19716.032654694134	1
7	25676	19716.073417775958	0
7	25737	19795.71047596284	1
7	25741	19797.223957949379	0
7	26175	20160.434148592133	1
7	26176	20160.561359522888	0
7	26180	20160.87793626598	1
7	26181	20161.64612414653	0
7	26240	20226.741423585929	1
7	26246	20228.763789532771	0
7	26265	20233.520833764006	1
7	26266	20233.76786892154	0
7	26270	20234.292683703098	1
7	26277	20234.840443469788	2
7	26278	20235.707802305005	1
7	26282	20235.963688715727	2
7	26288	20237.431882896468	1
7	26291	20238.596463507235	0
7	26295	20238.668087612676	1
7	26296	20239.612536244288	0
7	26370	20296.761939292804	1
7	26371	20297.702160987127	0
7	26375	20297.844063197724	1
7	26376	20298.607007292713	0
7	26380	20299.082628523006	1
7	26381	20299.62718602145	0
7	26385	20299.993715281576	1
7	26386	20300.586046555041	0
7	26390	20300.61493645204	1
7	26391	20301.574062596037	0
7	26420	20316.809890417947	1
7	26421	20316.840916945578	0
7	26460	20357.112356481517	1
7	26461	20358.191511134224	0
7	26555	20438.71774351066	1
7	26556	20439.603738083234	0
7	26620	20497.19896905967	1
7	26621	20497.379024507467	0
7	26680	20529.191443789244	1
7	26681	20529.807276452226	0
7	26725	20549.898993615699	1
7	26726	20550.667286767558	0
7	26740	20557.675705314292	1
7	26741	20557.887036541338	0
7	26782	20592.18865328534	1
7	26787	20593.951693648745	2
7	26788	20594.141262295401	1
7	26791	20595.264690345457	0
7	26800	20596.398764204821	1
7	26801	20597.364711861504	0
7	27075	20871.814953966097	1
7	27076	20871.882113303171	0
7	27080	20872.086541736591	1
7	27087	20872.849137222028	2
7	27088	20873.959286085815	1
7	27091	20874.804805842713	0
7	27165	20939.720684110236	1
7	27166	20939.940155342377	0
7	27340	21077.568241675137	1
7	27341	21077.750496867936	0
7	27435	21134.026564216143	1
7	27436	21134.777037108979	0
7	27445	21135.906442501004	1
7	27446	21136.707926396477	0
7	27535	21240.713292608961	1
7	27536	21240.998798371048	0
7	27565	21252.859524237087	1
7	27566	21253.634182160776	0
7	27610	21296.611176471376	1
7	27611	21297.059608328834	0
7	27680	21367.876297636839	1
7	27681	21368.435744576099	0
7	27805	21447.370389797025	1
7	27821	21450.963921193423	0
7	27835	21456.996604830088	1
7	27836	21457.505403439585	0
7	27865	21473.058461360622	1
7	27866	21473.853339898465	0
7	27985	21544.988047358748	1
7	27986	21545.520534137111	0
7	28060	21611.806421803008	1
7	28061	21612.574116059916	0
7	28080	21628.104766079568	1
7	28081	21629.137261734395	0
7	28140	21677.339212679388	1
7	28141	21678.077508739185	0
7	28205	21733.812593543683	1
7	28206	21734.772406005012	0
7	28240	21751.283975131471	1
7	28241	21751.849873406459	0
7	28250	21753.599050247428	1
7	28251	21753.645492721848	0
7	28265	21763.367326621641	1
7	28266	21763.678888798762	0
7	28500	21952.047416803899	1
7	28501	21952.978241635206	0
7	28595	22038.014420747884	1
7	28596	22038.728070609803	0
7	28600	22039.01800213356	1
7	28601	22039.737918762556	0
7	28630	22073.044812133775	1
7	28631	22073.531142176685	0
7	28735	22141.044441946661	1
7	28736	22141.375337688634	0
7	28860	22240.74181967625	1
7	28861	22241.526197439227	0
7	28905	22265.697869523366	1
7	28906	22266.520701604743	0
7	28975	22328.991250964617	1
7	28976	22329.669349723297	0
7	29000	22349.565323424702	1
7	29001	22349.941906999227	0
7	29015	22352.626130691799	1
7	29016	22353.377284120115	0
7	29055	22376.953714068315	1
7	29056	22377.258320534619	0
7	29065	22379.317271903853	1
7	29067	22379.815348088163	2
7	29068	22380.194273577422	1
7	29076	22382.370768789272	0
7	29150	22456.456172298436	1
7	29151	22457.294537482271	0
7	29190	22510.61873210881	1
7	29191	22510.842543982406	0
7	29205	22519.8932764845	1
7	29206	22520.56552604979	0
7	29210	22520.992974866278	1
7	29211	22521.652137631384	0
7	29215	22521.762025134682	1
7	29216	22522.801624649038	0
7	29220	22523.406040746152	1
7	29221	22523.762162815334	0
7	29225	22524.426810650598	1
7	29226	22524.945541279318	0
7	29270	22597.731680230146	1
7	29271	22598.518587181025	0
7	29400	22730.004758981929	1
7	29401	22730.101075341587	0
7	29500	22831.519778530109	1
7	29501	22832.254371726756	0
7	29515	22836.850574949338	1
7	29516	22837.007341480548	0
7	29570	22862.737842479086	1
7	29571	22863.325098129234	0
7	29640	22967.750611596729	1
7	29641	22967.797518843805	0
7	29665	22986.619657713125	1
7	29666	22987.326060373371	0
7	29687	22990.391585069495	1
7	29697	22992.541141873252	2
7	29698	22992.994327698498	1
7	29701	22993.960632901675	0
7	29740	23018.034781154107	1
7	29741	23018.258270910568	0
7	29757	23022.216031746328	1
7	29761	23024.150357589325	0
7	29770	23034.623752333483	1
7	29771	23035.394798528593	0
7	29880	23110.110844757843	1
7	29881	23111.104029636799	0
7	29915	23122.61564699239	1
7	29916	23123.023666878169	0
7	30010	23196.328935647469	1
7	30011	23196.842190421352	0
7	30022	23202.740701629979	1
7	30026	23204.036966445368	0
7	30155	23305.574893509816	1
7	30156	23305.970801598304	0
7	30245	23361.346756707427	1
7	30246	23361.986171475976	0
7	30315	23418.213560618546	1
7	30316	23419.022999642835	0
7	30345	23430.42174540826	1
7	30346	23431.441329359893	0
7	30375	23455.235177302019	1
7	30376	23455.449205750809	0
7	30400	23496.860370315856	1
7	30401	23497.708346840718	0
7	30415	23501.825661672972	1
7	30416	23502.205715251728	0
7	30470	23550.578065447777	1
7	30471	23550.774715455803	0
7	30495	23558.905985143445	1
7	30496	23559.958488772455	0
7	30515	23570.639786254395	1
7	30516	23571.356498326236	0
7	30570	23600.713117081284	1
7	30571	23600.859011696062	0
7	30600	23613.903064130221	1
7	30601	23614.264013127575	0
7	30605	23614.52280886131	1
7	30606	23615.286407147872	0
7	30685	23684.843907337631	1
7	30686	23685.422425064188	0
7	30745	23707.960756011736	1
7	30746	23708.271207264209	0
7	30775	23715.06875414063	1
7	30776	23715.195849564637	0
7	30815	23737.683711850527	1
7	30816	23737.859135837151	0
7	30990	23917.866329160769	1
7	30991	23917.99927384772	0
7	31035	23978.422432903245	1
7	31036	23979.33462498875	0
7	31102	24015.628853419657	1
7	31106	24016.904266865502	0
7	31110	24017.562962313977	1
7	31111	24018.014595373857	0
7	31115	24018.109036976718	1
7	31116	24018.911475318807	0
7	31170	24087.896291998898	1
7	31171	24088.538296869497	0
7	31315	24301.427874267279	1
7	31316	24301.987338168801	0
7	31455	24431.021473000661	1
7	31456	24431.438933169329	0
7	31505	24473.422530624083	1
7	31506	24473.62619454639	0
7	31575	24538.858786336176	1
7	31576	24538.974686952744	0
7	31650	24588.866275970964	1
7	31656	24590.796691563789	0
7	31700	24657.114107572285	1
7	31701	24658.010436361132	0
7	31710	24659.954093316259	1
7	31711	24660.196093519928	0
7	31725	24662.888400608112	1
7	31726	24663.216882394778	0
7	31790	24703.275516244981	1
7	31791	24703.754065880641	0
7	31800	24705.597896241694	1
7	31801	24705.853737709295	0
7	31805	24705.854251171665	1
7	31807	24706.483845082473	2
7	31808	24706.694066526644	1
7	31811	24707.842291287795	0
7	31900	24785.834668636497	1
7	31901	24786.439643395702	0
7	32000	24867.185294910452	1
7	32001	24867.528626703202	0
7	32025	24873.50836187614	1
7	32026	24874.084781886618	0
7	32090	24937.124804647878	1
7	32091	24937.879356838935	0
7	32145	24981.816985895947	1
7	32146	24982.171708626955	0
7	32180	25001.556319950838	1
7	32181	25001.997305034957	0
7	32245	25078.216141583849	1
7	32247	25078.593681955372	2
7	32248	25078.847385523487	1
7	32256	25080.801666175779	0
7	32270	25085.094588489299	1
7	32271	25085.586246647852	0
7	32285	25092.626287226294	1
7	32291	25094.458092960531	0
7	32305	25112.137144769205	1
7	32306	25112.87896356335	0
7	32310	25112.939880048776	1
7	32311	25113.892048030944	0
7	32387	25171.552052553503	1
7	32391	25173.044867795297	0
7	32520	25292.620983256709	1
7	32522	25292.763694329784	2
7	32523	25293.171875328813	1
7	32526	25294.279955444169	0
7	32530	25294.971702127795	1
7	32531	25295.431938822438	0
7	32540	25297.260930051401	1
7	32541	25297.639459630164	0
7	32555	25300.680744281125	1
7	32556	25300.873395016542	0
7	32560	25300.92825365678	1
7	32561	25301.690709256133	0
7	32565	25302.112335173859	1
7	32566	25302.607355917649	0
7	32570	25303.379870274039	1
7	32571	25303.790639447266	0
7	32575	25304.085156880251	1
7	32576	25304.713136059357	0
7	32580	25305.593442386344	1
7	32581	25305.635923387235	0
7	32615	25329.805808906137	1
7	32616	25330.032942252408	0
7	32620	25330.818406786025	1
7	32622	25331.1254058952	2
7	32623	25331.126680125377	1
7	32626	25332.127533670503	0
7	32635	25333.44809421276	1
7	32636	25334.14336392513	0
7	32670	25358.680079888425	1
7	32671	25359.02175888799	0
7	32675	25359.112107451623	1
7	32681	25361.117714795357	0
7	32750	25398.195361859376	1
7	32751	25398.477944720432	0
7	32940	25605.954340290423	1
7	32941	25605.95457546801	0
7	32995	25628.938967889803	1
7	32996	25629.374242927497	0
7	33135	25795.377989802832	1
7	33137	25796.167508493929	2
7	33138	25796.223688425443	1
7	33149	25797.544200603651	2
7	33156	25798.975607778145	3
7	33160	25800.218103427201	2
7	33168	25802.289909555618	1
7	33171	25803.149334593438	0
7	33175	25803.557952459077	1
7	33176	25804.334643533122	0
7	33275	25879.59331307481	1
7	33276	25880.655760283312	0
7	33300	25893.701388470929	1
7	33301	25893.847877002857	0
7	33305	25894.440632236121	1
7	33306	25894.671269333153	0
7	33310	25895.617260806011	1
7	33311	25895.784410590376	0
7	33355	25930.295925258223	1
7	33356	25931.086125715685	0
7	33370	25935.310080372006	1
7	33371	25935.728296735941	0
7	33415	25968.6788448022	1
7	33416	25968.879060748855	0
7	33465	26012.551433138889	1
7	33466	26013.403326058483	0
7	33475	26014.399362673357	1
7	33481	26016.224308185375	0
7	33545	26069.19266298314	1
7	33546	26070.056692506877	0
7	33645	26150.714176916996	1
7	33646	26151.30529163301	0
7	33700	26211.473084082354	1
7	33701	26211.863902456709	0
7	33705	26212.251365696259	1
7	33706	26212.813886432652	0
7	33710	26213.308975583004	1
7	33711	26213.988864313648	0
7	33790	26276.782415476578	1
7	33791	26277.207489190917	0
7	33810	26296.006906114433	1
7	33811	26296.195518871984	0
7	33940	26405.502439872697	1
7	33941	26405.78345404928	0
7	34000	26480.502305955151	1
7	34001	26480.832365199084	0
7	34020	26493.044336504646	1
7	34021	26493.051323701146	0
7	34320	26756.860428538765	1
7	34321	26757.126862047602	0
7	34395	26805.390866329986	1
7	34396	26806.378273674648	0
7	34400	26806.656902406203	1
7	34401	26807.201236033428	0
7	34435	26824.41974404977	1
7	34436	26825.273816682308	0
7	34465	26844.375878970967	1
7	34466	26844.989697569545	0
7	34485	26858.153591713395	1
7	34486	26858.201532561122	0
7	34530	26904.788741464542	1
7	34531	26905.451072529101	0
7	34645	27001.284525853482	1
7	34646	27002.38280212763	0
7	34735	27072.177062204045	1
7	34736	27072.823181995039	0
7	34760	27083.03740391787	1
7	34761	27083.396826261176	0
7	34875	27188.076238828193	1
7	34876	27188.846573455967	0
7	34895	27206.012430605781	1
7	34896	27206.07370915815	0
7	34910	27211.599570929129	1
7	34911	27211.694063692578	0
7	34960	27242.439386905186	1
7	34966	27244.113398672208	0
7	35020	27267.299089575035	1
7	35021	27268.332781610284	0
7	35170	27433.240332299182	1
7	35171	27433.620381034472	0
7	35195	27494.16215420639	1
7	35196	27494.998391495688	0
7	35220	27510.39274190511	1
7	35221	27511.451373803058	0
7	35282	27530.526260127147	1
7	35286	27531.631373193585	0
7	35340	27557.860356476288	1
7	35341	27558.397060094946	0
7	35360	27576.111818586713	1
7	35361	27576.550477525253	0
7	35390	27591.044511244277	1
7	35401	27594.194365004186	0
7	35425	27619.663606758293	1
7	35426	27620.106518773227	0
7	35465	27663.27261797599	1
7	35466	27663.447191228239	0
7	35475	27666.674742438815	1
7	35476	27667.033475700982	0
7	35560	27726.695821345131	1
7	35561	27726.846159369472	0
7	35600	27761.088974835029	1
7	35601	27761.965864073028	0
7	35647	27786.128438200311	1
7	35651	27788.261789595195	0
7	35655	27788.957577427809	1
7	35656	27789.325593736255	0
7	35780	27888.000015457521	1
7	35781	27888.52672852375	0
7	35915	28010.514237020347	1
7	35921	28011.815129056359	0
7	36010	28079.094293903155	1
7	36011	28079.561884928465	0
7	36030	28086.648316788629	1
7	36031	28087.433508994546	0
7	36062	28098.841207471968	1
7	36066	28100.718645853351	0
7	36097	28120.498642887557	1
7	36101	28121.891343656561	0
7	36270	28217.715404736963	1
7	36271	28218.468749187521	0
7	36325	28257.03819541298	1
7	36326	28257.425428522249	0
7	36352	28273.104803081571	1
7	36357	28273.914067306707	2
7	36358	28274.779856426814	1
7	36361	28275.686230762289	0
7	36370	28278.107541176363	1
7	36371	28278.532556911472	0
7	36400	28291.824195006881	1
7	36401	28291.844137281356	0
7	36430	28305.690316172338	1
7	36431	28306.336501508624	0
7	36462	28314.901752495999	1
7	36466	28316.334679579446	0
7	36530	28372.385497537843	1
7	36531	28372.46146636856	0
7	36592	28436.912846714783	1
7	36596	28438.944247294034	0
7	36600	28439.514516736173	1
7	36601	28439.968654119319	0
7	36605	28439.968709662727	1
7	36606	28440.959109708576	0
7	36620	28447.32241032049	1
7	36621	28447.667951864082	0
7	36845	28661.071303980097	1
7	36846	28661.68621497945	0
7	36950	28768.792669847602	1
7	36956	28770.607376462978	0
7	36975	28788.525411102845	1
7	36976	28788.968374483936	0
7	37055	28865.281104715977	1
7	37056	28865.335892654535	0
7	37065	28868.259445061274	1
7	37071	28870.075667242819	0
7	37107	28886.918884280968	1
7	37121	28890.140047644711	0
7	37180	28933.714717788471	1
7	37181	28934.184033097218	0
7	37185	28934.625518672976	1
7	37186	28934.992455497555	0
7	37255	29011.139430535848	1
7	37256	29011.772253807264	0
7	37270	29014.977673337666	1
7	37271	29015.964654862073	0
7	37365	29088.676594814492	1
7	37366	29089.220702937098	0
7	37422	29171.119131044591	1
7	37426	29172.005958933911	0
7	37480	29223.954436690095	1
7	37481	29225.06262687153	0
7	37610	29316.056778363154	1
7	37611	29316.956044404429	0
7	37625	29327.18136901711	1
7	37626	29327.762036758731	0
7	37687	29368.845754324247	1
7	37692	29370.481402134936	2
7	37693	29370.652953171332	1
7	37697	29370.889700309919	2
7	37698	29371.793155875963	1
7	37701	29372.732540647567	0
7	37705	29373.095703957686	1
7	37706	29373.686830001485	0
7	37745	29398.477390373087	1
7	37746	29398.724559841597	0
7	37835	29463.020359308005	1
7	37836	29463.631580618637	0
7	37880	29497.743805307014	1
7	37881	29498.256401485341	0
7	37895	29503.835160208802	1
7	37896	29504.224576707477	0
7	37925	29528.409360422663	1
7	37926	29528.539951586821	0
7	37945	29547.783194523175	1
7	37946	29547.787982186969	0
7	37960	29554.438670276211	1
7	37961	29555.116726461444	0
7	38035	29587.055147680401	1
7	38036	29587.682882841759	0
7	38055	29598.46535671321	1
7	38056	29598.923650805546	0
7	38065	29600.433066065796	1
7	38066	29600.965019311254	0
7	38115	29615.353725295322	1
7	38116	29615.781315669519	0
7	38195	29672.437559021663	1
7	38196	29673.234577866907	0
7	38210	29676.932989709376	1
7	38211	29677.371268537439	0
7	38235	29687.120925344757	1
7	38252	29690.197419456498	2
7	38253	29691.026122226946	1
7	38256	29691.88481805139	0
7	38330	29749.970665853059	1
7	38331	29750.411996332737	0
7	38400	29791.798635262138	1
7	38401	29792.253026605885	0
7	38410	29794.074287049663	1
7	38411	29794.31862051706	0
7	38445	29825.712371694802	1
7	38446	29826.871964876759	0
7	38567	29931.699783738504	1
7	38571	29933.495603921316	0
7	38620	29990.104246408469	1
7	38621	29990.355555219761	0
8	12975	10180.105883715868	1
8	12976	10180.954622852035	0
8	12980	10182.049214756839	1
8	12981	10182.775967183442	0
8	17765	13932.895890045272	1
8	17766	13933.853213696035	0
8	18740	14735.477634203197	1
8	18741	14735.773378614852	0
8	19680	15490.21518198657	1
8	19681	15490.697860251528	0
8	19685	15491.855619189397	1
8	19686	15491.887980104471	0
8	28475	21931.713624636849	1
8	28476	21931.881199899744	0
8	34240	26709.916909353054	1
8	34244	26710.663018734554	0
8	36912	28711.383070623987	1
8	36919	28712.460190884532	0
8	38085	29607.500836283563	1
8	38086	29607.516764706554	0
8	38090	29608.360410663853	1
8	38091	29609.155852944112	0
9	16930	13334.830090013029	1
9	16931	13334.859368376218	0
9	20315	15996.663649243786	1
9	20316	15997.040743460737	0
9	21315	16778.551596270044	1
9	21316	16778.912516883694	0
9	21320	16779.948015171502	1
9	21321	16781.236441285828	0
9	30005	23194.517981039116	1
9	30006	23196.033362227751	0
9	32535	25296.32679784434	1
9	32539	25297.260930051401	0
9	32630	25333.280927881121	1
9	32631	25333.333845158634	0

