version 2
run Second_exit_8-10-20191023-00:20:08-5226
attr configname Second_exit_8
attr datetime 20191023-00:20:08
attr experiment Second_exit_8
attr inifile omnetpp.ini
attr iterationvars ""
attr iterationvarsf ""
attr measurement ""
attr network ResponseTimeNetwork
attr processid 5226
attr repetition 10
attr replication #10
attr resultdir results
attr runnumber 10
attr seedset 10
param **.Source.interArrivalTime exponential(5s)
param **.jobPriority bernoulli(0.6)
param **.PS.serviceTimeU1 "uniform(0.8s, 1.2s)"
param **.PS.serviceTimeU2 "uniform(1.8s, 2.2s)"
param **.SS1.serviceTime exponential(1s)
param **.SS2.serviceTime exponential(1.2s)
param **.PS.exitProbability bernoulli(0.8)

vector 0 ResponseTimeNetwork.SS1 queueLength:vector ETV
attr interpolationmode sample-hold
attr title "queue length, vector"
vector 1 ResponseTimeNetwork.SS2 queueLength:vector ETV
attr interpolationmode sample-hold
attr title "queue length, vector"
vector 2 ResponseTimeNetwork.QueueU1 queueLength:vector ETV
attr interpolationmode sample-hold
attr title "queue length, vector"
vector 3 ResponseTimeNetwork.QueueU2 queueLength:vector ETV
attr interpolationmode sample-hold
attr title "queue length, vector"
vector 4 ResponseTimeNetwork.sink lifeTimeU1:vector ETV
attr interpolationmode none
attr title "lifetime of arrived jobs U1, vector"
attr unit s
vector 5 ResponseTimeNetwork.sink lifeTime:vector ETV
attr interpolationmode none
attr title "lifetime of arrived jobs, vector"
attr unit s
vector 6 ResponseTimeNetwork.sink lifeTimeU2:vector ETV
attr interpolationmode none
attr title "lifetime of arrived jobs U2, vector"
attr unit s
2	0	0	0
2	10	9.151705897614	1
2	11	10.059746621822	0
2	15	10.31437651757	1
2	16	10.8698153153	0
2	25	12.290221262488	1
2	26	13.010403533578	0
2	30	13.173367111656	1
2	31	14.08454745926	0
2	40	17.560140312531	1
2	43	18.155436275923	0
2	50	19.10354299505	1
2	52	19.44867914765	2
2	53	20.118728910876	1
2	56	21.135081283306	0
2	60	21.276020790692	1
2	61	22.152099030488	0
2	65	22.305448420324	1
2	68	23.263590555475	0
2	72	24.140423504103	1
2	73	24.333244003006	0
2	77	24.916341395209	1
2	78	25.46367690314	0
2	82	25.575057535746	1
2	83	26.51078369657	0
2	87	27.230558759291	1
2	88	27.337009003688	0
2	92	27.395108767246	1
2	93	28.377424583979	0
2	102	30.013325586136	1
2	103	30.114892699219	0
2	112	31.308751965532	1
2	113	31.915549459423	0
2	119	32.828686292587	1
2	120	33.047021988428	0
2	127	34.031289545542	1
2	128	34.988497497535	0
2	134	35.742134690884	1
2	135	36.095249515793	0
2	142	37.598787496179	1
2	143	38.329904499298	0
2	160	42.416762345983	1
2	161	42.495087887274	0
2	172	44.708194335331	1
2	173	45.349839190552	0
2	180	46.595605523832	1
2	181	47.327191691259	0
2	195	50.207998137602	1
2	197	50.210407801658	2
2	200	50.778035284682	1
2	204	51.573916107671	2
2	205	51.720907989434	1
2	209	51.803869132716	2
2	210	52.552825063477	1
2	214	52.820754964896	2
2	215	53.485112787979	1
2	218	54.37109406638	0
2	222	54.971582455083	1
2	223	55.252312713126	0
2	229	55.532810856771	1
2	231	55.654581733693	2
2	232	56.178283463149	1
2	237	56.995522404938	0
2	241	57.052993420876	1
2	243	57.794933622954	2
2	245	57.940280446971	3
2	246	58.100818639073	2
2	249	59.143049663968	1
2	253	59.322723304548	2
2	254	60.14843631602	1
2	258	61.059333247313	2
2	259	61.190326779719	1
2	263	61.523213037012	2
2	264	62.110675303649	1
2	268	62.136403229731	2
2	269	62.926059476856	1
2	273	63.330191614946	2
2	274	63.822889827203	1
2	278	64.638381359488	2
2	279	64.888752014853	1
2	283	65.362668356751	2
2	284	65.878804913267	1
2	288	66.22524382511	2
2	289	66.735035227064	1
2	293	67.226139025176	2
2	294	67.926562884275	1
2	298	68.462913962571	2
2	299	68.862446021579	1
2	302	69.704819245741	0
2	314	72.638223239815	1
2	316	72.735677428225	2
2	317	72.806317051232	1
2	320	73.633555960387	0
2	327	74.659372389097	1
2	329	74.778904625199	2
2	330	75.73214793225	1
2	334	76.046892738912	2
2	337	76.820467367593	1
2	340	77.760729926463	0
2	347	78.829005935682	1
2	349	79.503438687521	2
2	350	79.705898151092	1
2	354	80.221563545087	2
2	355	80.743842531379	1
2	359	80.974319753601	2
2	362	81.564033600978	1
2	366	81.976245246821	2
2	367	82.701683951366	1
2	371	82.765227103329	2
2	372	83.573245074145	1
2	376	84.178663651032	2
2	377	84.47263186454	1
2	380	85.273798298754	0
2	384	85.743286382128	1
2	386	85.856320238751	2
2	387	86.191975155205	1
2	392	87.087308241532	0
2	402	89.624555862245	1
2	404	90.190633076954	2
2	405	90.456398165238	1
2	413	90.920120785044	2
2	416	91.636266160489	1
2	419	92.69542313061	0
2	423	93.27047629286	1
2	424	93.633543988236	0
2	431	94.716467409049	1
2	434	95.673632315186	0
2	438	95.865513157114	1
2	441	96.704698016134	0
2	445	97.434562758573	1
2	447	97.473274169764	2
2	448	97.729320963018	1
2	451	98.762999294524	0
2	455	99.571574330643	1
2	457	99.780365941084	2
2	458	99.846539224976	1
2	462	100.31344748373	2
2	463	100.817919519742	1
2	466	101.692418630247	0
2	470	102.001730501002	1
2	472	102.274005606674	2
2	474	102.580844308987	3
2	475	102.657937753213	2
2	479	103.365140505331	3
2	482	103.763687657298	2
2	486	104.002214994303	3
2	487	104.883715155826	2
2	490	105.909765699145	1
2	494	106.799774134594	2
2	495	107.055273777444	1
2	499	107.190949661175	2
2	500	108.029721079219	1
2	504	108.380561306522	2
2	505	109.0984942929	1
2	508	109.910768228035	0
2	515	111.814358610867	1
2	517	111.894544531244	2
2	518	111.989955860574	1
2	522	112.134643665333	2
2	526	112.709397094899	3
2	527	112.932188416191	2
2	531	113.05469538179	3
2	532	114.106240024057	2
2	536	114.966086567576	3
2	537	115.245643697225	2
2	540	116.139212159824	1
2	544	116.169873310973	2
2	546	117.126301054871	3
2	547	117.132403835945	2
2	551	117.153796220068	3
2	554	118.2811287596	2
2	558	118.457401341096	3
2	559	119.264534444839	2
2	563	119.984277600736	3
2	564	120.071346435242	2
2	568	120.293034839656	3
2	569	121.209100751218	2
2	572	122.07902630904	1
2	576	122.093769328957	2
2	577	123.153395096876	1
2	580	124.084008071304	0
2	584	124.565083083923	1
2	586	124.609085477331	2
2	587	125.06668708456	1
2	591	125.190810874958	2
2	592	126.166628099804	1
2	595	127.004491717753	0
2	599	127.556284232419	1
2	601	128.022994903222	2
2	602	128.090824065742	1
2	606	128.830175533664	2
2	607	128.973204169434	1
2	610	129.890736791876	0
2	614	129.94030930813	1
2	616	130.846634681074	2
2	617	130.953027487186	1
2	620	131.893512888544	0
2	624	132.474075386876	1
2	626	132.575948659701	2
2	627	132.730889039685	1
2	630	133.889350332611	0
2	637	135.127044994699	1
2	639	135.477127233001	2
2	641	135.951122082351	3
2	642	135.992509655853	2
2	645	137.12427042547	1
2	648	138.103353971535	0
2	652	138.373913447258	1
2	654	138.457527303523	2
2	656	138.697291422528	3
2	657	139.147303394707	2
2	662	139.965007441131	1
2	665	140.864005650686	0
2	669	141.407873109934	1
2	670	141.850058982534	0
2	677	143.41445547437	1
2	679	143.54262556855	2
2	680	143.584278043559	1
2	684	143.79485782488	2
2	686	143.854782999514	3
2	687	144.411891379873	2
2	692	145.353380110129	1
2	696	145.355521995428	2
2	698	146.053049652666	3
2	699	146.258625779595	2
2	703	146.860447548216	3
2	705	146.885183627833	4
2	707	146.989068446664	5
2	708	147.180960749291	4
2	711	148.309507992134	3
2	715	148.837848929246	4
2	716	149.393150378127	3
2	720	149.832853487005	4
2	721	150.408762056489	3
2	725	151.345686585449	4
2	726	151.54660960009	3
2	730	152.319119348949	4
2	731	152.378356115163	3
2	734	153.227360108231	2
2	737	154.178416876883	1
2	741	154.35385569161	2
2	742	155.149915809107	1
2	745	156.306620838043	0
2	749	156.727340977236	1
2	751	156.922741718072	2
2	753	156.962606327328	3
2	754	157.226705084757	2
2	757	158.191615516336	1
2	761	158.538963656189	2
2	762	159.065562536584	1
2	766	159.317029903871	2
2	768	159.447306443054	3
2	769	160.154955190995	2
2	773	160.159306980523	3
2	775	160.770411156935	4
2	777	161.030195775934	5
2	778	161.350521980894	4
2	781	162.276084574421	3
2	784	163.45413118053	2
2	787	164.362024884222	1
2	791	164.500960397509	2
2	792	165.181872950977	1
2	795	166.097174207604	0
2	799	166.222539946952	1
2	801	166.481106602432	2
2	802	167.007092261704	1
2	806	167.400030539011	2
2	808	167.681308124201	3
2	809	168.18249793995	2
2	813	168.909902602775	3
2	814	169.087859206291	2
2	818	169.338388493792	3
2	820	169.952214878825	4
2	821	170.041796491591	3
2	825	170.187485728067	4
2	826	171.199805412924	3
2	830	171.669320371585	4
2	832	171.717187150945	5
2	833	172.349809031671	4
2	836	173.530866605805	3
2	839	174.333110236952	2
2	842	175.234293410012	1
2	846	175.48737585988	2
2	848	175.893639798734	3
2	849	176.111639990488	2
2	852	177.090322455781	1
2	855	177.935906577127	0
2	859	178.668962891136	1
2	861	178.669069217505	2
2	862	178.884718140138	1
2	866	179.714233972143	2
2	867	179.813174950534	1
2	871	180.461816702274	2
2	873	180.47368573842	3
2	874	180.868388984462	2
2	878	181.280508150217	3
2	879	181.798937633836	2
2	883	182.371124278152	3
2	884	182.767958535084	2
2	887	183.726405653653	1
2	891	184.797093492496	2
2	892	184.885317632106	1
2	896	185.649513758629	2
2	897	185.926201466859	1
2	901	186.169345296331	2
2	903	186.532689222648	3
2	904	186.778271684904	2
2	908	187.415728941769	3
2	909	187.891857400831	2
2	913	188.25508714491	3
2	914	188.997441403397	2
2	918	189.271122978717	3
2	919	190.148827874676	2
2	922	191.035222958696	1
2	925	191.966645291929	0
2	929	192.275713786061	1
2	931	192.334008585278	2
2	932	192.793954391141	1
2	936	193.627372987087	2
2	937	193.838850355629	1
2	940	194.714462136492	0
2	944	194.804296956581	1
2	946	194.960972539137	2
2	948	195.684091927383	3
2	949	195.835665153075	2
2	953	196.497447418408	3
2	954	196.938579567537	2
2	957	197.771627684139	1
2	961	198.429546670326	2
2	962	198.775102432087	1
2	966	198.916632198964	2
2	967	199.853625740778	1
2	971	200.082739088588	2
2	972	200.900324088071	1
2	975	202.017631818742	0
2	979	202.365417789997	1
2	981	202.82383518153	2
2	982	202.834326944981	1
2	985	203.902201151584	0
2	989	204.006606942206	1
2	990	204.864901675299	0
2	997	206.102607511312	1
2	998	206.611168376557	0
2	1005	208.006492880503	1
2	1006	208.641078589033	0
2	1010	208.779553134282	1
2	1013	209.46425851259	0
2	1020	210.568003981165	1
2	1021	211.66649473609	0
2	1025	211.908342543727	1
2	1028	212.527182595167	0
2	1032	212.82824071435	1
2	1034	213.003008507994	2
2	1036	213.343718539546	3
2	1037	213.36609159309	2
2	1040	214.236745611406	1
2	1044	214.641918149305	2
2	1045	215.230425074617	1
2	1048	216.262557614795	0
2	1052	216.465645248483	1
2	1054	216.617350444211	2
2	1055	217.136386311348	1
2	1059	217.573167431556	2
2	1060	218.291168344501	1
2	1064	219.246055882667	2
2	1065	219.380696552727	1
2	1069	220.229939582268	2
2	1070	220.382720198962	1
2	1074	220.53661847946	2
2	1077	221.293149529691	1
2	1081	222.018306925451	2
2	1082	222.230206778008	1
2	1085	223.082037489131	0
2	1094	224.169181042857	1
2	1095	225.169918933246	0
2	1101	226.01902627391	1
2	1102	226.057590334784	0
2	1109	227.358854798513	1
2	1110	228.108058383983	0
2	1155	237.177737037864	1
2	1158	237.892055246438	0
2	1167	239.158074001695	1
2	1168	239.740330286249	0
2	1172	240.069910853665	1
2	1173	240.884307165089	0
2	1179	241.592830707797	1
2	1180	241.986860108021	0
2	1184	242.024896416317	1
2	1185	242.888419095259	0
2	1192	243.958310464646	1
2	1194	244.024236323417	2
2	1195	244.71937597163	1
2	1202	245.854541773274	0
2	1206	246.242509234227	1
2	1207	247.02037708668	0
2	1214	248.181344626914	1
2	1215	248.858959299531	0
2	1222	250.633578919633	1
2	1223	250.66039935911	0
2	1234	251.530480537802	1
2	1236	252.107276779913	2
2	1237	252.435530974548	1
2	1240	253.462804982084	0
2	1252	255.538731088036	1
2	1256	255.782433245321	2
2	1257	256.637059389817	1
2	1261	256.894911931243	2
2	1262	257.688204330596	1
2	1267	258.69702415673	0
2	1271	258.813292446918	1
2	1272	259.674132017623	0
2	1279	261.078127532016	1
2	1280	261.629983093141	0
2	1284	262.631912579414	1
2	1285	262.657982427737	0
2	1289	263.001680229351	1
2	1290	263.512226335256	0
2	1294	263.753057238836	1
2	1297	264.354295867047	0
2	1301	264.501364598263	1
2	1305	264.985248686782	2
2	1306	265.468191298767	1
2	1309	266.48313291056	0
2	1313	266.810647177941	1
2	1315	267.232608014298	2
2	1317	267.293307526305	3
2	1318	267.38330248298	2
2	1322	267.479757534482	3
2	1324	267.786400777389	4
2	1325	268.227914148214	3
2	1330	269.352287837974	2
2	1334	270.162005722302	3
2	1335	270.382724121603	2
2	1339	271.252374531743	3
2	1340	271.443438669684	2
2	1343	272.283270761947	1
2	1346	273.260491356737	0
2	1350	273.510636735787	1
2	1351	274.362486398797	0
2	1355	274.518291378546	1
2	1356	275.330692702177	0
2	1360	275.470041234806	1
2	1362	276.243689673169	2
2	1363	276.523494269251	1
2	1366	277.326957976184	0
2	1370	277.498913488575	1
2	1372	277.740003772757	2
2	1373	278.242216210085	1
2	1376	279.103074049315	0
2	1383	280.384896117171	1
2	1384	280.818104780948	0
2	1388	281.727967278724	1
2	1389	281.877666843048	0
2	1393	281.981467804613	1
2	1396	282.791922926268	0
2	1402	283.251329947255	1
2	1403	283.856168406008	0
2	1407	284.467125210855	1
2	1408	284.960995126998	0
2	1415	286.792873604023	1
2	1416	286.910792977938	0
2	1420	287.507512719493	1
2	1421	288.016105585282	0
2	1425	288.058167863352	1
2	1428	288.816809446753	0
2	1443	292.229444595876	1
2	1444	292.67071186259	0
2	1451	293.855696980408	1
2	1452	294.579080288965	0
2	1471	298.028206357367	1
2	1472	298.314956343747	0
2	1476	299.012716817123	1
2	1477	299.456534735873	0
2	1485	299.911301058134	1
2	1486	300.5722102523	0
2	1532	310.361073138327	1
2	1537	311.029898453891	0
2	1551	313.41132588826	1
2	1552	314.289336473603	0
2	1561	315.186733286236	1
2	1562	316.138752983898	0
2	1569	316.962109287961	1
2	1570	318.112500253521	0
2	1574	318.909048324256	1
2	1575	318.937072685097	0
2	1584	321.107930195566	1
2	1586	321.146954016989	2
2	1587	321.168433085565	1
2	1592	322.273577295259	0
2	1599	323.692039627622	1
2	1600	324.517601828851	0
2	1609	325.903412644587	1
2	1610	326.826639648914	0
2	1614	326.920839227969	1
2	1617	327.741395926769	0
2	1621	328.701232539184	1
2	1624	328.931557716723	0
2	1631	330.036676218352	1
2	1632	330.959659146905	0
2	1636	331.685605261044	1
2	1637	332.13238656513	0
2	1641	332.194104922109	1
2	1643	333.21130454676	2
2	1644	333.256841620724	1
2	1648	333.753785459399	2
2	1650	334.199549352845	3
2	1651	334.268436064585	2
2	1655	334.344938174703	3
2	1656	335.07049860341	2
2	1660	335.095548532184	3
2	1661	335.991910022045	2
2	1664	336.860547231803	1
2	1668	337.18635333953	2
2	1672	337.717383130181	3
2	1673	337.938119500051	2
2	1677	338.60494847179	3
2	1678	338.971008662334	2
2	1682	339.143327494275	3
2	1684	339.321728130888	4
2	1685	339.922803653883	3
2	1688	340.978007025378	2
2	1692	341.092389794572	3
2	1693	341.916965626193	2
2	1697	342.668804258899	3
2	1698	342.877678368253	2
2	1702	343.164342478029	3
2	1704	343.867224502494	4
2	1705	344.06718500146	3
2	1708	344.900560877112	2
2	1712	345.424273027423	3
2	1714	345.518760836432	4
2	1715	345.748831975472	3
2	1719	345.806656003182	4
2	1721	346.142439426464	5
2	1722	346.656030375616	4
2	1725	347.627582092782	3
2	1729	348.258763680427	4
2	1730	348.50694906331	3
2	1733	349.473864544848	2
2	1736	350.516049997894	1
2	1740	351.215224012215	2
2	1741	351.457240935894	1
2	1745	351.931057950123	2
2	1747	352.405422214437	3
2	1748	352.572525692093	2
2	1751	353.41782694479	1
2	1755	353.672818369684	2
2	1757	353.915779596724	3
2	1758	354.579752535387	2
2	1762	354.657029886992	3
2	1763	355.409154085177	2
2	1766	356.262070632554	1
2	1770	356.927321738961	2
2	1771	357.302244095891	1
2	1774	358.13511130122	0
2	1778	358.731666730383	1
2	1780	359.111971049538	2
2	1783	359.308437125864	1
2	1787	359.625797637897	2
2	1788	360.36772109942	1
2	1792	361.11813478552	2
2	1794	361.376178989618	3
2	1795	361.543100894256	2
2	1799	362.227915206988	3
2	1800	362.454359280797	2
2	1803	363.292602031132	1
2	1807	363.725389044876	2
2	1808	364.394399021113	1
2	1812	364.969093512722	2
2	1813	365.429624785496	1
2	1817	366.065479301998	2
2	1818	366.51879131162	1
2	1822	366.984593506461	2
2	1823	367.601714688739	1
2	1827	367.749598936221	2
2	1828	368.433900134837	1
2	1831	369.471610362375	0
2	1835	369.801395071894	1
2	1836	370.286891242409	0
2	1840	370.502814388545	1
2	1841	371.206422120252	0
2	1848	372.623326974238	1
2	1850	372.627744365255	2
2	1851	373.230726930977	1
2	1856	374.324048144476	0
2	1860	374.474339428943	1
2	1861	375.202285670502	0
2	1865	375.998312097152	1
2	1866	376.025998845989	0
2	1870	376.998617695266	1
2	1871	377.137395714609	0
2	1881	379.234715769757	1
2	1883	379.445630890974	2
2	1885	379.613828993949	3
2	1886	379.940523567529	2
2	1889	381.029977010483	1
2	1893	381.236275646672	2
2	1894	382.118335703774	1
2	1901	383.297970580137	0
2	1920	386.549903486023	1
2	1923	387.287038151096	0
2	1927	388.2447236274	1
2	1928	388.254660838391	0
2	1935	389.728528680334	1
2	1937	389.935907825596	2
2	1938	390.487427310753	1
2	1943	391.422105697184	0
2	1947	391.994021048995	1
2	1949	392.02417727093	2
2	1950	392.589349473189	1
2	1953	393.787530768677	0
2	1968	397.292876805842	1
2	1969	397.304256292073	0
2	1973	397.693807224337	1
2	1975	397.825875387614	2
2	1976	398.228239348451	1
2	1981	399.075228240354	0
2	1985	400.148236822879	1
2	1986	400.254000808777	0
2	1993	402.195535825211	1
2	1994	402.42126299498	0
2	2006	404.509879656739	1
2	2007	405.015847817542	0
2	2021	407.771343171252	1
2	2022	408.196331049049	0
2	2029	409.268841909321	1
2	2033	410.22796877609	2
2	2034	410.243059720298	1
2	2038	410.825252422674	2
2	2039	411.376684455121	1
2	2043	411.472896658084	2
2	2044	412.276363090811	1
2	2047	413.139657809505	0
2	2051	413.462698978377	1
2	2054	414.026151933906	0
2	2058	414.325126602324	1
2	2061	415.060970419658	0
2	2065	415.400259523581	1
2	2066	416.000688655967	0
2	2073	417.29539980855	1
2	2074	417.747947488459	0
2	2091	420.96157323621	1
2	2094	421.709218278354	0
2	2156	436.29713959491	1
2	2157	437.021504897078	0
2	2183	442.412664040953	1
2	2184	442.414341474431	0
2	2193	444.072767364724	1
2	2196	444.509910258571	0
2	2209	446.34050672565	1
2	2210	446.478749203322	0
2	2292	463.407348445952	1
2	2293	463.503410915763	0
2	2309	465.502701737555	1
2	2310	466.317355053698	0
2	2316	466.64654739947	1
2	2317	467.442803742097	0
2	2321	467.995716396681	1
2	2322	468.282176515845	0
2	2326	468.368114285308	1
2	2328	469.241747821026	2
2	2329	469.29914349058	1
2	2333	469.5670030712	2
2	2334	470.249227418763	1
2	2340	470.486887106397	2
2	2341	471.201317524736	1
2	2344	472.310537801416	0
2	2348	472.656863535917	1
2	2349	473.303762010497	0
2	2361	476.293706151743	1
2	2362	476.703840293468	0
2	2366	476.933856020851	1
2	2369	477.635532600631	0
2	2381	480.192845324468	1
2	2382	480.321289958538	0
2	2409	485.656190095144	1
2	2412	486.299099172852	0
2	2421	487.603282231626	1
2	2422	488.318404033328	0
2	2432	490.612488346668	1
2	2433	491.447552966153	0
2	2437	492.515164485198	1
2	2438	492.575357110345	0
2	2442	493.045426927151	1
2	2443	493.748581262131	0
2	2452	495.40518472554	1
2	2453	495.779320056934	0
2	2467	498.337401426426	1
2	2468	498.905711683829	0
2	2477	499.821869467733	1
2	2478	500.826532409817	0
2	2492	503.588073659209	1
2	2493	503.880708364595	0
2	2502	505.110295202048	1
2	2503	505.962876497872	0
2	2507	506.151566724009	1
2	2508	506.971973696269	0
2	2512	507.787914184568	1
2	2513	508.001826859184	0
2	2536	513.890273806596	1
2	2537	513.989462383383	0
2	2544	515.195599712283	1
2	2545	516.374343532243	0
2	2552	518.033539504711	1
2	2557	518.553471912642	0
2	2564	520.126339057334	1
2	2565	520.769726310962	0
2	2584	524.422580622422	1
2	2585	524.806453185727	0
2	2601	526.769681429088	1
2	2604	527.487272184262	0
2	2611	529.409962598148	1
2	2612	529.653802960286	0
2	2623	530.853555770445	1
2	2625	531.533900037292	2
2	2626	531.652872973694	1
2	2630	531.764245746497	2
2	2631	532.676314493468	1
2	2635	532.682682194999	2
2	2638	533.799275942625	1
2	2641	534.907106649702	0
2	2648	536.241915400006	1
2	2650	536.29609366356	2
2	2651	536.845058229299	1
2	2654	537.790415505053	0
2	2666	540.108519367033	1
2	2669	540.761190147432	0
2	2700	548.895088125738	1
2	2701	549.157548973164	0
2	2726	552.616922044889	1
2	2727	552.972393209035	0
2	2734	553.968226348386	1
2	2739	554.896492413072	0
2	2746	556.777858522779	1
2	2748	556.901391544195	2
2	2749	557.003766165314	1
2	2754	558.097741153942	0
2	2764	560.596174959815	1
2	2767	561.409107846873	0
2	2774	562.718777875293	1
2	2777	563.581514714392	0
2	2781	563.684327698704	1
2	2783	563.722594079723	2
2	2786	564.541025067227	1
2	2789	565.415953091731	0
2	2818	571.002562916887	1
2	2821	571.394362000109	0
2	2828	572.790731203876	1
2	2830	573.408157739497	2
2	2831	573.419127955487	1
2	2836	574.345237100789	0
2	2840	574.544714696626	1
2	2841	575.424337286794	0
2	2961	600.992628673608	1
2	2962	601.037906720596	0
2	2970	601.748903509495	1
2	2971	601.894412054321	0
2	2975	602.000336956613	1
2	2976	602.739205400566	0
2	2983	604.258853016688	1
2	2984	604.908387650097	0
2	2994	606.985340240943	1
2	2995	607.902532671219	0
2	3007	609.908709958284	1
2	3010	610.92802409382	0
2	3023	612.239484109362	1
2	3024	612.937001794217	0
2	3039	616.097505921284	1
2	3041	616.597933324743	2
2	3042	616.677191818983	1
2	3047	617.506643005472	0
2	3053	617.95650914244	1
2	3054	618.577440119081	0
2	3058	618.902670279345	1
2	3059	619.766778752499	0
2	3063	619.812775037598	1
2	3064	620.588563152787	0
2	3068	620.683171002815	1
2	3070	620.948934360265	2
2	3071	621.542936275539	1
2	3075	621.585428077154	2
2	3076	622.730966322136	1
2	3079	623.807738506433	0
2	3083	623.950106202597	1
2	3084	624.900762584631	0
2	3091	626.189230933833	1
2	3092	626.726282325958	0
2	3098	627.047603061294	1
2	3099	627.617918851704	0
2	3103	628.132014179374	1
2	3104	628.588745880791	0
2	3111	629.508715724131	1
2	3113	629.597048802274	2
2	3114	630.338852216595	1
2	3118	630.346614921878	2
2	3121	631.176927926031	1
2	3124	632.021789208998	0
2	3128	632.832215354896	1
2	3129	632.843484321621	0
2	3136	633.816047247305	1
2	3137	634.562413214346	0
2	3141	635.611338360969	1
2	3142	635.734998620966	0
2	3152	637.900479246484	1
2	3153	638.697336991144	0
2	3162	640.273320824347	1
2	3163	640.654675933917	0
2	3174	642.519680181575	1
2	3175	642.642188839533	0
2	3179	642.926875640601	1
2	3182	643.504924314108	0
2	3186	643.596402708154	1
2	3188	643.996892031141	2
2	3190	644.178809342104	3
2	3192	644.393590903616	4
2	3193	644.622266838897	3
2	3196	645.507856687915	2
2	3200	645.769338311972	3
2	3201	646.50132999086	2
2	3205	646.759157381446	3
2	3207	647.180748381222	4
2	3209	647.409746981136	5
2	3210	647.447249171428	4
2	3214	647.631865982829	5
2	3216	648.136831574655	6
2	3217	648.394496985349	5
2	3221	648.900648342503	6
2	3223	648.974251245375	7
2	3224	649.442350252821	6
2	3227	650.524497554368	5
2	3231	650.641159074741	6
2	3233	651.095086821467	7
2	3234	651.701939625675	6
2	3237	652.698587710699	5
2	3240	653.761607166389	4
2	3244	653.770518009625	5
2	3245	654.77057772615	4
2	3249	655.022408915629	5
2	3251	655.538476725287	6
2	3253	655.648438991546	7
2	3254	655.921091501797	6
2	3257	656.893418963636	5
2	3261	657.025863274358	6
2	3263	657.538057899367	7
2	3264	657.741053539338	6
2	3270	658.601709919724	7
2	3271	658.72946529287	6
2	3274	659.803601497701	5
2	3278	660.238859461858	6
2	3280	660.243287337873	7
2	3281	660.837289290978	6
2	3285	660.97687674148	7
2	3286	661.979406244317	6
2	3289	662.964099352257	5
2	3293	663.147847799145	6
2	3296	663.795214907555	5
2	3300	664.521668216702	6
2	3301	664.930073219454	5
2	3305	665.595585741063	6
2	3306	666.066298036287	5
2	3310	666.354118706156	6
2	3312	666.421159173197	7
2	3313	666.871739958981	6
2	3317	667.798763028039	7
2	3318	668.02098429353	6
2	3322	668.076114103218	7
2	3324	668.743377265446	8
2	3325	668.970123032397	7
2	3328	669.859514646894	6
2	3331	670.844560801993	5
2	3334	671.820722802832	4
2	3339	672.822859366714	3
2	3343	672.918100585853	4
2	3344	673.63033925566	3
2	3348	674.344416596115	4
2	3349	674.454422122996	3
2	3352	675.651964655623	2
2	3356	676.001560290621	3
2	3358	676.313994491391	4
2	3359	676.762289159198	3
2	3363	676.940610542387	4
2	3365	677.890985084381	5
2	3366	677.907128164836	4
2	3370	678.087682215279	5
2	3371	678.808769237541	4
2	3374	679.638033542887	3
2	3378	679.810670469641	4
2	3379	680.812542017934	3
2	3382	681.790697004845	2
2	3386	681.831851341302	3
2	3388	681.877105593383	4
2	3390	682.156346007894	5
2	3391	682.636385897746	4
2	3394	683.793798046106	3
2	3398	683.886691299019	4
2	3401	684.645443861944	3
2	3405	685.179482303856	4
2	3406	685.618755977613	3
2	3409	686.566214709741	2
2	3412	687.532111250901	1
2	3416	687.91065373889	2
2	3418	687.912408350538	3
2	3420	688.171478614985	4
2	3421	688.606709380553	3
2	3424	689.475321579923	2
2	3428	689.881469661965	3
2	3430	690.347411429584	4
2	3431	690.469296497119	3
2	3435	690.993998213588	4
2	3436	691.612313326926	3
2	3440	691.662194451125	4
2	3442	691.67200066177	5
2	3443	692.801488024381	4
2	3447	692.903131326746	5
2	3448	693.654198288837	4
2	3452	693.823299780948	5
2	3453	694.633357333963	4
2	3456	695.656593588752	3
2	3459	696.602850506746	2
2	3462	697.538303681289	1
2	3466	697.622143215781	2
2	3468	697.807256083413	3
2	3469	698.64712159402	2
2	3473	698.912210633787	3
2	3475	699.00519845447	4
2	3476	699.767665791803	3
2	3480	699.778530225347	4
2	3482	700.493587142535	5
2	3483	700.918297935848	4
2	3487	701.06396301797	5
2	3489	701.909061099021	6
2	3490	702.057610432443	5
2	3496	702.929816825865	6
2	3497	703.037764563796	5
2	3501	703.156147659573	6
2	3502	704.176479231019	5
2	3506	704.514189176068	6
2	3509	705.263491352193	5
2	3513	706.133440299684	6
2	3514	706.432545374531	5
2	3517	707.506286032974	4
2	3520	708.672014177601	3
2	3523	709.593968223046	2
2	3527	709.872403773919	3
2	3529	710.277431642985	4
2	3531	710.427098844837	5
2	3532	710.584146194543	4
2	3535	711.581146851751	3
2	3539	712.129794721335	4
2	3541	712.162200893512	5
2	3542	712.719677786446	4
2	3545	713.596663679472	3
2	3548	714.548699630714	2
2	3551	715.585474773227	1
2	3555	716.406883545534	2
2	3556	716.6378082255	1
2	3559	717.44324394391	0
2	3566	718.642743769243	1
2	3568	718.738734987645	2
2	3570	718.782035551836	3
2	3572	718.951474161564	4
2	3573	719.049779602151	3
2	3577	719.439688865057	4
2	3580	719.9635233787	3
2	3584	720.314534350074	4
2	3585	720.942617469013	3
2	3588	722.135679297813	2
2	3591	722.95121429154	1
2	3594	723.75742416737	0
2	3598	723.934869064365	1
2	3600	724.601653358605	2
2	3601	724.905913553027	1
2	3604	725.930965262105	0
2	3608	725.966903567651	1
2	3609	727.029904465855	0
2	3615	727.595504809775	1
2	3616	727.881668422849	0
2	3620	728.123909503681	1
2	3622	728.902365280414	2
2	3623	728.95398461615	1
2	3626	730.121382544481	0
2	3630	730.246625834566	1
2	3632	731.160641705148	2
2	3633	731.314863399801	1
2	3637	731.416002837506	2
2	3638	732.465506314219	1
2	3641	733.345401799412	0
2	3661	737.632491735343	1
2	3662	738.282879685158	0
2	3672	740.73728683601	1
2	3673	741.202953922203	0
2	3688	744.281723264461	1
2	3689	745.160438800244	0
2	3696	746.380142906934	1
2	3699	747.238896419121	0
2	3708	748.345276323451	1
2	3709	749.123130698422	0
2	3718	750.815646296015	1
2	3719	750.959406383442	0
2	3726	752.495283912042	1
2	3727	753.030494748069	0
2	3767	761.077827021301	1
2	3768	761.910374914309	0
2	3779	763.192527017987	1
2	3780	763.952063145408	0
2	3789	765.679906644313	1
2	3790	766.08252880528	0
2	3799	767.622471859479	1
2	3800	767.933346756653	0
2	3809	768.901470794118	1
2	3810	769.60672056136	0
2	3819	771.397995610966	1
2	3820	771.51616834813	0
2	3830	774.222618472884	1
2	3831	774.690992960905	0
2	3880	809.085140898987	1
2	3881	809.468207962789	0
2	3895	813.14302201334	1
2	3896	813.617566762883	0
2	3950	841.471457732728	1
2	3951	841.97827549538	0
2	3955	842.367020742002	1
2	3958	843.040953514058	0
2	3965	844.516844827319	1
2	3967	844.746140584922	2
2	3968	845.124286862914	1
2	3971	846.135221209269	0
2	3997	851.02542645429	1
2	3998	851.612344073733	0
2	4007	853.043821870873	1
2	4008	853.673487897166	0
2	4050	870.129223756195	1
2	4051	870.343218779044	0
2	4055	870.88936098572	1
2	4056	871.533901990151	0
2	4060	872.029159790749	1
2	4061	872.519171680922	0
2	4080	877.75483809786	1
2	4081	878.154936337362	0
2	4090	879.076207314115	1
2	4091	879.966609721802	0
2	4110	883.723482851516	1
2	4111	884.205974693074	0
2	4132	887.891250140126	1
2	4135	887.964430244035	0
2	4139	888.19359442225	1
2	4140	889.001846104442	0
2	4147	890.524429349652	1
2	4149	890.626125728444	2
2	4150	891.29779646122	1
2	4154	891.572723278787	2
2	4158	892.217747338469	3
2	4159	892.469349191199	2
2	4163	892.696155614198	3
2	4165	893.329737832552	4
2	4166	893.358628662071	3
2	4169	894.542947225879	2
2	4173	895.250218296168	3
2	4175	895.429506434368	4
2	4176	895.559009484156	3
2	4180	896.395093991297	4
2	4181	896.446313457238	3
2	4184	897.449134598254	2
2	4188	898.362436782969	3
2	4189	898.492313248059	2
2	4193	898.492613776759	3
2	4194	899.309364945768	2
2	4198	899.321957621942	3
2	4199	900.472033850896	2
2	4203	900.606899267183	3
2	4204	901.653188321414	2
2	4208	902.072152484391	3
2	4209	902.819751363295	2
2	4213	903.047164262777	3
2	4214	903.692931968673	2
2	4217	904.720289767674	1
2	4221	904.84815517558	2
2	4223	905.439936225581	3
2	4224	905.612580836146	2
2	4228	905.838764325633	3
2	4231	906.601958235587	2
2	4234	907.59626031234	1
2	4237	908.506008527103	0
2	4241	909.134799506217	1
2	4242	909.691162004276	0
2	4249	911.020021217106	1
2	4251	911.205177169443	2
2	4253	911.354032980116	3
2	4255	911.46706516675	4
2	4256	911.79706987259	3
2	4259	912.666323939571	2
2	4265	913.076900154384	3
2	4267	913.430424611563	4
2	4268	913.748085566098	3
2	4272	913.989299241107	4
2	4273	914.670326840645	3
2	4277	915.584093929752	4
2	4278	915.722285574628	3
2	4282	916.429196551189	4
2	4283	916.748933618562	3
2	4286	917.73574786107	2
2	4290	918.240859558582	3
2	4291	918.642567705595	2
2	4297	919.574433317867	3
2	4298	919.796528890495	2
2	4301	920.613165822205	1
2	4305	920.765980990291	2
2	4306	921.424487200891	1
2	4310	921.81667945913	2
2	4311	922.380739849107	1
2	4315	922.845061532965	2
2	4317	922.942509356399	3
2	4319	923.006410537728	4
2	4320	923.460988041246	3
2	4324	923.609529341973	4
2	4325	924.45229057013	3
2	4328	925.331657325616	2
2	4332	925.811722699448	3
2	4333	926.14393735039	2
2	4336	926.97263444853	1
2	4339	928.086530503491	0
2	4343	928.311353439772	1
2	4345	928.74349062258	2
2	4346	929.275647837436	1
2	4350	929.446095605142	2
2	4351	930.091822346533	1
2	4354	931.089884561906	0
2	4358	931.312000613602	1
2	4360	932.000118325767	2
2	4361	932.186461503571	1
2	4365	932.481784704452	2
2	4366	933.226998468349	1
2	4370	933.429811160732	2
2	4372	933.760289586043	3
2	4373	934.041908039199	2
2	4376	935.145225445134	1
2	4379	936.287010482279	0
2	4383	936.773926137492	1
2	4385	937.395026743226	2
2	4386	937.441689587524	1
2	4389	938.24393958929	0
2	4393	939.054575425301	1
2	4394	939.344507961581	0
2	4398	939.504738614151	1
2	4400	940.023777257602	2
2	4401	940.348307798012	1
2	4405	940.404284669319	2
2	4406	941.540670618462	1
2	4410	942.102197437447	2
2	4411	942.394526451501	1
2	4415	942.460617028714	2
2	4416	943.395242752368	1
2	4419	944.408278690139	0
2	4423	944.494720424496	1
2	4424	945.491530826735	0
2	4428	946.099010083885	1
2	4429	946.630416113465	0
2	4436	948.055672346809	1
2	4437	948.499434017996	0
2	4444	949.754440596161	1
2	4447	950.73415138633	0
2	4454	952.071188423039	1
2	4455	952.36969281747	0
2	4512	964.497718549862	1
2	4513	965.478666708907	0
2	4530	969.001704258314	1
2	4533	969.895587818717	0
2	4540	971.277859442678	1
2	4541	971.911487127954	0
2	4580	982.735316590912	1
2	4581	982.794386311314	0
2	4605	987.177195885904	1
2	4606	988.037755636596	0
2	4615	989.111653846035	1
2	4618	990.167031197133	0
2	4627	991.593142043595	1
2	4628	992.176373565546	0
2	4639	993.553197823601	1
2	4640	994.150683164293	0
2	4646	995.117836239362	1
2	4647	995.201569875026	0
2	4651	995.530353230024	1
2	4653	996.07480473385	2
2	4654	996.25122213147	1
2	4660	996.594563917586	2
2	4661	997.195550061924	1
2	4665	997.788023053339	2
2	4666	998.253767072571	1
2	4669	999.259154343022	0
2	4676	1000.725584710242	1
2	4679	1001.336501210159	0
2	4683	1001.435138184861	1
2	4684	1002.332970304763	0
2	4688	1002.364741542792	1
2	4689	1003.18457163663	0
2	4699	1005.414755904302	1
2	4701	1005.42214066803	2
2	4704	1006.135759107744	1
2	4710	1006.844159408935	2
2	4711	1007.13003231238	1
2	4715	1007.523971849683	2
2	4717	1007.721266950891	3
2	4718	1008.238279047863	2
2	4721	1009.258088005309	1
2	4725	1009.455521929914	2
2	4726	1010.196347446715	1
2	4730	1010.934867156898	2
2	4731	1011.040035615744	1
2	4734	1012.138916926527	0
2	4738	1012.751570920688	1
2	4740	1012.822830296067	2
2	4741	1013.198205624869	1
2	4744	1014.150676212622	0
2	4751	1015.229282586999	1
2	4753	1015.407259949785	2
2	4754	1015.966588709387	1
2	4758	1016.708857891028	2
2	4759	1016.77990527337	1
2	4764	1017.825527151186	0
2	4773	1019.003141327355	1
2	4775	1019.555912305745	2
2	4777	1019.861203290799	3
2	4778	1019.875001467369	2
2	4782	1020.171333759532	3
2	4784	1020.387352235879	4
2	4787	1020.696039955761	3
2	4793	1020.801252349779	4
2	4795	1020.842184596845	5
2	4796	1021.500568452269	4
2	4799	1022.495349706035	3
2	4805	1022.722488061853	4
2	4808	1023.573533561338	3
2	4811	1024.399630682521	2
2	4815	1024.743672089535	3
2	4817	1024.927423085433	4
2	4818	1025.311243714836	3
2	4822	1025.577245462935	4
2	4823	1026.226076168266	3
2	4827	1026.825206707421	4
2	4828	1027.114345359408	3
2	4832	1027.187996628344	4
2	4834	1027.594344451042	5
2	4835	1028.282441227861	4
2	4838	1029.198179973174	3
2	4841	1030.222039795272	2
2	4845	1030.339855863506	3
2	4846	1031.201454619855	2
2	4852	1032.164251571893	3
2	4853	1032.174152819883	2
2	4857	1032.461620713522	3
2	4861	1033.033292608987	4
2	4862	1033.317327680509	3
2	4866	1033.773951518728	4
2	4868	1033.918556919853	5
2	4869	1034.222735806159	4
2	4873	1034.679723928053	5
2	4874	1035.15694102624	4
2	4878	1035.760557295067	5
2	4880	1035.864352540291	6
2	4882	1036.196888580941	7
2	4883	1036.201333319187	6
2	4887	1036.676400750891	7
2	4888	1037.234802470613	6
2	4892	1037.426538211546	7
2	4893	1038.354417882278	6
2	4896	1039.251965555805	5
2	4899	1040.055510323844	4
2	4903	1040.30989669292	5
2	4905	1040.658571083246	6
2	4907	1040.797813433369	7
2	4909	1040.916038686657	8
2	4911	1040.935978273671	9
2	4912	1040.989246867388	8
2	4916	1041.001412585413	9
2	4918	1041.062602185201	10
2	4919	1042.050172534842	9
2	4922	1042.874984478556	8
2	4926	1043.583768854805	9
2	4927	1043.958071363975	8
2	4931	1044.783705689767	9
2	4932	1045.152077454307	8
2	4935	1046.258910678585	7
2	4939	1046.866486977992	8
2	4941	1046.87739095514	9
2	4942	1047.401145338152	8
2	4945	1048.474354615134	7
2	4949	1048.488421448922	8
2	4952	1049.487105104958	7
2	4956	1049.993322936493	8
2	4957	1050.422535618932	7
2	4961	1051.519449009379	8
2	4962	1051.522390194588	7
2	4966	1052.238454296528	8
2	4968	1052.506502889171	9
2	4970	1052.536272102581	10
2	4971	1052.608312567767	9
2	4975	1053.074757808659	10
2	4976	1053.577927583713	9
2	4979	1054.685665592063	8
2	4985	1055.703912933498	9
2	4986	1055.815333082039	8
2	4989	1056.850476940978	7
2	4993	1056.886138508315	8
2	4994	1057.73652017552	7
2	5000	1058.014888224556	8
2	5001	1058.884619802307	7
2	5004	1059.763037253521	6
2	5008	1060.033404331717	7
2	5009	1060.656488452736	6
2	5013	1060.77579590079	7
2	5014	1061.831315162476	6
2	5017	1063.027050011117	5
2	5021	1063.56195818003	6
2	5022	1064.054985071883	5
2	5025	1065.01930597888	4
2	5029	1065.238449336396	5
2	5030	1066.038291496017	4
2	5034	1066.160902189581	5
2	5036	1066.63012284887	6
2	5037	1067.051032917832	5
2	5040	1068.248469143805	4
2	5043	1069.314979372152	3
2	5047	1069.429587134969	4
2	5048	1070.3388667546	3
2	5051	1071.386544937805	2
2	5055	1071.975783197226	3
2	5056	1072.235996671465	2
2	5059	1073.300811300498	1
2	5063	1074.008844417359	2
2	5065	1074.160918819187	3
2	5067	1074.225936373148	4
2	5068	1074.491584997789	3
2	5072	1075.337895759285	4
2	5073	1075.391136695423	3
2	5077	1076.544426702761	4
2	5078	1076.567823610713	3
2	5082	1076.970165216641	4
2	5084	1077.584343903263	5
2	5085	1077.69778888717	4
2	5088	1078.535626580545	3
2	5092	1079.427283224303	4
2	5093	1079.444988153202	3
2	5097	1079.885849473391	4
2	5098	1080.612102012408	3
2	5101	1081.420031482519	2
2	5105	1081.469704720215	3
2	5107	1081.568209159895	4
2	5109	1081.614697542528	5
2	5110	1082.435799655763	4
2	5114	1083.231684561709	5
2	5115	1083.432067362664	4
2	5119	1084.081068450069	5
2	5120	1084.283273919744	4
2	5123	1085.280689068863	3
2	5127	1086.013650593961	4
2	5128	1086.189424503947	3
2	5132	1086.370211802341	4
2	5134	1086.507163332321	5
2	5136	1086.886614809536	6
2	5137	1087.3424065979	5
2	5141	1088.456825613347	6
2	5142	1088.518054058849	5
2	5145	1089.687410158924	4
2	5149	1090.034808946237	5
2	5151	1090.217440051686	6
2	5152	1090.736173916402	5
2	5156	1091.71909138814	6
2	5157	1091.831684864945	5
2	5161	1091.876139484672	6
2	5163	1092.140869566336	7
2	5164	1092.859900203421	6
2	5167	1094.05844169937	5
2	5171	1094.140129828211	6
2	5173	1094.245702795268	7
2	5174	1094.865378950703	6
2	5178	1095.862940254819	7
2	5179	1095.918943400475	6
2	5182	1096.773807220141	5
2	5186	1096.980275242684	6
2	5188	1097.183297220339	7
2	5189	1097.954037387929	6
2	5192	1099.153897340576	5
2	5196	1100.101208841197	6
2	5198	1100.254134477458	7
2	5199	1100.265119946076	6
2	5202	1101.148311199787	5
2	5206	1101.583772221326	6
2	5207	1101.999199506993	5
2	5210	1103.158084822054	4
2	5213	1104.298014303743	3
2	5217	1105.469727378575	4
2	5218	1105.487259971238	3
2	5221	1106.561547816153	2
2	5227	1107.019998288174	3
2	5228	1107.453711966592	2
2	5232	1107.83638728362	3
2	5234	1108.108991277016	4
2	5235	1108.455499341413	3
2	5239	1109.145795006409	4
2	5240	1109.296476325094	3
2	5244	1109.406698771668	4
2	5245	1110.434164025336	3
2	5249	1110.999510792823	4
2	5250	1111.537601384222	3
2	5254	1111.8813379859	4
2	5255	1112.564958486594	3
2	5259	1112.617638645121	4
2	5260	1113.699668572079	3
2	5266	1114.172740665319	4
2	5267	1114.700545792542	3
2	5270	1115.681355284135	2
2	5274	1116.153314741763	3
2	5275	1116.773999337553	2
2	5279	1116.784299240209	3
2	5280	1117.7739743199	2
2	5284	1117.951205558704	3
2	5285	1118.783841917364	2
2	5289	1119.12757458423	3
2	5290	1119.742734153176	2
2	5294	1119.920535626322	3
2	5296	1119.959318190914	4
2	5297	1120.601199296097	3
2	5300	1121.518707380517	2
2	5303	1122.554630975685	1
2	5307	1122.822902355798	2
2	5308	1123.481300720367	1
2	5312	1123.813897167907	2
2	5313	1124.35846039772	1
2	5316	1125.336400487348	0
2	5320	1125.831099439973	1
2	5321	1126.171900544297	0
2	5325	1126.374785193255	1
2	5326	1127.274264899343	0
2	5330	1127.444289752402	1
2	5331	1128.464450062792	0
2	5338	1129.890780863827	1
2	5339	1130.543193572089	0
2	5343	1131.055494359104	1
2	5346	1131.591982445382	0
2	5356	1133.576502215254	1
2	5358	1133.723927233306	2
2	5361	1134.366598285251	1
2	5367	1135.362458237772	2
2	5368	1135.535125236661	1
2	5372	1136.290158146135	2
2	5373	1136.409971427155	1
2	5376	1137.232891037298	0
2	5380	1137.29269546954	1
2	5382	1137.677974619995	2
2	5383	1138.390930333065	1
2	5387	1138.682356041005	2
2	5388	1139.37603772728	1
2	5392	1139.387259493087	2
2	5394	1139.471214836602	3
2	5395	1140.224040629792	2
2	5398	1141.394599733206	1
2	5402	1142.005291110635	2
2	5403	1142.42548748309	1
2	5407	1142.480157184437	2
2	5409	1142.606208663181	3
2	5410	1143.376162014699	2
2	5414	1143.379559899238	3
2	5415	1144.418713957521	2
2	5418	1145.396962566844	1
2	5421	1146.287122817787	0
2	5428	1147.315170214663	1
2	5429	1148.116193728505	0
2	5436	1149.573797746646	1
2	5437	1150.386348924303	0
2	5446	1151.936880567436	1
2	5448	1152.186257989677	2
2	5449	1152.449596026522	1
2	5452	1153.324631329608	0
2	5456	1153.628312966505	1
2	5457	1154.259614558593	0
2	5465	1155.045256825565	1
2	5466	1155.149291330837	0
2	5473	1156.282356524034	1
2	5474	1157.018026456685	0
2	5481	1158.481171331814	1
2	5484	1158.77304007195	0
2	5488	1159.189347116617	1
2	5493	1159.824849050474	0
2	5497	1160.086930183689	1
2	5499	1160.225363181263	2
2	5500	1160.971507074573	1
2	5503	1162.13790475445	0
2	5561	1174.617610117423	1
2	5562	1175.378398433962	0
2	5571	1176.560673801992	1
2	5573	1176.772224783389	2
2	5574	1177.456265710928	1
2	5579	1178.584224322979	0
2	5585	1178.882426052147	1
2	5588	1179.437592436355	0
2	5592	1179.900051908893	1
2	5593	1180.433597385958	0
2	5600	1181.589767411819	1
2	5602	1181.681954586153	2
2	5603	1182.557364687864	1
2	5608	1183.633699208573	0
2	5620	1186.046522308269	1
2	5621	1186.203987547551	0
2	5625	1186.93891720092	1
2	5627	1187.037091165669	2
2	5628	1187.064389404078	1
2	5632	1187.571194969161	2
2	5633	1188.256679124554	1
2	5638	1189.106377671083	0
2	5645	1191.028295193216	1
2	5648	1191.116027684586	0
2	5652	1191.335679379955	1
2	5656	1191.758215622813	2
2	5657	1192.089925251605	1
2	5660	1193.089110366518	0
2	5664	1193.19562268152	1
2	5665	1194.275916183351	0
2	5669	1194.798779425117	1
2	5670	1195.40874287708	0
2	5685	1199.3791196787	1
2	5686	1199.433304137161	0
2	5690	1200.010439384292	1
2	5691	1200.581158464851	0
2	5700	1202.386100133889	1
2	5703	1202.473814044596	0
2	5710	1204.544195083791	1
2	5711	1204.731399943941	0
2	5718	1206.35106827653	1
2	5719	1206.783801000268	0
2	5752	1213.469043757616	1
2	5753	1214.414307359962	0
2	5796	1221.94385379134	1
2	5797	1222.400977753366	0
2	5804	1223.947346815116	1
2	5805	1224.512464962511	0
2	5814	1225.682878917938	1
2	5815	1226.405893664977	0
2	5824	1228.113126163093	1
2	5825	1228.14063054303	0
2	5829	1228.433221313295	1
2	5830	1229.257304592415	0
2	5836	1229.741130632113	1
2	5838	1229.811033456636	2
2	5839	1230.182237874608	1
2	5845	1230.542540443179	2
2	5847	1231.033473958782	3
2	5848	1231.268078652568	2
2	5851	1232.430733961783	1
2	5855	1232.910823779022	2
2	5856	1233.458507463786	1
2	5860	1233.755639202262	2
2	5861	1234.321822991952	1
2	5864	1235.356595150087	0
2	5870	1236.322712330194	1
2	5871	1236.528777193543	0
2	5878	1237.890320986958	1
2	5880	1238.178787926513	2
2	5881	1238.571296509806	1
2	5886	1239.685887997396	0
2	5890	1239.75916796817	1
2	5893	1240.737315697115	0
2	5897	1241.483825712227	1
2	5899	1241.719869972243	2
2	5900	1241.818306737192	1
2	5904	1241.996904253739	2
2	5905	1243.017582243759	1
2	5908	1243.949545116149	0
2	5912	1244.205069043097	1
2	5913	1244.860866629783	0
2	5920	1245.898443529482	1
2	5922	1246.141482017351	2
2	5925	1246.869208403755	1
2	5930	1247.69541145841	0
2	5942	1249.809859540602	1
2	5943	1250.598589755486	0
2	5950	1251.691556097721	1
2	5951	1252.417098680123	0
2	5955	1252.571948696624	1
2	5959	1252.929213359668	2
2	5960	1253.379411622866	1
2	5963	1254.562192806586	0
2	5967	1255.32245951499	1
2	5968	1255.591601710285	0
2	5972	1256.132530018472	1
2	5974	1256.345251687164	2
2	5975	1256.566821349955	1
2	5978	1257.489904880787	0
2	5982	1258.150582460135	1
2	5983	1258.529228667526	0
2	5987	1258.574928172773	1
2	5989	1258.83353603545	2
2	5990	1259.376944373811	1
2	5994	1259.774820195306	2
2	5996	1259.944642737855	3
2	5997	1260.539258032183	2
2	6000	1261.711218536629	1
2	6003	1262.66117360404	0
2	6007	1263.522527945759	1
2	6008	1263.555617709069	0
2	6012	1264.100192048688	1
2	6014	1264.305759537432	2
2	6015	1264.616347654147	1
2	6019	1265.072605214574	2
2	6020	1265.614422635624	1
2	6023	1266.478033325245	0
2	6030	1268.183654867009	1
2	6032	1268.242041500616	2
2	6033	1268.324328052328	1
2	6037	1268.865721759213	2
2	6038	1269.143273681571	1
2	6042	1269.304084664724	2
2	6043	1270.140898980369	1
2	6046	1271.021093574521	0
2	6055	1272.876413110184	1
2	6056	1273.114775718172	0
2	6068	1275.434893646081	1
2	6070	1275.692890930799	2
2	6073	1276.156402464659	1
2	6077	1276.890459148848	2
2	6080	1277.23677546166	1
2	6083	1278.334212838655	0
2	6090	1280.058819843725	1
2	6091	1280.195477747248	0
2	6097	1280.661563367375	1
2	6098	1281.14428488182	0
2	6105	1283.02236663482	1
2	6106	1283.353976807819	0
2	6115	1284.797307179728	1
2	6117	1285.331106202864	2
2	6118	1285.42333443666	1
2	6122	1286.059995168238	2
2	6123	1286.535308842064	1
2	6127	1286.631534763554	2
2	6130	1287.384913125617	1
2	6133	1288.188675852662	0
2	6137	1288.342775455078	1
2	6139	1288.736907598842	2
2	6140	1289.201756819787	1
2	6143	1290.13204978172	0
2	6147	1291.105126080401	1
2	6148	1291.273418309337	0
2	6152	1292.171071208847	1
2	6154	1292.361882675698	2
2	6155	1292.436753490365	1
2	6159	1292.845280171805	2
2	6160	1293.458669229395	1
2	6166	1293.626798193523	2
2	6169	1294.490618638772	1
2	6173	1295.295301532455	2
2	6174	1295.43867457135	1
2	6178	1295.5373194834	2
2	6179	1296.563608288377	1
2	6183	1297.258282453953	2
2	6184	1297.550509780071	1
2	6188	1297.735799340881	2
2	6189	1298.397792849581	1
2	6193	1298.488053011903	2
2	6195	1299.229734560272	3
2	6196	1299.503674271222	2
2	6201	1300.640771653581	1
2	6205	1301.395563271825	2
2	6206	1301.779677757233	1
2	6209	1302.717972921844	0
2	6216	1303.936401375732	1
2	6217	1304.879259517214	0
2	6221	1305.54822109303	1
2	6222	1305.915170540831	0
2	6226	1306.912617080929	1
2	6227	1307.024553314115	0
2	6231	1307.229394149655	1
2	6233	1307.75771875058	2
2	6234	1307.835411251693	1
2	6238	1307.895354064843	2
2	6239	1308.944672000672	1
2	6244	1309.884322151433	0
2	6250	1310.071752806168	1
2	6252	1310.78715569762	2
2	6253	1310.809832331243	1
2	6256	1312.008315506003	0
2	6263	1313.140522826048	1
2	6265	1313.570873043505	2
2	6267	1313.58829132387	3
2	6268	1314.201132739879	2
2	6273	1315.142886459812	1
2	6276	1315.959193166796	0
2	6280	1316.241791775798	1
2	6282	1316.595076971241	2
2	6283	1316.879404185604	1
2	6287	1317.209468156833	2
2	6289	1317.212159302051	3
2	6290	1317.881149298124	2
2	6294	1317.950759536121	3
2	6295	1318.700171932843	2
2	6298	1319.612595524624	1
2	6302	1319.679352487351	2
2	6304	1319.802674198444	3
2	6305	1320.431459197853	2
2	6308	1321.328488489691	1
2	6312	1321.966931558207	2
2	6315	1322.517343377773	1
2	6319	1322.52360802646	2
2	6320	1323.388870894987	1
2	6323	1324.578459333241	0
2	6327	1325.413132947283	1
2	6328	1325.728245817017	0
2	6332	1325.954831216099	1
2	6334	1326.440434104557	2
2	6335	1326.631611806326	1
2	6339	1327.053245291706	2
2	6340	1327.615674929306	1
2	6344	1328.273628581662	2
2	6345	1328.512853989363	1
2	6348	1329.551105843563	0
2	6355	1331.516788782477	1
2	6356	1331.58300436417	0
2	6365	1332.72524901568	1
2	6366	1333.521637452565	0
2	6428	1348.24091858414	1
2	6429	1348.787148943436	0
2	6446	1352.083915178386	1
2	6449	1352.923626579703	0
2	6460	1354.163869762075	1
2	6461	1354.799144624533	0
2	6465	1355.145513563858	1
2	6468	1355.694476274202	0
2	6472	1356.089006564042	1
2	6475	1356.702286779868	0
2	6505	1363.226900652777	1
2	6507	1363.278892193672	2
2	6510	1363.599418527899	1
2	6513	1364.577005621591	0
2	6517	1364.855357233865	1
2	6520	1365.482843429023	0
2	6527	1366.385949473579	1
2	6528	1367.432022466404	0
2	6532	1367.633673934939	1
2	6534	1368.102146857876	2
2	6537	1368.605787292575	1
2	6541	1369.413900510816	2
2	6542	1369.803040290052	1
2	6546	1369.873172609988	2
2	6547	1370.829786411939	1
2	6550	1371.942031081287	0
2	6554	1372.601847314477	1
2	6555	1373.031158591142	0
2	6565	1375.522117752152	1
2	6567	1375.576718589417	2
2	6569	1376.094585212651	3
2	6573	1376.148772149474	4
2	6574	1376.159341593725	3
2	6578	1376.268768499947	4
2	6581	1377.236489297808	3
2	6585	1377.751046268921	4
2	6586	1378.116339309034	3
2	6589	1379.205221237228	2
2	6593	1379.685779504761	3
2	6596	1380.01909136361	2
2	6600	1380.15188893573	3
2	6602	1380.312851832916	4
2	6603	1381.007038988439	3
2	6608	1381.849792988585	2
2	6612	1382.134435824095	3
2	6613	1382.994084609287	2
2	6617	1383.446073359495	3
2	6619	1383.449375751872	4
2	6620	1384.115483707829	3
2	6623	1385.214404429203	2
2	6627	1386.090656736736	3
2	6628	1386.228115930395	2
2	6632	1386.672991171953	3
2	6633	1387.125115159886	2
2	6636	1387.947847122779	1
2	6640	1388.708328914447	2
2	6641	1388.916372346865	1
2	6646	1389.755726589436	0
2	6650	1390.400983833223	1
2	6651	1390.594654793373	0
2	6655	1391.036592756045	1
2	6656	1391.617792745015	0
2	6660	1392.297124329242	1
2	6661	1392.46576855349	0
2	6667	1392.867281401866	1
2	6668	1393.34350609182	0
2	6672	1393.479262586653	1
2	6673	1394.185134793619	0
2	6677	1394.217609626917	1
2	6679	1394.569999203024	2
2	6680	1395.094944038695	1
2	6684	1395.628394201778	2
2	6685	1396.142703370085	1
2	6689	1396.531622751801	2
2	6690	1397.042346391441	1
2	6693	1397.992739628521	0
2	6697	1398.864726526705	1
2	6699	1398.912131748052	2
2	6700	1398.997193089021	1
2	6704	1399.966604184476	2
2	6705	1399.983244061643	1
2	6711	1400.293767034244	2
2	6715	1400.542260087309	3
2	6716	1400.81882714842	2
2	6720	1401.279916423485	3
2	6721	1401.703462307421	2
2	6725	1402.014960831119	3
2	6726	1402.550576779698	2
2	6729	1403.644905869649	1
2	6732	1404.59238685573	0
2	6739	1405.745423772383	1
2	6740	1406.830477580787	0
2	6749	1408.013437376828	1
2	6751	1408.365071615102	2
2	6753	1408.614530096926	3
2	6754	1409.09741718777	2
2	6759	1410.216082102419	1
2	6762	1411.34212565402	0
2	6766	1412.114131985952	1
2	6767	1412.302872939114	0
2	6774	1413.534441495628	1
2	6776	1414.123715694722	2
2	6777	1414.366439580158	1
2	6782	1415.554524346799	0
2	6786	1416.050003093059	1
2	6787	1416.379624355011	0
2	6794	1417.517618708933	1
2	6796	1417.572220893923	2
2	6797	1418.463224449646	1
2	6802	1419.273653807104	0
2	6806	1420.005095472952	1
2	6807	1420.21207787747	0
2	6811	1420.297026352425	1
2	6812	1421.210275454619	0
2	6816	1421.772471421329	1
2	6817	1422.092375160647	0
2	6826	1424.050907265748	1
2	6827	1424.052679383554	0
2	6851	1427.912221536934	1
2	6852	1428.736912867878	0
2	6861	1430.505089461566	1
2	6862	1430.603305355165	0
2	6869	1431.93792349645	1
2	6870	1432.801427718982	0
2	6879	1434.423604836709	1
2	6882	1434.934768610526	0
2	6886	1435.611126186788	1
2	6889	1435.736067465212	0
2	6899	1438.46772563254	1
2	6900	1438.583633366585	0
2	6904	1439.265244468799	1
2	6905	1439.401180821829	0
2	6921	1441.906727042356	1
2	6922	1442.464301989492	0
2	6958	1450.571462393971	1
2	6959	1450.880650521336	0
2	6974	1452.771547429566	1
2	6975	1452.946621820783	0
2	6982	1453.979060382711	1
2	6983	1454.818762986908	0
2	6989	1455.099419464934	1
2	6991	1455.427973824797	2
2	6992	1455.945860094751	1
2	6996	1456.025204000828	2
2	6997	1457.043712810415	1
2	7000	1457.874124068848	0
2	7004	1458.127105271714	1
2	7005	1458.984639554924	0
2	7009	1459.563318865851	1
2	7011	1459.718118389554	2
2	7012	1460.167122288408	1
2	7016	1460.753569665637	2
2	7017	1461.13623417419	1
2	7021	1461.346875931757	2
2	7022	1462.170203191774	1
2	7025	1463.23866427288	0
2	7043	1467.292196971933	1
2	7049	1467.97280468297	2
2	7050	1468.040431201724	1
2	7053	1468.993591514216	0
2	7059	1469.823708146478	1
2	7060	1469.894374401388	0
2	7064	1470.434342577714	1
2	7065	1470.778363074535	0
2	7069	1470.990001029075	1
2	7070	1471.60588408968	0
2	7074	1471.932448639303	1
2	7075	1472.738769972218	0
2	7106	1479.572750836091	1
2	7107	1480.323875549701	0
2	7119	1482.397369618339	1
2	7120	1483.162614038572	0
2	7129	1484.854262942882	1
2	7134	1485.235381886814	0
2	7212	1501.412952290948	1
2	7213	1501.813195293943	0
2	7220	1502.703144819248	1
2	7221	1503.81079636634	0
2	7236	1506.727571686701	1
2	7239	1507.344632760049	0
2	7245	1507.721983473063	1
2	7246	1508.220129143992	0
2	7250	1508.614912789034	1
2	7253	1509.09601701981	0
2	7262	1510.784871189614	1
2	7263	1511.160618939703	0
2	7272	1512.902075721907	1
2	7273	1513.014950289471	0
2	7277	1513.445060678029	1
2	7280	1514.03446723743	0
2	7284	1514.221259144515	1
2	7285	1515.136121793451	0
2	7291	1516.015310639283	1
2	7292	1516.332375040358	0
2	7303	1517.586447875623	1
2	7304	1518.139068823481	0
2	7313	1520.03705001824	1
2	7314	1520.411614105744	0
2	7328	1523.174882607156	1
2	7329	1523.525636678548	0
2	7333	1524.116525399639	1
2	7334	1524.508136027479	0
2	7338	1524.750811722063	1
2	7341	1525.699120722604	0
2	7353	1528.566309060105	1
2	7354	1529.088563250924	0
2	7363	1530.316733935735	1
2	7364	1531.38998963487	0
2	7370	1531.8811603537	1
2	7371	1532.37646925653	0
2	7385	1534.796545453635	1
2	7386	1535.418858063953	0
2	7395	1536.882163258385	1
2	7396	1537.473547304688	0
2	7407	1538.859170219532	1
2	7409	1539.05248412695	2
2	7412	1539.383635592634	1
2	7415	1540.286614581557	0
2	7419	1540.874754118615	1
2	7424	1541.22805347134	0
2	7431	1542.306778387756	1
2	7433	1542.866556483055	2
2	7434	1543.168478208768	1
2	7438	1543.255295262882	2
2	7439	1544.226431947003	1
2	7443	1544.81624875034	2
2	7444	1545.082029460079	1
2	7448	1545.601667202177	2
2	7449	1546.094865278981	1
2	7452	1547.128286651603	0
2	7459	1548.06740668037	1
2	7461	1548.346401493968	2
2	7462	1548.821029122628	1
2	7466	1548.996481804409	2
2	7469	1549.888203540712	1
2	7473	1550.744039892291	2
2	7474	1550.838272427383	1
2	7478	1551.582508435973	2
2	7479	1551.811354066606	1
2	7482	1552.96171714802	0
2	7489	1553.831745874478	1
2	7491	1553.870712371585	2
2	7493	1554.443540512841	3
2	7494	1554.698247752234	2
2	7498	1554.811708106077	3
2	7501	1555.866500298015	2
2	7504	1556.762722435582	1
2	7507	1557.736742576945	0
2	7511	1558.211108504782	1
2	7513	1558.291884273834	2
2	7514	1558.719051445543	1
2	7518	1558.722678250661	2
2	7522	1559.283313255159	3
2	7523	1559.698433614603	2
2	7526	1560.577574398915	1
2	7529	1561.38486930112	0
2	7533	1561.39313931982	1
2	7534	1562.395267364929	0
2	7541	1563.428055626432	1
2	7542	1564.445777811098	0
2	7551	1566.298288013609	1
2	7552	1566.410901045601	0
2	7561	1567.934537151784	1
2	7562	1568.20492071741	0
2	7566	1568.286111630951	1
2	7567	1569.255615369777	0
2	7576	1570.51807544131	1
2	7577	1571.297634784306	0
2	7586	1573.05226859777	1
2	7587	1573.186851052462	0
2	7594	1575.124749144176	1
2	7595	1575.129983419168	0
2	7604	1576.591573985252	1
2	7606	1577.013293622997	2
2	7607	1577.262531385559	1
2	7612	1578.39912534625	0
2	7616	1578.671902063976	1
2	7619	1579.353686312481	0
2	7623	1579.677668914272	1
2	7624	1580.409871444374	0
2	7633	1581.784852537499	1
2	7634	1582.624583801056	0
2	7638	1582.645413070151	1
2	7639	1583.502977867785	0
2	7646	1584.852016045276	1
2	7647	1585.790195489849	0
2	7654	1587.469159974567	1
2	7655	1587.872988528746	0
2	7671	1590.390275273008	1
2	7672	1590.977996096469	0
2	7709	1598.524513884865	1
2	7710	1598.744264990079	0
2	7717	1599.916912055396	1
2	7720	1600.607640719681	0
2	7754	1607.805626754677	1
2	7755	1608.137513864121	0
2	7766	1609.995669757556	1
2	7767	1610.309763440757	0
2	7804	1618.1828294515	1
2	7805	1618.869691669929	0
2	7815	1621.435050538214	1
2	7816	1621.762265018083	0
2	7825	1623.061080386481	1
2	7828	1623.660508536257	0
2	7842	1626.536258909719	1
2	7843	1626.697493782349	0
2	7949	1646.619752970558	1
2	7950	1647.279626332305	0
2	7964	1650.255188734517	1
2	7965	1650.50431977826	0
2	7969	1650.662773974133	1
2	7972	1651.508893692762	0
2	7981	1653.548656605168	1
2	7982	1653.782333503188	0
2	7993	1655.71782485381	1
2	7994	1655.875439949417	0
2	8003	1656.986971252531	1
2	8004	1657.734302431894	0
2	8013	1659.081321920787	1
2	8014	1659.657842069388	0
2	8023	1660.89124153339	1
2	8024	1661.948017497257	0
2	8028	1662.596450960457	1
2	8029	1663.069401144878	0
2	8036	1664.301749143292	1
2	8037	1665.081916206971	0
2	8054	1668.518700815431	1
2	8057	1668.886699459785	0
2	8085	1675.54886850239	1
2	8086	1676.157922664647	0
2	8095	1677.221023032897	1
2	8097	1677.378620846008	2
2	8098	1677.974516403944	1
2	8102	1678.027077199872	2
2	8105	1678.810933300656	1
2	8111	1679.229838892346	2
2	8112	1679.619312209625	1
2	8116	1679.995359945216	2
2	8117	1680.734407441028	1
2	8120	1681.612444237516	0
2	8127	1682.700014111086	1
2	8128	1683.375068863843	0
2	8134	1683.689870997879	1
2	8135	1684.290557588812	0
2	8139	1684.597792137029	1
2	8141	1684.97592362409	2
2	8142	1685.442075345095	1
2	8145	1686.266468260146	0
2	8149	1687.230216151298	1
2	8150	1687.287773765612	0
2	8162	1689.618974803823	1
2	8163	1690.675334168401	0
2	8170	1692.525695038866	1
2	8171	1692.721376472887	0
2	8228	1704.641352558118	1
2	8229	1705.003433948651	0
2	8236	1706.090256318888	1
2	8239	1706.995692282624	0
2	8248	1708.433706589557	1
2	8250	1708.585421902033	2
2	8251	1709.235223121463	1
2	8254	1710.11733768637	0
2	8261	1711.093549527728	1
2	8263	1711.985251605255	2
2	8265	1712.054307269648	3
2	8268	1712.217282620433	2
2	8273	1713.386723377544	1
2	8277	1713.651017565481	2
2	8278	1714.281131606631	1
2	8281	1715.111910027441	0
2	8297	1719.16920310803	1
2	8300	1720.045367248625	0
2	8304	1720.423069358855	1
2	8305	1721.161938838836	0
2	8316	1722.857614750976	1
2	8319	1723.155392172829	0
2	8323	1723.446575084745	1
2	8326	1724.329086987198	0
2	8330	1724.798103889941	1
2	8331	1725.130993425556	0
2	8338	1726.79373214047	1
2	8340	1726.865352380392	2
2	8341	1727.101440949821	1
2	8346	1728.215331760225	0
2	8353	1730.09725751342	1
2	8354	1730.517006706716	0
2	8375	1734.792193663802	1
2	8376	1734.798806330086	0
2	8385	1736.076075079761	1
2	8388	1736.77083951327	0
2	8392	1736.922620570856	1
2	8395	1737.872787356274	0
2	8399	1737.931536011422	1
2	8400	1738.776715174867	0
2	8404	1739.021249711836	1
2	8405	1739.859874644773	0
2	8409	1740.047107300906	1
2	8410	1740.975350271249	0
2	8425	1744.227702881746	1
2	8426	1745.211034306316	0
2	8442	1748.001633708086	1
2	8443	1748.254710942033	0
2	8450	1749.347212688231	1
2	8451	1750.23488650051	0
2	8458	1751.253843710232	1
2	8461	1752.172040053262	0
2	8506	1761.86869680239	1
2	8507	1762.080439271675	0
2	8524	1765.354128985988	1
2	8525	1765.996463794345	0
2	8536	1767.853588686039	1
2	8537	1768.174650170551	0
2	8544	1769.050753910188	1
2	8545	1769.829075878942	0
2	8561	1772.731177623301	1
2	8562	1773.287719950722	0
2	8574	1775.399141689126	1
2	8579	1775.961822830689	0
2	8655	1790.109183149336	1
2	8656	1790.313564245858	0
2	8665	1791.410198318434	1
2	8666	1792.40452478704	0
2	8678	1795.518560376186	1
2	8679	1795.529659886928	0
2	8685	1796.134876712911	1
2	8686	1796.488139326581	0
2	8690	1797.285490757718	1
2	8691	1797.52541612544	0
2	8695	1797.9002132097	1
2	8696	1798.707250360948	0
2	8700	1799.724358936381	1
2	8701	1799.875428476361	0
2	8705	1800.31496335774	1
2	8706	1800.689172394564	0
2	8713	1802.206651534534	1
2	8715	1802.397839959907	2
2	8716	1802.539699414083	1
2	8719	1803.574111908105	0
2	8723	1804.135255322202	1
2	8724	1804.669405231056	0
2	8736	1806.683931472455	1
2	8740	1807.113584101212	2
2	8741	1807.564710326763	1
2	8746	1808.394641081141	0
2	8750	1809.111918949446	1
2	8753	1809.446616324214	0
2	8760	1810.427376621977	1
2	8761	1811.510716552651	0
2	8770	1813.620807656467	1
2	8771	1813.840504736631	0
2	8785	1816.529886266191	1
2	8786	1816.635661682198	0
2	8793	1817.74901421952	1
2	8794	1818.459400733644	0
2	8805	1819.477060096725	1
2	8806	1820.166839560019	0
2	8818	1822.599071481665	1
2	8819	1822.956417052159	0
2	8827	1823.570115640155	1
2	8828	1823.859157261522	0
2	8835	1825.432192120721	1
2	8838	1825.73341024042	0
2	8844	1826.540788952769	1
2	8845	1826.879822270934	0
2	8873	1833.768682938518	1
2	8874	1833.879891321611	0
2	8880	1834.152302385957	1
2	8881	1834.929925642711	0
2	8895	1837.340975525934	1
2	8896	1837.451353643824	0
2	8905	1839.197770063452	1
2	8906	1839.65167329329	0
2	8917	1841.970783952759	1
2	8918	1842.018429589727	0
2	8928	1843.874503354869	1
2	8929	1845.043755621919	0
2	8940	1846.543025904776	1
2	8941	1846.991072833249	0
2	8945	1847.157540537848	1
2	8948	1848.047943913741	0
2	8952	1848.886179575677	1
2	8953	1849.234881296279	0
2	9021	1864.14404779164	1
2	9022	1864.686966399561	0
2	9033	1866.589079033051	1
2	9034	1866.593868740267	0
2	9038	1867.230097531192	1
2	9040	1867.667132407745	2
2	9041	1867.707301613028	1
2	9044	1868.861122064284	0
2	9056	1871.311750560684	1
2	9057	1871.843241339168	0
2	9061	1872.097091814759	1
2	9064	1872.928780633761	0
2	9068	1873.233527857277	1
2	9071	1873.983765853933	0
2	9075	1874.218385239514	1
2	9077	1874.72062089057	2
2	9078	1874.983332078616	1
2	9082	1875.233947481333	2
2	9083	1875.835407523709	1
2	9086	1876.752162066652	0
2	9090	1877.072951052953	1
2	9091	1877.848609923656	0
2	9095	1878.321781034539	1
2	9096	1878.673208615362	0
2	9100	1878.831261331153	1
2	9103	1879.543812489036	0
2	9107	1880.369894619985	1
2	9108	1880.70921708475	0
2	9112	1881.154009834144	1
2	9113	1881.656896723706	0
2	9117	1882.302391327053	1
2	9118	1882.764448966637	0
2	9125	1883.781675783039	1
2	9126	1884.861078284021	0
2	9130	1885.280275012609	1
2	9131	1885.705112466953	0
2	9135	1885.788197716612	1
2	9136	1886.81530230119	0
2	9140	1887.102383462182	1
2	9142	1887.336936542424	2
2	9143	1888.000800720128	1
2	9146	1889.106940551	0
2	9208	1904.161568599599	1
2	9209	1904.236731488528	0
2	9213	1904.516532871519	1
2	9215	1904.702827294028	2
2	9216	1905.331212897869	1
2	9220	1905.427865182541	2
2	9221	1906.145958605213	1
2	9225	1906.210009591552	2
2	9226	1907.277428260064	1
2	9236	1907.693009181448	2
2	9237	1908.136772219641	1
2	9240	1908.939089853214	0
2	9244	1909.024072917869	1
2	9245	1909.982206673911	0
2	9249	1910.651487562797	1
2	9250	1910.820100353742	0
2	9254	1910.912855543141	1
2	9255	1911.673855897496	0
2	9262	1913.080422956818	1
2	9264	1913.830943399954	2
2	9265	1914.069628160997	1
2	9268	1915.046396632763	0
2	9275	1916.086808442325	1
2	9277	1917.163191806998	2
2	9278	1917.234495149079	1
2	9282	1917.431126194262	2
2	9284	1917.615480396115	3
2	9287	1918.398562402177	2
2	9290	1919.556939041327	1
2	9295	1920.391715660404	0
2	9299	1921.090678180966	1
2	9300	1921.384206380315	0
2	9304	1922.172446084394	1
2	9305	1922.340772449031	0
2	9315	1924.961018109188	1
2	9316	1925.280568758111	0
2	9322	1926.066266263467	1
2	9324	1926.082874390387	2
2	9325	1926.264014800537	1
2	9329	1926.512696802843	2
2	9331	1926.570512457658	3
2	9332	1927.225151729762	2
2	9336	1927.831319076475	3
2	9338	1927.870163216686	4
2	9339	1928.198660846512	3
2	9343	1928.347236413161	4
2	9345	1929.349160787866	5
2	9346	1929.368137922782	4
2	9350	1929.632964585763	5
2	9353	1930.536554106596	4
2	9356	1931.36343788839	3
2	9359	1932.176555530904	2
2	9363	1932.352057883794	3
2	9364	1933.336684689848	2
2	9368	1933.388793225926	3
2	9369	1934.359774977146	2
2	9372	1935.181701183683	1
2	9376	1935.575142333966	2
2	9378	1936.109634918355	3
2	9379	1936.345484259437	2
2	9383	1936.518149217527	3
2	9384	1937.293165221243	2
2	9388	1937.415485112782	3
2	9389	1938.277163200351	2
2	9392	1939.319167303565	1
2	9396	1940.302600207561	2
2	9397	1940.396313730991	1
2	9401	1940.720972391684	2
2	9402	1941.333693430098	1
2	9406	1941.36845629261	2
2	9408	1941.649580952085	3
2	9411	1942.491980081974	2
2	9414	1943.544583766433	1
2	9417	1944.392302671066	0
2	9421	1945.467891453914	1
2	9422	1945.47371133416	0
2	9429	1946.493050709164	1
2	9431	1946.660710127173	2
2	9433	1947.175593734806	3
2	9435	1947.206246976998	4
2	9436	1947.421808803445	3
2	9441	1948.513590400005	2
2	9445	1949.135385874342	3
2	9446	1949.340120344134	2
2	9449	1950.291862028176	1
2	9453	1950.54292651713	2
2	9455	1950.776743984632	3
2	9456	1951.296069626035	2
2	9460	1951.748748132427	3
2	9462	1952.176915737422	4
2	9463	1952.371608850257	3
2	9467	1952.937998618127	4
2	9468	1953.549645899413	3
2	9471	1954.519421387454	2
2	9475	1955.239658737294	3
2	9476	1955.41576769947	2
2	9480	1955.576004138991	3
2	9482	1956.30775860318	4
2	9483	1956.372503207707	3
2	9487	1957.018206284682	4
2	9488	1957.437527088066	3
2	9492	1957.440935430098	4
2	9493	1958.337833296591	3
2	9496	1959.202637630226	2
2	9500	1959.353185185428	3
2	9501	1960.340565751018	2
2	9505	1960.632121655871	3
2	9506	1961.321845199065	2
2	9509	1962.150674048895	1
2	9512	1963.296113825021	0
2	9516	1963.584308428709	1
2	9517	1964.474583231182	0
2	9521	1965.235615201801	1
2	9522	1965.356705090673	0
2	9526	1965.622965987706	1
2	9527	1966.464912378499	0
2	9531	1966.625608609321	1
2	9532	1967.313632266214	0
2	9536	1968.082924299517	1
2	9537	1968.133392608436	0
2	9541	1968.620417453197	1
2	9542	1969.148048202126	0
2	9549	1970.227764005164	1
2	9551	1970.996004385935	2
2	9552	1971.301422765843	1
2	9555	1972.464005238369	0
2	9559	1972.595721686424	1
2	9562	1973.361086449578	0
2	9566	1973.706252687107	1
2	9567	1974.526427717127	0
2	9574	1975.778994900956	1
2	9575	1976.262706300888	0
2	9625	1988.244622128615	1
2	9636	1989.277104770756	0
2	9645	1991.156190116831	1
2	9646	1991.499961328032	0
2	9660	1993.861695455356	1
2	9661	1994.084733771338	0
2	9681	1996.531807437074	1
2	9682	1996.964307879555	0
2	9692	1999.705389573236	1
2	9693	1999.745984167318	0
2	9704	2001.50566017957	1
2	9705	2001.750539641726	0
2	9718	2004.952489495399	1
2	9723	2005.956511030338	0
2	9739	2008.314054548731	1
2	9740	2008.823180869586	0
2	9751	2010.592226521228	1
2	9752	2010.961234983421	0
2	9766	2013.055507135056	1
2	9767	2014.026111801333	0
2	9779	2016.228095834478	1
2	9781	2016.474868307045	2
2	9782	2016.782513815622	1
2	9787	2017.869973375733	0
2	9791	2018.644003469724	1
2	9792	2018.941398088998	0
2	9796	2019.452592751297	1
2	9797	2019.998025794132	0
2	9801	2020.029669665869	1
2	9802	2020.908160467437	0
2	9809	2022.345955093029	1
2	9810	2023.171150919227	0
2	9819	2025.083644692731	1
2	9820	2025.368436867548	0
2	9824	2025.921754187607	1
2	9825	2026.268592480281	0
2	9829	2026.521974558323	1
2	9833	2026.911906211371	2
2	9834	2027.324958169916	1
2	9837	2028.381273512439	0
2	9841	2028.400082967172	1
2	9842	2029.519622036618	0
2	9846	2030.458647314076	1
2	9847	2030.556724423905	0
2	9854	2032.110869986087	1
2	9855	2032.618569836849	0
2	9859	2033.458325568902	1
2	9860	2033.665952620553	0
2	9864	2034.649457225469	1
2	9865	2034.787642559586	0
2	9872	2035.94082003923	1
2	9873	2036.568889022796	0
2	9877	2037.444917950808	1
2	9878	2037.705465084212	0
2	9882	2038.045828811303	1
2	9883	2038.836453647809	0
2	9890	2040.360345464376	1
2	9891	2040.778096629577	0
2	9895	2040.788946450964	1
2	9900	2041.647997114519	0
2	9907	2043.136044405993	1
2	9908	2043.820371704074	0
2	9915	2044.803486235833	1
2	9916	2045.821703411722	0
2	9925	2046.719599998038	1
2	9926	2047.691236882647	0
2	9935	2049.103415104257	1
2	9937	2049.116978939548	2
2	9938	2049.983168375948	1
2	9941	2051.125723196743	0
2	9947	2051.957493172298	1
2	9948	2052.177073448049	0
2	9955	2053.900795300323	1
2	9956	2053.903616625527	0
2	9970	2056.433843586363	1
2	9971	2057.05125290257	0
2	9978	2058.837427044867	1
2	9979	2059.196244936056	0
2	9988	2060.684505522671	1
2	9989	2061.065447879109	0
2	9998	2062.692892672649	1
2	10000	2062.997839651439	2
2	10001	2063.009038627233	1
2	10005	2063.370571367635	2
2	10006	2063.813386977177	1
2	10012	2063.844328611398	2
2	10013	2064.903492538065	1
2	10017	2065.136316563797	2
2	10018	2065.859883412246	1
2	10022	2065.920352060377	2
2	10023	2067.047117008821	1
2	10027	2067.752082202817	2
2	10028	2067.906930199259	1
2	10032	2068.551875136982	2
2	10033	2068.792707617574	1
2	10037	2069.515032799531	2
2	10038	2069.714992449426	1
2	10041	2070.694315556244	0
2	10048	2072.297182352085	1
2	10050	2072.530324727221	2
2	10051	2072.572300139529	1
2	10057	2073.071835348983	2
2	10058	2073.642731378314	1
2	10062	2074.174994375514	2
2	10063	2074.684212987957	1
2	10067	2074.709153882553	2
2	10069	2075.236708137905	3
2	10070	2075.59241845365	2
2	10074	2075.605623179529	3
2	10075	2076.441394968045	2
2	10079	2076.904954447307	3
2	10080	2077.267387103655	2
2	10083	2078.074532929801	1
2	10087	2079.070292849313	2
2	10088	2079.173089217201	1
2	10091	2080.166826876991	0
2	10095	2080.346340480334	1
2	10096	2081.310699123975	0
2	10103	2082.617768602881	1
2	10104	2083.295913706899	0
2	10110	2083.406150910822	1
2	10112	2083.531468219265	2
2	10114	2084.042316548416	3
2	10115	2084.309319496241	2
2	10119	2084.966192908398	3
2	10120	2085.178818559081	2
2	10124	2085.620511503743	3
2	10125	2086.003179031883	2
2	10129	2086.651041293422	3
2	10130	2087.042079198447	2
2	10134	2087.85685431014	3
2	10135	2087.966228221071	2
2	10139	2088.815374638184	3
2	10140	2088.826736959343	2
2	10143	2089.963648865831	1
2	10147	2090.576662163817	2
2	10148	2090.994076078472	1
2	10151	2092.16439720997	0
2	10155	2092.443686255081	1
2	10156	2093.100175265962	0
2	10160	2093.8753130768	1
2	10161	2094.165379468253	0
2	10165	2095.179930370211	1
2	10166	2095.279832159815	0
2	10170	2095.589258204155	1
2	10171	2096.306210740743	0
2	10183	2098.822721085042	1
2	10184	2099.400974264269	0
2	10188	2099.405400137137	1
2	10190	2099.57987224908	2
2	10191	2100.405037335766	1
2	10194	2101.288522829202	0
2	10201	2102.845512140851	1
2	10202	2103.546599641529	0
2	10209	2104.480599020041	1
2	10212	2105.530228988075	0
2	10219	2106.544804909071	1
2	10222	2107.593976436735	0
2	10229	2109.339309701476	1
2	10230	2109.364693104562	0
2	10236	2109.599085277402	1
2	10239	2110.349549193208	0
2	10243	2110.599000821811	1
2	10244	2111.478263143537	0
2	10259	2115.320305527283	1
2	10260	2115.499530322658	0
2	10271	2116.891499271339	1
2	10273	2117.053275014474	2
2	10274	2117.455236193346	1
2	10278	2118.060658443276	2
2	10279	2118.422815001844	1
2	10285	2119.051835997746	2
2	10287	2119.410149414672	3
2	10288	2119.544112118701	2
2	10291	2120.433820386412	1
2	10295	2120.493177298836	2
2	10296	2121.587270232285	1
2	10300	2122.097366494348	2
2	10301	2122.771723053227	1
2	10305	2123.28318581205	2
2	10306	2123.945704423538	1
2	10310	2124.18226512684	2
2	10311	2125.129228497198	1
2	10315	2125.802988683825	2
2	10317	2126.188138489144	3
2	10318	2126.295390023379	2
2	10321	2127.296794233838	1
2	10325	2127.614824266549	2
2	10326	2128.139553074626	1
2	10330	2128.296310813166	2
2	10331	2128.97577628055	1
2	10334	2129.837251269811	0
2	10346	2132.592074922628	1
2	10347	2132.799404917558	0
2	10356	2134.135552973443	1
2	10359	2134.979417629254	0
2	10366	2135.8628116182	1
2	10369	2136.949731697042	0
2	10383	2139.890292858791	1
2	10384	2140.014540933065	0
2	10393	2140.952735837161	1
2	10394	2142.033022577308	0
2	10401	2143.021069847767	1
2	10404	2143.980414235584	0
2	10418	2146.592829419849	1
2	10419	2146.771014910464	0
2	10426	2148.063130273074	1
2	10427	2148.646233160693	0
2	10438	2149.96842760536	1
2	10439	2150.586880428802	0
2	10454	2153.910761771403	1
2	10455	2154.760882419992	0
2	10462	2156.009557868894	1
2	10465	2156.939051973719	0
2	10474	2158.361386856375	1
2	10477	2159.082300176557	0
2	10491	2161.67872265329	1
2	10492	2162.187730742518	0
2	10514	2166.317087349947	1
2	10517	2167.082890765827	0
2	10532	2170.590701097556	1
2	10533	2171.02006846889	0
2	10541	2171.654576201916	1
2	10542	2172.185413821499	0
2	10546	2172.582358958054	1
2	10547	2173.224229910123	0
2	10551	2173.953674463309	1
2	10553	2174.273518201348	2
2	10554	2174.379895362436	1
2	10558	2174.796293027166	2
2	10559	2175.269197362467	1
2	10562	2176.184260152738	0
2	10566	2176.520046854451	1
2	10567	2177.105973946295	0
2	10571	2177.894129316695	1
2	10572	2178.013761887226	0
2	10587	2181.347423910228	1
2	10590	2182.007820133299	0
2	10599	2183.007101301501	1
2	10600	2183.867757607151	0
2	10609	2185.310232199997	1
2	10610	2185.915567757555	0
2	10618	2186.445386410168	1
2	10619	2186.859756316517	0
2	10626	2188.418948312245	1
2	10627	2188.761426385486	0
2	10638	2190.414758060563	1
2	10639	2190.800741815281	0
2	10646	2192.134864509972	1
2	10648	2192.474816094946	2
2	10649	2192.615967356686	1
2	10654	2193.768795975384	0
2	10658	2194.167967710221	1
2	10659	2194.662662844632	0
2	10663	2195.333365227295	1
2	10666	2195.526214767799	0
2	10670	2196.336509034282	1
2	10671	2196.699514220834	0
2	10683	2199.405090097316	1
2	10684	2199.595053891551	0
2	10688	2199.840644198684	1
2	10689	2200.648371711739	0
2	10693	2201.317485012193	1
2	10694	2201.549768045258	0
2	10708	2204.232737050968	1
2	10709	2204.704209396049	0
2	10716	2205.957873695056	1
2	10717	2206.752709764607	0
2	10721	2207.581157022735	1
2	10722	2207.876794994335	0
2	10726	2207.930824652669	1
2	10727	2209.023838913526	0
2	10731	2209.390705760395	1
2	10732	2210.101106390535	0
2	10736	2210.814408766904	1
2	10739	2211.248029229875	0
2	10743	2211.602398497112	1
2	10745	2211.850391109214	2
2	10746	2212.403704665034	1
2	10749	2213.593945380478	0
2	10753	2213.941793982498	1
2	10754	2214.585190919499	0
2	10758	2215.005537387355	1
2	10760	2215.093131598518	2
2	10761	2215.4793963476	1
2	10765	2215.927708860651	2
2	10766	2216.635295933383	1
2	10770	2216.735708151722	2
2	10772	2217.371893900881	3
2	10773	2217.530395429945	2
2	10776	2218.390657836376	1
2	10780	2218.882713344549	2
2	10781	2219.238047097242	1
2	10787	2219.389299019525	2
2	10788	2220.368115364193	1
2	10792	2220.634944958255	2
2	10793	2221.184710802036	1
2	10796	2222.058371261033	0
2	10803	2223.483023805471	1
2	10805	2223.704966096734	2
2	10807	2223.802054619999	3
2	10808	2224.190678483146	2
2	10813	2225.37310193888	1
2	10819	2225.426289857523	2
2	10820	2226.241976700901	1
2	10824	2227.294239932202	2
2	10825	2227.394281002312	1
2	10828	2228.225547664511	0
2	10832	2229.027586545785	1
2	10833	2229.232815543461	0
2	10840	2230.537577893356	1
2	10841	2231.393726549103	0
2	10848	2232.74854938206	1
2	10850	2232.777770273683	2
2	10851	2233.297833720865	1
2	10854	2234.278043021811	0
2	10858	2234.530547102306	1
2	10859	2235.23007910558	0
2	10866	2236.479212485983	1
2	10868	2237.248284325729	2
2	10869	2237.436640821574	1
2	10872	2238.281556621464	0
2	10878	2238.631601301532	1
2	10879	2239.091329724146	0
2	10887	2240.272980545012	1
2	10888	2240.280091617713	0
2	10892	2240.678133904101	1
2	10893	2241.15535163627	0
2	10897	2241.882673379042	1
2	10898	2242.21804880322	0
2	10908	2244.451213483685	1
2	10912	2244.721487524859	2
2	10914	2244.943371908407	3
2	10915	2245.290494538183	2
2	10920	2246.392670516754	1
2	10924	2246.796383427038	2
2	10925	2247.223811980328	1
2	10928	2248.234858635245	0
2	10932	2248.593422500197	1
2	10934	2249.397980543087	2
2	10935	2249.418912489051	1
2	10938	2250.581331611415	0
2	10942	2251.074426818311	1
2	10944	2251.223696983361	2
2	10945	2251.46327815921	1
2	10949	2251.806465035394	2
2	10951	2252.352520171525	3
2	10952	2252.410919952383	2
2	10956	2252.441545449606	3
2	10957	2253.596052004574	2
2	10961	2253.668162258976	3
2	10963	2254.403544073546	4
2	10964	2254.432551191365	3
2	10967	2255.350886480128	2
2	10970	2256.186246189279	1
2	10973	2257.301627555293	0
2	10977	2257.719441309985	1
2	10979	2257.735552605412	2
2	10980	2258.343422925555	1
2	10983	2259.192455214997	0
2	10987	2259.762759074567	1
2	10988	2260.38355477889	0
2	10995	2261.484559036036	1
2	10997	2261.534648850689	2
2	10998	2262.283742211376	1
2	11002	2263.183720821649	2
2	11003	2263.269857911569	1
2	11009	2264.099032407445	2
2	11010	2264.453017079075	1
2	11016	2265.560277897959	2
2	11017	2265.58406786573	1
2	11020	2266.510210300599	0
2	11024	2266.568840285576	1
2	11025	2267.534419605591	0
2	11032	2268.714186847453	1
2	11034	2268.750030415645	2
2	11036	2268.898467641155	3
2	11040	2269.395315929183	4
2	11041	2269.538588520502	3
2	11046	2270.543011368801	2
2	11050	2271.015689141218	3
2	11051	2271.733135188733	2
2	11055	2272.556438449233	3
2	11056	2272.630119455223	2
2	11059	2273.52224100911	1
2	11062	2274.685639971578	0
2	11069	2275.709213403643	1
2	11071	2276.112169451214	2
2	11073	2276.453557172426	3
2	11074	2276.711453215209	2
2	11077	2277.663672858001	1
2	11082	2278.551775866085	0
2	11086	2278.895263564259	1
2	11087	2279.539952253913	0
2	11102	2283.407022637569	1
2	11103	2283.468504281425	0
2	11120	2286.331403607274	1
2	11121	2287.165979749513	0
2	11130	2288.190605013392	1
2	11132	2288.223969577857	2
2	11137	2289.120304715437	1
2	11140	2290.300509349247	0
2	11150	2292.979246402654	1
2	11151	2293.157866584127	0
2	11158	2294.013738519301	1
2	11159	2295.160706367613	0
2	11170	2297.030357385851	1
2	11171	2297.063508766786	0
2	11233	2311.299277216313	1
2	11234	2311.821598095343	0
2	11247	2315.432764926101	1
2	11248	2315.557668813494	0
2	11280	2321.656031274265	1
2	11281	2322.12833693669	0
2	11294	2323.436519888819	1
2	11299	2324.431020269439	0
2	11341	2332.383369737947	1
2	11342	2333.230684576825	0
2	11346	2333.285403576373	1
2	11351	2334.113165539958	0
2	11355	2334.728961482599	1
2	11356	2335.274644174416	0
2	11360	2335.345215577694	1
2	11365	2336.396270234779	0
2	11369	2336.770788787654	1
2	11371	2337.001308654251	2
2	11372	2337.584296760604	1
2	11380	2338.429181631603	2
2	11381	2338.454649660167	1
2	11384	2339.600593908027	0
2	11388	2340.448768529664	1
2	11389	2340.514557463106	0
2	11396	2341.66479040034	1
2	11397	2342.42438389397	0
2	11403	2343.19641050179	1
2	11404	2343.537419688504	0
2	11408	2344.017397699052	1
2	11409	2344.703528467275	0
2	11413	2345.179027432855	1
2	11415	2345.283771690697	2
2	11416	2345.677508939326	1
2	11419	2346.718988035422	0
2	11423	2346.879515127901	1
2	11424	2347.745263087832	0
2	11430	2348.240269937677	1
2	11431	2348.804078048084	0
2	11435	2349.441584563436	1
2	11436	2349.714376344707	0
2	11440	2350.003902921402	1
2	11441	2350.623659919284	0
2	11445	2350.911447361846	1
2	11446	2351.757105665829	0
2	11483	2358.799417419664	1
2	11485	2359.045322096204	2
2	11486	2359.388388494391	1
2	11493	2360.20519281755	0
2	11528	2367.745809209525	1
2	11529	2367.985266124167	0
2	11549	2372.030257280417	1
2	11554	2373.094657118981	0
2	11568	2374.827454606743	1
2	11571	2375.863171631553	0
2	11591	2379.246365990059	1
2	11596	2380.3263107933	0
2	11600	2381.244073620191	1
2	11601	2381.248863181275	0
2	11605	2381.72521419971	1
2	11606	2382.170322606143	0
2	11610	2383.08323154758	1
2	11611	2383.128329699569	0
2	11615	2383.239697016533	1
2	11617	2383.53893878767	2
2	11618	2384.05290777766	1
2	11624	2384.21692370663	2
2	11625	2384.89433518852	1
2	11629	2385.624517852432	2
2	11630	2385.821692587425	1
2	11633	2386.743923821756	0
2	11639	2387.182341277783	1
2	11640	2387.68794102584	0
2	11647	2389.213305583154	1
2	11648	2390.015015059607	0
2	11655	2391.202366687265	1
2	11656	2391.712173137711	0
2	11662	2391.977620314378	1
2	11663	2392.708512335913	0
2	11667	2393.292703731805	1
2	11670	2393.736707283547	0
2	11674	2393.861840825695	1
2	11678	2394.072079565993	2
2	11679	2394.88867796286	1
2	11683	2395.461375075554	2
2	11684	2395.962937002527	1
2	11688	2395.970988586347	2
2	11689	2396.856700032847	1
2	11694	2397.936861798903	0
2	11698	2398.524168363895	1
2	11700	2398.657188887901	2
2	11701	2399.036731237443	1
2	11704	2399.857730275569	0
2	11716	2402.340893688466	1
2	11717	2402.900169172501	0
2	11721	2403.376723891825	1
2	11722	2403.759454585044	0
2	11728	2404.03323214061	1
2	11729	2404.83220714246	0
2	11733	2405.35633118623	1
2	11734	2405.894797591111	0
2	11740	2406.228391245996	1
2	11742	2406.23268140083	2
2	11744	2406.336254526704	3
2	11745	2406.831220884426	2
2	11748	2407.999533865313	1
2	11752	2408.534353506483	2
2	11755	2409.036184828627	1
2	11759	2409.629235733199	2
2	11761	2409.928184336152	3
2	11762	2410.065130378018	2
2	11766	2410.293775023133	3
2	11767	2411.010308793085	2
2	11771	2411.29653409377	3
2	11772	2411.929892711519	2
2	11776	2412.082940528767	3
2	11779	2413.055633479069	2
2	11782	2414.211582684602	1
2	11786	2414.981005517402	2
2	11787	2415.158487207062	1
2	11792	2415.977768473878	0
2	11799	2417.579266326604	1
2	11801	2417.847275990224	2
2	11802	2417.861375376575	1
2	11808	2418.723086133642	2
2	11809	2418.770671344541	1
2	11813	2419.497313219472	2
2	11814	2419.85957486964	1
2	11818	2420.835259950004	2
2	11819	2420.952550244976	1
2	11822	2421.764297816709	0
2	11834	2423.612859060921	1
2	11835	2424.640277598791	0
2	11839	2425.464157561043	1
2	11840	2425.562220796842	0
2	11846	2426.267318901711	1
2	11847	2426.463266005825	0
2	11853	2426.756445219069	1
2	11856	2427.410593847643	0
2	11860	2428.253804640297	1
2	11861	2428.260525637857	0
2	11868	2429.633889103154	1
2	11870	2430.171564399607	2
2	11871	2430.239051695625	1
2	11878	2431.046861285614	0
2	11882	2431.352166872836	1
2	11883	2431.936991754072	0
2	11893	2434.109230967803	1
2	11896	2435.160482768053	0
2	11900	2435.519498447829	1
2	11903	2436.3411662124	0
2	11907	2437.052113514912	1
2	11908	2437.385160195725	0
2	11922	2440.108187897441	1
2	11923	2440.170532277217	0
2	11929	2440.705068606554	1
2	11930	2441.131362069761	0
2	11937	2442.42271991619	1
2	11939	2442.582867292202	2
2	11940	2443.28323067286	1
2	11945	2444.178798492522	0
2	11989	2452.517832836092	1
2	11992	2452.81329192574	0
2	11999	2454.679006721696	1
2	12000	2454.768735840347	0
2	12031	2460.840170099534	1
2	12032	2460.989330278046	0
2	12043	2462.535514950253	1
2	12044	2462.872040859319	0
2	12048	2462.925118307329	1
2	12051	2463.933236618515	0
2	12055	2464.180508626127	1
2	12057	2464.322776250767	2
2	12058	2465.026992336649	1
2	12062	2465.337843182066	2
2	12065	2466.221573033079	1
2	12068	2467.075634038716	0
2	12075	2468.441300827865	1
[...]
6	119985	24045.926504463054	1057.0342199724
6	119992	24046.92911975589	539.09059895142
6	120020	24053.072070110872	1567.0866005182
6	120143	24077.231956251064	145.84146940237
6	120171	24085.673705046722	1193.2344683137
6	120176	24086.738215309386	143.58109525534
6	120183	24087.721326968171	290.51284575552
6	120271	24103.859036566973	418.39294708989
6	120325	24113.374558848983	133.01873425555
6	120335	24115.531060090105	415.21372225051
6	120393	24128.2890510669	125.678005541
6	120424	24135.086770980063	1087.4262125313
6	120481	24145.983950531483	1228.0179221965
6	120508	24152.793477513454	126.82858011454
6	120539	24160.186659108101	414.23078864157
6	120542	24161.085299708693	412.67048216235
6	120601	24171.742248065116	123.77473092476
6	120608	24172.670858025363	669.43758940486
6	120613	24173.854227840433	663.40282336202
6	120763	24204.475485520904	288.50356866083
6	120956	24240.694020090531	290.36600604428
6	121002	24250.969981867261	434.62543477821
6	121052	24261.331310352311	295.08644016823
6	121154	24282.102799914684	174.06612846163
6	121217	24295.443786291593	182.31580390921
6	121307	24313.47912369911	314.91372488745
6	121359	24324.875887854865	1230.6347883878
6	121403	24333.296776248517	307.68492978885
6	121421	24337.061634263864	597.80120332661
6	121432	24340.208931416555	1375.6389960717
6	121444	24344.130837705734	307.13482648413
6	121473	24351.24796763929	575.93025157668
6	121488	24354.553399475295	578.1766032763
6	121497	24357.631470346268	1077.0938887001
6	121505	24359.337825788468	444.89828458826
6	121515	24361.285194588735	288.48445651866
6	121527	24363.265484428781	1506.8232641988
6	121678	24390.749671823347	300.98291944825
6	121686	24392.579494150916	835.07136601528
6	121707	24397.646851847137	303.83309525988
6	121732	24402.77055840297	1031.5573083777
6	121740	24404.774706196602	1644.8824159488
6	122143	24483.941241939181	497.03248223371
6	122165	24488.003691296838	770.3526689086
6	122221	24499.510114799161	770.54883495502
6	122302	24515.99037278183	2622.2397443031
6	122332	24521.942020493189	2227.7116486086
6	122350	24525.623810520491	166.0783693734
6	122362	24527.688643654997	2489.5898089042
6	122444	24543.721800035241	635.18894430065
6	122587	24572.830248205553	355.10903175595
6	122600	24575.860812584221	1243.6267974378
6	122608	24577.854716627955	1564.9645956812
6	122613	24578.873371420618	352.21046324888
6	122720	24600.024883924615	308.4332122662
6	122725	24600.848431938146	769.65900896551
6	122748	24605.724163710982	126.95109435701
6	122806	24618.181792707745	2077.0302993223
6	122861	24629.036158400127	310.75441370121
6	122864	24630.166796646365	898.91276159941
6	122877	24633.327144162176	488.76559103078
6	122912	24640.384432895021	2385.0191126069
6	123007	24659.275384508916	494.24585897957
6	123179	24694.939110851479	501.5315998739
6	123208	24700.13386482364	140.58322685981
6	123390	24736.025398676568	1072.7599736133
6	123395	24737.164310448529	521.76423031042
6	123470	24751.968273221798	373.8610178943
6	123622	24782.283239151354	1570.9168413725
6	124011	24855.49779383336	411.26271805699
6	124114	24875.968859386171	256.52350152345
6	124234	24899.177909115246	1048.8686351937
6	124388	24928.309928427182	907.36518073215
6	124950	25038.597796059879	1582.4547943677
6	125095	25066.614008591993	320.98461922579
6	125109	25070.563887845742	2181.7920359299
6	125117	25072.506284021417	489.7272651445
6	125131	25076.366095727234	1272.6497156759
6	125242	25097.256893920265	666.94086011186
6	125282	25105.417080612872	806.19528888301
6	125297	25108.543551187422	1259.6905328742
6	125391	25128.01135638088	115.57765162696
6	125553	25157.18894776927	4145.3841968898
6	125560	25158.002970824499	1702.4240939441
6	125571	25160.720573348009	498.06702698412
6	125644	25176.117981406504	1688.9441519858
6	125904	25225.689825303493	1450.0991884129
6	125968	25239.322937196787	693.69543386458
6	125984	25243.348353025332	1329.496254645
6	125995	25246.488198104702	3712.109640297
6	126137	25273.99174549348	884.77765762316
6	126166	25280.737872449321	1023.1684664892
6	126189	25286.162378002529	461.53948500387
6	126205	25290.159633307078	454.65742099153
6	126234	25295.070290150413	701.59579484884
6	126318	25309.442223694188	1921.0764335792
6	126431	25333.110474928946	420.41360367301
6	126441	25335.138669991318	412.35226550817
6	126473	25341.329955029314	403.2270359598
6	126513	25349.578559655336	217.54677436626
6	126588	25364.498853761249	366.68642075152
6	126664	25380.897360562451	3366.401269995
6	126687	25386.05623883541	338.33527791453
6	127043	25455.38530757438	757.4569017774
6	127054	25458.43575450854	211.91316180081
6	127064	25460.589039653554	762.22915901067
6	127099	25467.712677000292	1931.6200666313
6	127192	25486.626946119981	229.09480532115
6	127195	25487.547972761298	226.91087242183
6	127270	25503.075604851746	1266.2746938163
6	127335	25516.155921318492	1688.1610057013
6	127360	25521.353372778762	227.73650140792
6	127367	25522.376631237492	687.62979509091
6	127404	25531.094863932413	1086.6626964099
6	127417	25533.788287720196	1057.937477746
6	127443	25539.449912851415	640.05313163808
6	127462	25542.492733212485	1399.3448275068
6	127487	25547.33912177693	1681.8419798338
6	127550	25560.792152525224	624.95729057487
6	127560	25562.770984124132	217.502598615
6	127586	25569.264925678	591.78910282323
6	127598	25570.893915688638	204.41611689
6	127705	25591.148070616388	1958.7084739394
6	127752	25599.972267242912	405.50328112629
6	127772	25604.304204002879	1532.9585217495
6	127849	25618.852054569702	1050.3712162592
6	128033	25654.343862447347	1566.8487711447
6	128058	25659.260496728233	889.69440640348
6	128220	25690.331490284314	604.01808403995
6	128266	25700.418602731002	180.19549494966
6	128279	25703.5773258025	871.47207206337
6	128289	25705.896802392247	861.40121615103
6	128295	25708.115201996378	604.4564416698
6	128303	25710.238348481822	3513.4511951544
6	128313	25712.162955551705	407.88058691017
6	128328	25715.243899992871	1099.5376845646
6	128341	25718.305466183758	396.36725158859
6	128344	25719.349754184874	176.37570424053
6	128347	25720.368719520344	389.54956146697
6	128353	25722.262990691624	170.47231893766
6	128378	25727.064329740144	3945.4480507311
6	128614	25774.122066701872	1249.2347177442
6	128633	25778.940242440642	1104.7827122692
6	128678	25788.427954732268	607.73947878744
6	128684	25790.602275555129	380.55466001379
6	128736	25801.248535215216	337.33580280121
6	128744	25803.164362732521	334.36422589971
6	128797	25814.130941151841	748.93875322644
6	128802	25815.266414997647	1088.1111158472
6	128857	25826.250422887983	1610.5929945291
6	128904	25835.261062999736	166.99813794823
6	128927	25840.135190741639	159.55924831855
6	128947	25844.200246643848	759.26485222458
6	129235	25903.001049340341	978.61957293779
6	129324	25918.166477054463	166.77653746898
6	129347	25923.36804607549	352.4786057223
6	129383	25931.952957889356	1256.0866479721
6	129396	25935.002174054191	344.00036029812
6	129413	25938.347790872224	755.94417409663
6	129438	25943.872198674094	344.51411865595
6	129453	25946.539185909658	2043.4516562439
6	129459	25948.622733475464	1406.2970179132
6	129492	25955.867763086418	335.7716940866
6	129499	25957.040866377773	335.88333746502
6	129562	25969.975744605447	2615.9451891454
6	129582	25973.660800118848	2611.3119647819
6	129641	25986.627611699339	118.89406038204
6	129717	26000.888089778659	276.10637649285
6	129733	26005.059413372644	275.75685455696
6	129756	26009.958976395626	1854.6011144183
6	129761	26010.989587665547	101.61511752467
6	129789	26017.09760632814	2142.8797792851
6	129806	26019.862854483269	448.69643523787
6	129819	26022.963840765238	1023.3320026582
6	129834	26025.776060450741	854.32717467183
6	129902	26039.414939062498	100.58485381639
6	130002	26058.896648311818	2519.9878757854
6	130293	26115.511720649918	155.83981304445
6	130328	26122.199841594343	476.22721691553
6	130350	26125.935371671916	294.95079110004
6	130373	26130.98244406108	629.65379912484
6	130497	26154.635540618768	639.56128620281
6	130589	26173.038139278835	289.05003309245
6	130624	26180.121132506544	1687.3751771977
6	130656	26185.783110373953	1549.0133653946
6	130686	26191.800262133053	181.80040693176
6	130708	26197.18148565071	629.7794621031
6	130733	26202.194135895953	842.888354744
6	130736	26203.117871908214	1204.4627334124
6	130743	26204.13267047035	179.88742059027
6	130801	26216.19758865109	277.66890513534
6	130912	26236.878309097814	419.43592981098
6	131010	26257.464586704432	126.33651218074
6	131041	26264.682519512645	124.17487741764
6	131173	26290.966376695989	982.62278243241
6	131204	26297.633165899683	394.30461273221
6	131210	26299.717802265678	290.01764819097
6	131229	26304.417868318521	287.31520150751
6	131599	26373.618467059565	746.8873183713
6	131654	26384.609061204382	541.37403609346
6	131703	26392.528924706878	1570.998672341
6	131709	26394.412773681639	1566.2465339649
6	131747	26402.205425655117	1087.7455054015
6	131817	26416.024297266474	506.53764884337
6	131825	26418.118733308484	506.53891345802
6	131851	26424.000480356832	212.06351664615
6	131868	26426.89452024337	2382.6842280792
6	131892	26430.815019081086	2067.599460404
6	131900	26432.620903852321	481.93140736423
6	131920	26436.73550767621	94.662254842374
6	131923	26437.648095383513	94.470199770011
6	131926	26438.544830294437	94.291779249417
6	131931	26439.382965226676	94.926442763119
6	131951	26443.300781903062	399.37261251282
6	131959	26445.286410706602	394.68966705244
6	132019	26456.486261600087	89.434385852866
6	132091	26470.084081390516	344.54003760551
6	132116	26475.386028170509	333.62350276682
6	132119	26476.376095029356	91.085543055479
6	132134	26479.486099032422	633.10244616219
6	132150	26483.604981783048	788.88247453313
6	132193	26493.032953668028	318.66235530499
6	132224	26498.54970188189	784.50261038377
6	132314	26516.526768398766	2497.2707628503
6	132387	26531.825735545733	1399.10093547
6	132425	26539.789714858976	951.67932593463
6	132431	26541.890903469004	211.07493867411
6	132436	26542.873900324308	107.24496050996
6	132471	26551.350620728096	181.23975130712
6	132483	26553.40544816667	741.83490720075
6	132491	26555.251969058455	446.70548313604
6	132506	26558.410469434147	1829.1147982997
6	132514	26560.091141297219	1820.6578542667
6	132526	26562.087926777469	92.890575945194
6	132588	26574.203859398438	184.87604112931
6	132665	26589.023164225759	2153.6422513064
6	132675	26590.949059635604	93.458583269051
6	132719	26598.936944432203	1291.6849514837
6	132750	26606.135727423448	192.06018172633
6	132873	26629.454322208761	408.27242311785
6	132994	26655.018491711114	196.13467888938
6	133020	26661.054557584526	100.43644323096
6	133037	26663.844567222076	2872.4629873644
6	136067	27253.283464312952	1091.5715177361
6	136251	27290.586142392108	1121.0220048786
6	136259	27292.655457920698	2454.3236224967
6	136279	27296.907186828111	703.0753562312
6	136282	27297.890614329301	794.5007146626
6	136422	27326.52176101247	699.15018734863
6	136547	27351.189594359713	2644.8971087174
6	136723	27385.928852531699	1267.1696517782
6	136884	27415.980588772159	738.91713702629
6	137033	27445.52303051456	1188.5442321884
6	137922	27619.404537494302	898.68924977323
6	138163	27667.823757659374	810.73913877214
6	138187	27673.744235323844	807.30271355167
6	138239	27683.004800866181	787.65937286566
6	138608	27754.884196420955	767.85332791212
6	138629	27759.462688730667	771.88597124967
6	138762	27785.334446492425	611.41687005882
6	138798	27793.416287887382	593.4286623289
6	138817	27796.092312441958	574.13766551102
6	138838	27801.149337890005	547.92114802176
6	139371	27904.942654034879	1395.1609943618
6	139429	27917.189158196478	2888.852505922
6	139453	27923.074388102639	582.2431333038
6	139463	27925.065441722527	2312.3314324057
6	139471	27926.977112131949	1476.5024516137
6	139516	27934.545937540581	1867.311339785
6	139522	27936.332388785867	565.22815562816
6	139601	27953.677868972826	522.93359740114
6	139630	27958.609538469012	446.66003053558
6	139638	27960.594018065571	409.65218833016
6	139658	27964.677261736537	1491.9342867184
6	139663	27965.830119010913	382.43452230944
6	139672	27968.626216727508	379.20968761788
6	139694	27974.122776116911	324.67635681532
6	139728	27979.851939817533	312.6015232357
6	139748	27983.656277039476	306.78223586475
6	139815	27996.580860534605	1083.6196064886
6	139825	27998.589851054099	284.33346275481
6	139828	27999.60003027666	263.87315760819
6	139868	28008.006379548569	1071.3519608441
6	139893	28012.57336530417	1074.6948625829
6	139923	28018.975373283977	1061.2206922689
6	140152	28064.943152024894	1055.6774534568
6	140223	28079.455779554711	965.94671344735
6	140279	28091.97921932304	297.15091000774
6	140297	28095.576805363985	1607.105040416
6	140361	28107.066625326143	277.74852516904
6	140406	28115.591124710087	2404.3386968671
6	140485	28131.960779960379	2214.5874836099
6	140490	28133.07103511963	3129.5123064205
6	140493	28133.891525857728	210.37531982789
6	140504	28136.656531299763	208.90666688299
6	140521	28139.674402040914	1698.3525021445
6	140528	28140.775508562681	1495.7620957123
6	140533	28141.732376402263	783.33466890929
6	140608	28156.665098140314	204.10294998367
6	140755	28185.698573976491	613.40548837343
6	140782	28190.991979601437	216.66074297669
6	140808	28196.83712217409	2217.930278456
6	140840	28202.971743235288	1411.6720963815
6	140887	28211.671946889085	1336.6819629987
6	140896	28212.577286705111	1334.1700973188
6	141210	28273.811859618604	1301.173151422
6	141279	28288.359471117345	1214.6343660252
6	141305	28292.145907021699	1176.1259268667
6	141314	28294.897591621721	209.26631640973
6	141334	28298.811079793343	1118.3785970134
6	141361	28304.055777649593	1095.0630605102
6	141409	28313.952991817531	1732.1196107422
6	141431	28318.103712898598	1735.9640004358
6	141442	28321.165415863612	4213.3575145629
6	141613	28353.611714344295	992.1398481132
6	141741	28379.912362932051	1821.5657070222
6	141840	28399.500743845115	1006.7440269942
6	141898	28411.092714901557	1008.5153660933
6	142062	28442.168783186386	1874.9661436713
6	142109	28450.96282087668	884.35736459899
6	142246	28478.08714606055	1713.9213606433
6	142298	28488.704131833938	286.39025345041
6	142318	28494.804581253146	1656.2500029663
6	142323	28495.887736446512	821.15561540117
6	142336	28498.980925212529	282.33359108213
6	142359	28504.004932937127	509.02791897084
6	142365	28506.064156651319	795.24991101625
6	142390	28511.689628627626	499.41545975989
6	142398	28513.725560344206	476.76683678617
6	142480	28531.740472983857	1357.7341602712
6	142487	28532.860717242965	1355.7086869147
6	142506	28535.765379423378	234.38472500183
6	142514	28537.588615935119	443.13951669497
6	142554	28546.11665181323	443.54938541465
6	142557	28547.143648056416	739.01020036406
6	142571	28550.814840310356	1257.2346065867
6	142608	28559.294903909705	1958.1576384438
6	142613	28560.280102321144	668.00653730306
6	142625	28562.307636348914	1956.1538440738
6	142637	28564.549953088641	2149.0275442501
6	142647	28566.430874074075	429.76875506784
6	142673	28571.994726367772	222.37715222677
6	142689	28576.125624487747	2240.6132562097
6	142706	28579.10744102794	2117.4159982171
6	142757	28588.329835355015	1200.389667766
6	142786	28595.312600564875	181.4163555685
6	142791	28596.327035357908	2216.4259028819
6	142911	28620.289251414699	187.37742802333
6	142922	28623.284421932523	1206.0674313487
6	142927	28624.467315885902	2242.9285942848
6	142943	28628.313599896628	454.22275551153
6	143095	28658.754486281806	1072.3782644418
6	143098	28659.692374846534	189.67207727656
6	143130	28665.646768694007	1932.1462890608
6	143142	28667.479646789477	1911.5565334895
6	143178	28674.998787296666	194.47686568906
6	143204	28681.240438775914	1860.5845985232
6	143217	28684.113552405788	477.63660783676
6	143251	28691.621307084254	1789.7646748375
6	143288	28698.320224971799	461.36330752136
6	143295	28699.426344668409	1772.9224830002
6	143317	28705.548630023199	188.4976296599
6	143327	28707.869802194379	954.97968763218
6	143345	28712.085291875724	949.67391836393
6	143375	28718.266783433327	1691.7012334215
6	143581	28757.799856386813	1570.6037710629
6	143586	28758.63846010949	1530.1833673612
6	143604	28762.597750038295	213.04496086996
6	143651	28771.646169048003	920.72901516273
6	143839	28806.571103389016	954.43483144904
6	143905	28820.875266738904	2837.6058291087
6	143964	28831.73943736946	704.87129166557
6	143994	28837.988874966016	3503.8070022484
6	144006	28839.90705783937	702.47400388915
6	144161	28871.157854688278	1487.5825709272
6	144164	28872.118988664745	2638.6310884974
6	144214	28881.678442999458	452.46551760464
6	144227	28884.737930555378	254.91531315104
6	144233	28886.867968062513	2208.8193227385
6	144239	28888.80903912421	251.5761201499
6	144257	28892.797284526673	1375.7379598183
6	144287	28899.130443344282	443.58676839114
6	144304	28902.194994123297	2770.4791058359
6	144369	28915.587316934595	436.66437530868
6	144395	28921.004680576752	715.21736797088
6	144425	28927.08570761049	2029.0866113197
6	144489	28938.796371223049	2010.6209568697
6	144505	28942.621630358248	892.61381933237
6	144525	28946.561032701953	670.87303547982
6	144684	28976.65320622103	1873.6294665323
6	144692	28978.818949826637	1863.5321363166
6	144748	28990.659982197747	2832.6944203132
6	144783	28997.93708339009	227.47381549523
6	144799	29001.766145742885	1176.6775529504
6	144819	29005.986826023194	224.2633608676
6	144904	29023.360832954863	189.16531498653
6	144914	29025.253631838331	460.18339308947
6	144923	29028.028420191644	188.20659360127
6	144936	29030.679578205957	3124.6462912336
6	144957	29035.797151804356	3250.9051706408
6	144976	29038.848138098804	458.53982081375
6	145159	29074.191568371106	1113.4784063866
6	145165	29076.255979303561	887.49572725435
6	145983	29237.635017404059	299.06402524322
6	146066	29253.510481042511	528.8842279898
6	146104	29259.132417041905	969.98820554994
6	146156	29268.64310703399	2207.4097413599
6	146281	29293.784163706382	482.13252362798
6	146408	29318.292499860195	1390.1620262255
6	146476	29332.445940847516	932.8975752251
6	146479	29333.401697201475	278.24964665675
6	146486	29334.379958215828	1935.1531182595
6	146524	29342.526830320345	920.2783005866
6	146555	29348.800293858913	457.65171636144
6	146563	29351.006715965555	2668.1991544732
6	146675	29372.316053957589	2983.6760586082
6	146683	29374.008991455663	1167.2760509639
6	146688	29374.837925059352	1699.0934646153
6	146898	29418.2882818942	2515.1488217158
6	147235	29485.086269246136	2455.4749150667
6	147740	29581.21266571693	292.5827630462
6	147758	29585.45595572572	812.17372732076
6	147781	29590.181451593523	581.49870812903
6	148046	29642.484630879295	1315.2794034196
6	148076	29648.361982310564	822.65976052099
6	148089	29651.469726420567	3053.0941817979
6	148113	29657.19354841793	345.32235004428
6	148125	29658.995047082193	808.13724196354
6	148148	29664.106196470093	1312.8397592425
6	148163	29666.798047483712	796.84180008237
6	148226	29679.90553806899	2189.1560868566
6	148299	29695.161159893031	2092.5909369574
6	148304	29696.070632734055	1033.1729262762
6	148331	29700.949538361466	336.99718666745
6	148337	29702.714049178174	785.62302617198
6	148944	29821.081977763586	715.80412445069
6	148968	29827.044365963155	705.31858916523
6	148998	29833.318056436444	709.73941487491
6	149082	29851.628525857349	683.67207865305
6	149111	29856.813628015761	650.37718893953
6	149119	29858.893314229698	646.42663928559
6	149125	29861.094018524328	2160.0877958536
6	149132	29861.940739921296	444.09749911266
6	149150	29865.809987267201	2125.4578755293
6	149218	29880.142419094035	2920.6713314095
6	149273	29890.973405709957	1165.5686388878
6	149351	29905.634382521827	1178.2499540348
6	149401	29916.116870619543	652.27906116491
6	149421	29920.482453298476	1620.2435164196
6	149443	29924.554686875363	1172.4411766018
6	149456	29927.673308891991	406.45430336471
6	149464	29929.761730031205	1174.6851091147
6	149653	29967.141216765997	2683.2155817746
6	149792	29993.846454790703	346.20284156383
6	149801	29996.957331278457	976.76614061948
6	149808	29997.801885625909	1663.1012987298

