version 2
run Second_exit_9-13-20191023-00:20:16-5264
attr configname Second_exit_9
attr datetime 20191023-00:20:16
attr experiment Second_exit_9
attr inifile omnetpp.ini
attr iterationvars ""
attr iterationvarsf ""
attr measurement ""
attr network ResponseTimeNetwork
attr processid 5264
attr repetition 13
attr replication #13
attr resultdir results
attr runnumber 13
attr seedset 13
param **.Source.interArrivalTime exponential(5s)
param **.jobPriority bernoulli(0.6)
param **.PS.serviceTimeU1 "uniform(0.8s, 1.2s)"
param **.PS.serviceTimeU2 "uniform(1.8s, 2.2s)"
param **.SS1.serviceTime exponential(1s)
param **.SS2.serviceTime exponential(1.2s)
param **.PS.exitProbability bernoulli(0.9)

vector 0 ResponseTimeNetwork.SS1 queueLength:vector ETV
attr interpolationmode sample-hold
attr title "queue length, vector"
vector 1 ResponseTimeNetwork.SS2 queueLength:vector ETV
attr interpolationmode sample-hold
attr title "queue length, vector"
vector 2 ResponseTimeNetwork.QueueU1 queueLength:vector ETV
attr interpolationmode sample-hold
attr title "queue length, vector"
vector 3 ResponseTimeNetwork.QueueU2 queueLength:vector ETV
attr interpolationmode sample-hold
attr title "queue length, vector"
vector 4 ResponseTimeNetwork.sink lifeTimeU1:vector ETV
attr interpolationmode none
attr title "lifetime of arrived jobs U1, vector"
attr unit s
vector 5 ResponseTimeNetwork.sink lifeTime:vector ETV
attr interpolationmode none
attr title "lifetime of arrived jobs, vector"
attr unit s
vector 6 ResponseTimeNetwork.sink lifeTimeU2:vector ETV
attr interpolationmode none
attr title "lifetime of arrived jobs U2, vector"
attr unit s
2	0	0	0
2	20	16.615601935142	1
2	21	16.790992837379	0
2	30	18.233177301325	1
2	31	18.631150284946	0
2	35	18.985612633906	1
2	39	19.600403909486	2
2	40	19.793369404204	1
2	44	20.480545116837	2
2	45	20.865308585461	1
2	49	21.161399171394	2
2	50	21.87753875691	1
2	53	22.681303864136	0
2	80	29.373519611759	1
2	82	29.427803229205	2
2	84	29.436557162783	3
2	87	30.476613895141	2
2	90	31.486951437604	1
2	94	31.84931007091	2
2	96	31.928047532562	3
2	97	32.36568408265	2
2	100	33.382917477016	1
2	104	33.434122237369	2
2	106	34.087824485313	3
2	109	34.363513967127	2
2	113	34.363526005242	3
2	114	35.210856375762	2
2	118	35.329106685307	3
2	119	36.295749445644	2
2	123	36.688173046866	3
2	124	37.204531659384	2
2	130	38.16716273971	3
2	131	38.282709840418	2
2	135	38.563053178646	3
2	136	39.202797388856	2
2	139	40.103994463582	1
2	143	40.180725193902	2
2	145	40.952091017872	3
2	146	41.055727778759	2
2	150	41.12478810138	3
2	151	42.164679282542	2
2	155	42.235013230362	3
2	157	42.332763773257	4
2	158	43.009156725846	3
2	161	43.864351145562	2
2	165	43.991390684803	3
2	166	44.703852433536	2
2	170	45.244449110716	3
2	172	45.409072206822	4
2	173	45.586407631088	3
2	176	46.756805424683	2
2	180	47.896567915214	3
2	181	47.955149271164	2
2	185	48.125930140405	3
2	187	48.602143642304	4
2	189	48.717905059983	5
2	190	48.982703372195	4
2	193	49.96282712306	3
2	197	50.213543492113	4
2	199	50.813464691647	5
2	200	50.932449442624	4
2	206	51.025322239966	5
2	207	51.928705496631	4
2	211	52.597578073814	5
2	212	52.733686863455	4
2	215	53.733303535554	3
2	221	54.111797727867	4
2	222	54.576015535287	3
2	226	55.030013482814	4
2	228	55.151826828898	5
2	229	55.448453149676	4
2	233	55.957301013291	5
2	234	56.30299649249	4
2	240	56.572681704896	5
2	241	57.118991564877	4
2	245	57.562746429722	5
2	246	58.302565459732	4
2	250	58.906309572712	5
2	251	59.32076806036	4
2	254	60.424995130777	3
2	258	60.822187190073	4
2	261	61.305648760881	3
2	265	61.418566888755	4
2	267	61.834477566874	5
2	270	62.315995610889	4
2	274	62.470343406172	5
2	275	63.160574299294	4
2	279	63.733719810879	5
2	280	64.228336756501	4
2	284	64.344089879999	5
2	285	65.197010939486	4
2	289	66.193119562703	5
2	290	66.383595755521	4
2	294	66.599636454929	5
2	295	67.192157088883	4
2	298	68.099910965945	3
2	301	69.159963174641	2
2	304	70.178674072411	1
2	308	71.042423811517	2
2	309	71.257364009891	1
2	313	71.917424122878	2
2	315	72.2427686436	3
2	316	72.389545830723	2
2	321	73.553510954429	1
2	325	73.579266586581	2
2	326	74.512120901898	1
2	330	74.746927726427	2
2	332	75.318604427962	3
2	333	75.373518756602	2
2	337	75.546255797836	3
2	338	76.200558312435	2
2	341	77.084471226495	1
2	345	78.008843471511	2
2	346	78.00951908679	1
2	350	78.141530321031	2
2	351	78.899441997253	1
2	355	78.922225036021	2
2	357	78.95663195204	3
2	358	79.84288697812	2
2	361	80.891409004584	1
2	365	81.236716645179	2
2	366	81.714597302035	1
2	371	82.605003068235	0
2	375	82.663495895629	1
2	378	83.769905499473	0
2	388	86.995616933528	1
2	389	87.012999333173	0
2	395	87.421990173156	1
2	398	87.881669451959	0
2	407	89.194543687804	1
2	409	89.452963639158	2
2	411	89.556680035892	3
2	412	89.679583526227	2
2	420	90.320770948992	3
2	421	90.763609881803	2
2	425	91.288605299205	3
2	426	91.653750003233	2
2	430	91.754212231919	3
2	431	92.757140924978	2
2	435	92.948078225235	3
2	438	93.70261456837	2
2	442	93.920530317359	3
2	443	94.519338013987	2
2	446	95.662511478375	1
2	450	95.955142317309	2
2	452	96.278220969082	3
2	453	96.591451053518	2
2	457	96.797301010512	3
2	459	97.160689770677	4
2	460	97.567266938753	3
2	464	97.571673650612	4
2	465	98.724045498028	3
2	469	99.311914861125	4
2	470	99.73133261298	3
2	474	100.182845826882	4
2	476	100.269179660489	5
2	477	100.603223865863	4
2	481	100.975799897636	5
2	482	101.515831400652	4
2	486	102.095685532688	5
2	487	102.59720022307	4
2	491	102.797931809249	5
2	493	103.076310325501	6
2	494	103.446132708259	5
2	498	103.496612123625	6
2	499	104.583898407884	5
2	502	105.451723400328	4
2	506	106.049987336031	5
2	508	106.384839529816	6
2	509	106.57219502899	5
2	512	107.704026020701	4
2	515	108.789646389159	3
2	519	108.794215307863	4
2	520	109.629393448691	3
2	524	110.200751599549	4
2	525	110.810537878527	3
2	529	111.92923456555	4
2	530	111.970648058234	3
2	533	112.785381850051	2
2	537	112.79977573506	3
2	538	113.863498931481	2
2	541	114.716458066097	1
2	544	115.793512569098	0
2	554	117.956483178241	1
2	556	118.156713297619	2
2	557	118.455548437415	1
2	561	119.263097924025	2
2	562	119.377090146309	1
2	566	119.416801778521	2
2	567	120.303776393375	1
2	570	121.184938349398	0
2	577	122.159433861254	1
2	578	122.989658671999	0
2	584	123.428785451871	1
2	586	123.680005503511	2
2	588	123.858393804244	3
2	590	124.074021061291	4
2	591	124.167645486733	3
2	594	125.07919090773	2
2	598	125.364661465893	3
2	600	125.44841845621	4
2	601	125.961030937741	3
2	605	126.483948121709	4
2	606	127.079274765226	3
2	609	127.916413178771	2
2	612	128.987875363521	1
2	615	129.887120709207	0
2	619	129.949117542026	1
2	621	130.299830656357	2
2	622	130.957826204609	1
2	626	131.100152315461	2
2	628	131.903292020154	3
2	629	132.031091609981	2
2	633	132.959158310726	3
2	634	133.020878837269	2
2	638	133.61273394928	3
2	639	133.884771269758	2
2	642	134.728031637997	1
2	645	135.924082460732	0
2	649	136.527708470642	1
2	650	137.115926205658	0
2	654	137.806182202102	1
2	656	137.961107152102	2
2	657	138.059939280723	1
2	660	139.003520862677	0
2	667	140.529459331038	1
2	669	140.615952306311	2
2	670	140.91045036401	1
2	675	141.955828863581	0
2	679	142.618379295112	1
2	680	142.947857590591	0
2	684	143.172874228117	1
2	686	143.463206690597	2
2	688	143.485407935694	3
2	689	143.793304400997	2
2	693	144.79628810708	3
2	694	144.976784675302	2
2	698	145.138655717923	3
2	699	145.959300212855	2
2	703	146.009759115971	3
2	704	146.852772958031	2
2	709	147.974783670543	1
2	713	148.298829112675	2
2	716	149.080173780224	1
2	720	149.757270636067	2
2	721	149.989411363392	1
2	724	150.906888746018	0
2	728	151.705948906295	1
2	729	152.043533208142	0
2	733	152.132280277226	1
2	735	152.155998006957	2
2	737	152.37808156927	3
2	738	153.176767075728	2
2	742	153.446965834435	3
2	744	153.83518954493	4
2	745	154.118621792379	3
2	748	155.196407422251	2
2	752	155.836720464589	3
2	753	156.24153237931	2
2	756	157.372796617276	1
2	760	157.831465568028	2
2	762	157.88188554101	3
2	763	158.291898112758	2
2	767	158.626431871566	3
2	768	159.122722783326	2
2	771	160.262937764185	1
2	775	160.660433045777	2
2	777	160.67837721066	3
2	779	160.842639917281	4
2	781	160.965839361331	5
2	782	161.06885245928	4
2	786	161.559390719922	5
2	788	161.721970253729	6
2	790	161.844429948026	7
2	791	161.981621150406	6
2	797	162.437593329678	7
2	798	162.99979482639	6
2	802	163.150100524989	7
2	803	164.112745537808	6
2	807	164.17127850909	7
2	808	164.956250531146	6
2	812	165.915852566002	7
2	813	165.92783084541	6
2	816	166.956059580123	5
2	819	167.777794274235	4
2	822	168.796061966954	3
2	826	169.325816914079	4
2	827	169.657165021556	3
2	830	170.68329349562	2
2	834	171.516601211212	3
2	835	171.812190220146	2
2	839	172.411958881833	3
2	841	172.7015255012	4
2	842	172.751366360685	3
2	846	172.94120039369	4
2	848	173.358165455811	5
2	850	173.896639503868	6
2	851	173.902058324138	5
2	857	174.64423776127	6
2	858	175.084107821355	5
2	861	176.087949508814	4
2	865	176.362924600359	5
2	866	177.251449369	4
2	869	178.069662427449	3
2	873	178.247920853955	4
2	875	178.845001026471	5
2	877	179.213067072179	6
2	878	179.229649931484	5
2	882	179.353460718258	6
2	883	180.237613690936	5
2	887	180.918346670243	6
2	890	181.222762539157	5
2	894	181.42713202615	6
2	895	182.023391802063	5
2	901	182.289887130881	6
2	902	183.151722449915	5
2	906	183.339877666301	6
2	907	184.049203460769	5
2	911	184.622619710291	6
2	912	184.871013271635	5
2	915	185.754292623991	4
2	920	186.583749075154	3
2	924	186.613561828223	4
2	926	187.231220656673	5
2	928	187.534413260306	6
2	929	187.584745816248	5
2	932	188.5212972792	4
2	936	189.178205851303	5
2	937	189.607890207427	4
2	940	190.592299499842	3
2	944	191.187955102487	4
2	945	191.616997595424	3
2	948	192.567180093298	2
2	951	193.444038987359	1
2	954	194.494423859114	0
2	958	194.537623093681	1
2	959	195.588999861678	0
2	969	198.34652864011	1
2	970	198.634643475165	0
2	974	198.757151816966	1
2	975	199.818631159061	0
2	982	201.251682187979	1
2	984	201.49330257576	2
2	986	201.844731934762	3
2	987	202.032764438179	2
2	992	203.15855947017	1
2	997	204.183520257764	0
2	1001	204.394325472654	1
2	1004	205.171200887498	0
2	1008	206.163242700837	1
2	1010	206.229219330636	2
2	1011	206.343089337565	1
2	1014	207.433042313356	0
2	1018	207.529060985718	1
2	1020	208.000907376722	2
2	1022	208.415213739326	3
2	1023	208.487950222392	2
2	1029	209.169686864534	3
2	1030	209.291378703539	2
2	1033	210.164748400462	1
2	1037	210.550881320243	2
2	1039	210.958619054034	3
2	1040	210.974411984173	2
2	1044	211.06958356249	3
2	1046	211.40028077113	4
2	1047	211.825994059363	3
2	1051	212.024845919192	4
2	1053	212.316879363616	5
2	1055	212.348463211852	6
2	1057	212.581831397774	7
2	1058	212.768516193157	6
2	1062	213.370762875427	7
2	1064	213.392392797493	8
2	1065	213.914308727639	7
2	1069	213.976018409609	8
2	1070	215.09419074004	7
2	1074	215.247471097317	8
2	1075	216.175058494987	7
2	1079	216.272967588761	8
2	1080	217.137389186876	7
2	1083	218.09594300493	6
2	1086	218.954060913449	5
2	1089	220.14803182037	4
2	1092	220.995631218156	3
2	1095	221.852032921849	2
2	1099	222.440661827457	3
2	1101	222.636020574925	4
2	1102	222.993600693545	3
2	1105	223.821252420931	2
2	1109	223.936285675579	3
2	1110	224.869824431385	2
2	1114	224.911862334439	3
2	1116	224.920268531824	4
2	1117	225.680161413658	3
2	1121	225.882629163807	4
2	1123	226.510048504168	5
2	1124	226.744485606826	4
2	1128	227.153358424368	5
2	1130	227.28081252861	6
2	1131	227.546534242774	5
2	1135	227.765870113607	6
2	1136	228.465072444188	5
2	1140	228.584050491451	6
2	1142	229.238889316108	7
2	1143	229.280077650132	6
2	1147	229.96706570967	7
2	1149	230.126699399815	8
2	1150	230.301522747068	7
2	1154	230.374116285677	8
2	1155	231.291023844866	7
2	1159	231.350353076606	8
2	1160	232.140930699849	7
2	1163	233.049383184606	6
2	1167	233.41777674451	7
2	1169	233.696109816451	8
2	1170	233.858153166355	7
2	1173	234.746507394792	6
2	1177	234.805570191043	7
2	1179	235.830584138685	8
2	1180	235.935757020408	7
2	1184	235.950650314837	8
2	1186	236.544928468093	9
2	1187	236.911345869409	8
2	1191	237.022416906427	9
2	1192	238.090780230345	8
2	1195	238.950529099082	7
2	1199	239.531923540097	8
2	1201	239.832296868884	9
2	1202	240.068556860847	8
2	1205	240.930166745571	7
2	1209	241.168297639782	8
2	1210	242.099928209105	7
2	1214	242.645799150645	8
2	1215	243.08603543864	7
2	1218	243.964052410809	6
2	1222	243.968592639335	7
2	1223	244.783244499763	6
2	1226	245.972250229785	5
2	1230	246.002717114827	6
2	1231	247.002924531339	5
2	1235	247.074316501363	6
2	1236	247.855721606048	5
2	1239	248.659965733266	4
2	1242	249.817631897251	3
2	1245	250.751372769954	2
2	1249	250.974557409908	3
2	1251	251.693797967286	4
2	1252	251.801660051583	3
2	1256	252.362907475903	4
2	1257	252.946848461139	3
2	1261	253.334698144596	4
2	1262	254.090203820555	3
2	1265	254.89917785061	2
2	1269	255.366502108992	3
2	1270	256.058777555744	2
2	1273	256.996692658788	1
2	1277	257.446343292117	2
2	1279	257.874490442589	3
2	1280	257.924261897443	2
2	1283	259.094575483924	1
2	1287	259.17685090267	2
2	1289	260.00863520397	3
2	1290	260.04631523454	2
2	1294	260.261703315841	3
2	1295	260.854526349729	2
2	1299	261.396294550661	3
2	1301	261.796357174507	4
2	1302	261.927346982075	3
2	1305	262.914177442914	2
2	1309	263.24940268079	3
2	1310	263.982941630682	2
2	1314	264.018242593341	3
2	1315	264.995711107658	2
2	1320	266.155657168677	1
2	1324	266.622401727407	2
2	1325	267.146794714885	1
2	1328	268.250081609296	0
2	1338	270.2886551038	1
2	1340	270.73018656962	2
2	1342	271.044846409434	3
2	1343	271.156225499152	2
2	1349	271.888081600208	3
2	1350	272.353257813412	2
2	1353	273.355248799469	1
2	1357	273.806427280188	2
2	1361	274.201634100691	3
2	1363	274.474697361914	4
2	1364	274.525782103106	3
2	1367	275.551405923921	2
2	1372	276.696533179577	1
2	1375	277.890419900804	0
2	1382	279.611998777724	1
2	1384	279.665600516725	2
2	1385	279.679771808363	1
2	1391	280.04359560705	2
2	1393	280.290887077526	3
2	1394	280.674754914376	2
2	1397	281.844628031938	1
2	1401	282.5902100672	2
2	1402	282.757249438404	1
2	1406	283.632508712627	2
2	1408	283.765991623636	3
2	1409	283.899347612462	2
2	1413	284.973661583874	3
2	1414	285.031931753098	2
2	1417	285.971140576075	1
2	1421	286.878164919365	2
2	1422	287.051980695422	1
2	1426	287.087131617027	2
2	1428	287.107419038392	3
2	1430	287.454827713695	4
2	1432	287.45779500416	5
2	1434	287.701838294444	6
2	1436	288.138796346491	7
2	1437	288.204125432684	6
2	1441	288.209862293817	7
2	1443	288.542688279441	8
2	1444	289.198400274957	7
2	1447	290.067778652827	6
2	1451	290.237960560176	7
2	1452	291.115916103325	6
2	1456	291.232703952092	7
2	1457	292.241064466178	6
2	1461	293.110392680839	7
2	1462	293.302394434452	6
2	1465	294.18307317711	5
2	1469	294.711854162613	6
2	1471	295.001071406668	7
2	1472	295.103332740269	6
2	1475	295.987212427906	5
2	1479	296.698328728724	6
2	1480	297.182076972458	5
2	1484	297.430035457975	6
2	1486	297.693335961859	7
2	1487	298.311302960306	6
2	1490	299.503185136724	5
2	1494	299.881120394926	6
2	1496	299.9749451788	7
2	1497	300.530187359839	6
2	1501	300.798792938471	7
2	1502	301.673496144745	6
2	1505	302.621116848956	5
2	1509	302.895466498681	6
2	1511	303.171763462875	7
2	1512	303.552176626506	6
2	1516	303.800254182892	7
2	1517	304.47400275703	6
2	1520	305.503922596494	5
2	1524	306.122292561685	6
2	1525	306.354784208736	5
2	1529	306.400555840194	6
2	1531	306.967587851527	7
2	1532	307.266058500404	6
2	1536	307.570230410518	7
2	1537	308.331551811951	6
2	1541	308.658218250819	7
2	1542	309.51099680887	6
2	1545	310.35115558823	5
2	1549	311.124116751548	6
2	1550	311.500025297435	5
2	1554	311.645056592617	6
2	1556	312.232853758097	7
2	1557	312.388310805349	6
2	1561	313.012343535105	7
2	1563	313.195636849755	8
2	1564	313.523484774785	7
2	1567	314.353500247573	6
2	1571	314.581882331474	7
2	1572	315.317560091348	6
2	1576	315.642879945709	7
2	1577	316.333931753238	6
2	1581	316.628183100277	7
2	1582	317.138760525187	6
2	1585	318.219825255418	5
2	1588	319.04420451458	4
2	1592	319.411946766402	5
2	1594	319.939367279001	6
2	1595	320.048459780602	5
2	1599	320.316053270532	6
2	1601	320.333498979933	7
2	1603	321.099050340527	8
2	1604	321.20067724205	7
2	1607	322.137439862279	6
2	1610	322.953797394143	5
2	1614	323.05605069866	6
2	1615	323.982419657068	5
2	1619	324.061674843736	6
2	1621	324.076270503376	7
2	1623	324.453251310395	8
2	1624	324.828023818893	7
2	1627	325.830137738598	6
2	1631	325.864344751661	7
2	1632	326.815932889575	6
2	1636	327.180557886942	7
2	1637	327.924665026286	6
2	1640	328.743900651683	5
2	1644	329.513068661535	6
2	1645	329.592814054259	5
2	1648	330.539038735081	4
2	1652	330.654245231369	5
2	1654	330.911402403605	6
2	1656	330.993914650268	7
2	1657	331.564290685591	6
2	1660	332.700935784087	5
2	1664	333.463182176307	6
2	1665	333.610060553264	5
2	1669	334.284529539667	6
2	1670	334.493839246139	5
2	1674	334.543864924253	6
2	1676	334.86850432566	7
2	1677	335.536007828184	6
2	1681	336.444819705134	7
2	1682	336.548070676636	6
2	1686	336.608718004732	7
2	1688	337.270390018943	8
2	1690	337.463925212971	9
2	1691	337.55419384978	8
2	1696	338.687640300311	7
2	1700	338.958684311883	8
2	1702	339.486875854693	9
2	1703	339.745746655308	8
2	1706	340.588227546413	7
2	1710	340.787491396922	8
2	1711	341.728230024141	7
2	1715	341.824314186699	8
2	1716	342.77117279704	7
2	1719	343.720719369513	6
2	1723	344.365489030948	7
2	1725	344.674708723515	8
2	1726	344.697042962641	7
2	1730	345.408512112256	8
2	1731	345.650847227976	7
2	1735	345.666382423611	8
2	1738	346.757280619175	7
2	1741	347.745828941849	6
2	1746	348.804819495802	5
2	1750	349.166666288601	6
2	1752	349.27378276623	7
2	1754	349.496735111086	8
2	1756	349.52503153929	9
2	1757	349.863894953312	8
2	1760	350.993555021019	7
2	1764	351.204218233505	8
2	1765	352.120078992483	7
2	1769	352.773177606162	8
2	1770	353.086489258253	7
2	1774	353.858149856973	8
2	1776	354.209760840829	9
2	1777	354.285288624757	8
2	1780	355.271057493531	7
2	1784	355.714943844691	8
2	1786	356.100966058171	9
2	1787	356.365255116218	8
2	1791	357.471999914639	9
2	1792	357.53692363744	8
2	1796	358.059889014871	9
2	1797	358.368204107428	8
2	1801	358.438647743673	9
2	1803	359.097917044231	10
2	1804	359.535355258187	9
2	1808	359.812707300272	10
2	1809	360.549285928825	9
2	1813	360.789802264937	10
2	1814	361.632207865188	9
2	1817	362.82261016603	8
2	1821	363.759360033779	9
2	1822	363.85442095782	8
2	1825	365.012367178047	7
2	1829	365.166124137139	8
2	1831	365.850441588195	9
2	1833	365.8676053433	10
2	1834	365.9385389574	9
2	1838	366.182647335383	10
2	1839	367.122677277041	9
2	1842	368.11767134528	8
2	1846	368.279846440045	9
2	1848	368.282931120607	10
2	1850	368.50910035513	11
2	1851	369.033487235115	10
2	1854	370.082981577342	9
2	1857	370.959558741016	8
2	1861	370.988074204895	9
2	1863	371.797066021289	10
2	1864	372.050594860607	9
2	1868	372.46963161909	10
2	1869	373.198111062789	9
2	1872	374.18926546696	8
2	1875	375.114367685107	7
2	1878	376.118529552327	6
2	1881	377.302491148388	5
2	1885	378.142952996627	6
2	1886	378.278100764392	5
2	1889	379.149048254373	4
2	1893	379.365172920237	5
2	1895	379.41349803628	6
2	1897	379.599204400364	7
2	1898	380.322377250823	6
2	1902	380.439503487086	7
2	1903	381.316193358148	6
2	1907	381.341884160852	7
2	1908	382.369836208052	6
2	1911	383.171889689765	5
2	1914	384.250419115569	4
2	1918	384.826436574269	5
2	1920	384.971156029577	6
2	1922	385.380929383124	7
2	1923	385.396998020276	6
2	1927	386.119649734779	7
2	1928	386.585121348887	6
2	1931	387.496855739891	5
2	1935	388.309829363972	6
2	1937	388.354230096977	7
2	1938	388.490113212462	6
2	1942	388.984546904195	7
2	1943	389.299219993796	6
2	1947	390.24669075919	7
2	1949	390.309373469112	8
2	1950	390.336887681406	7
2	1953	391.456757610399	6
2	1957	391.503997754707	7
2	1960	392.291720126863	6
2	1964	393.209369401242	7
2	1965	393.31091309629	6
2	1968	394.347374584354	5
2	1972	394.518722785323	6
2	1974	394.527569289691	7
2	1976	395.435577311934	8
2	1977	395.534114082358	7
2	1981	395.863802297327	8
2	1983	396.182575693404	9
2	1984	396.597523930869	8
2	1988	396.830136568142	9
2	1990	396.912695654538	10
2	1991	397.761050030976	9
2	1994	398.934068041961	8
2	1998	399.249628899432	9
2	2000	399.521769344856	10
2	2001	400.076672850563	9
2	2005	400.234803355868	10
2	2007	400.970905168056	11
2	2008	401.159223544518	10
2	2011	402.275009671798	9
2	2014	403.474655812712	8
2	2018	403.942083478166	9
2	2019	404.471611036373	8
2	2022	405.511488990126	7
2	2026	405.703425024927	8
2	2028	405.984682265603	9
2	2029	406.492997501058	8
2	2035	406.954014960507	9
2	2036	407.452457372764	8
2	2040	408.102581350875	9
2	2042	408.248564462497	10
2	2044	408.37788512415	11
2	2045	408.621180531582	10
2	2049	409.03182189756	11
2	2050	409.531830496727	10
2	2053	410.433043043701	9
2	2056	411.470299825551	8
2	2060	411.900028808542	9
2	2061	412.319273158176	8
2	2065	413.037210277699	9
2	2066	413.307783658723	8
2	2070	414.045007658099	9
2	2072	414.328741531539	10
2	2073	414.404687558221	9
2	2077	414.464780381767	10
2	2078	415.575962664945	9
2	2082	415.705259750715	10
2	2083	416.57897258039	9
2	2086	417.487698094467	8
2	2090	417.510229609012	9
2	2092	418.190422111215	10
2	2093	418.421965642566	9
2	2096	419.320194747964	8
2	2100	419.355002819656	9
2	2102	420.073630332983	10
2	2103	420.347006820714	9
2	2106	421.215019011324	8
2	2110	421.661034812287	9
2	2112	421.744423535827	10
2	2114	422.252953765955	11
2	2115	422.263939217305	10
2	2118	423.256466023078	9
2	2122	423.491661870532	10
2	2124	423.602901501642	11
2	2126	423.909287706092	12
2	2127	424.257119819907	11
2	2131	424.288639315602	12
2	2133	424.623453343626	13
2	2134	425.148075679516	12
2	2138	425.835362811083	13
2	2139	426.226383532503	12
2	2143	426.84112840405	13
2	2144	427.268013912638	12
2	2147	428.362703435694	11
2	2151	428.655796051517	12
2	2152	429.349516056397	11
2	2156	430.188475988082	12
2	2157	430.509296509822	11
2	2160	431.321417487797	10
2	2163	432.28877087693	9
2	2166	433.199018844602	8
2	2169	434.096046042827	7
2	2172	434.997814744723	6
2	2175	436.054595416144	5
2	2179	436.790551220595	6
2	2180	436.878212387965	5
2	2184	437.103920209147	6
2	2185	437.955436842528	5
2	2188	438.960281807103	4
2	2191	440.05259732838	3
2	2195	440.056240917871	4
2	2197	440.822628283075	5
2	2198	440.912291535095	4
2	2201	441.943621299055	3
2	2204	442.755254029494	2
2	2208	442.775944398341	3
2	2210	443.207544066889	4
2	2212	443.396363917506	5
2	2214	443.481970552542	6
2	2215	443.642135735706	5
2	2218	444.584212053206	4
2	2222	445.383362088052	5
2	2223	445.491694753815	4
2	2226	446.585447529343	3
2	2230	446.943065445841	4
2	2231	447.410344048602	3
2	2234	448.251105791157	2
2	2238	448.561419562813	3
2	2239	449.394449629368	2
2	2242	450.388924531093	1
2	2246	450.753043807401	2
2	2247	451.51305325014	1
2	2251	452.004577709464	2
2	2252	452.588331877081	1
2	2256	453.668928036639	2
2	2257	453.706423707972	1
2	2261	454.081854622504	2
2	2262	454.6317966425	1
2	2266	455.194727090115	2
2	2268	455.205589619945	3
2	2269	455.560053967512	2
2	2273	455.578122971273	3
2	2275	456.078284694807	4
2	2277	456.245920975993	5
2	2278	456.650344804688	4
2	2281	457.466392744067	3
2	2286	458.279134287885	2
2	2289	459.138385275951	1
2	2292	460.213290451853	0
2	2299	461.441973962372	1
2	2300	462.145379485483	0
2	2304	462.360698656376	1
2	2307	462.97441252164	0
2	2311	463.10320378456	1
2	2313	463.833215793177	2
2	2315	463.901170497334	3
2	2316	463.988163587278	2
2	2320	464.822673813693	3
2	2321	464.887905814419	2
2	2325	465.28183793364	3
2	2326	466.010938799395	2
2	2330	466.887489821176	3
2	2331	467.205748885884	2
2	2335	467.906520286366	3
2	2336	468.241256095483	2
2	2340	468.526794687086	3
2	2342	468.642073173102	4
2	2343	469.405580900065	3
2	2347	469.881418861703	4
2	2348	470.267642195258	3
2	2351	471.103783706683	2
2	2356	472.19204781001	1
2	2360	472.28673600926	2
2	2362	472.373275311223	3
2	2363	473.065106574181	2
2	2367	473.421793077826	3
2	2368	473.964642635934	2
2	2374	474.592828258664	3
2	2376	474.607353810532	4
2	2377	474.850133079678	3
2	2381	475.025265561105	4
2	2383	475.725041086779	5
2	2384	475.796499344163	4
2	2388	475.876704727332	5
2	2390	476.501792574348	6
2	2391	476.939792981107	5
2	2394	477.798188772533	4
2	2398	477.842339512964	5
2	2399	478.862378914017	4
2	2403	479.333996779725	5
2	2404	479.934246520247	4
2	2408	479.950946301175	5
2	2409	480.828083461631	4
2	2413	480.976265771891	5
2	2416	481.778336064067	4
2	2420	481.831100316674	5
2	2422	482.331411039173	6
2	2423	482.629316938684	5
2	2427	482.748166660632	6
2	2429	483.078336547863	7
2	2430	483.652870781921	6
2	2434	483.977132386099	7
2	2437	484.816736495044	6
2	2440	485.906696175799	5
2	2443	486.932741032556	4
2	2446	487.798455379173	3
2	2450	488.34906417223	4
2	2451	488.64639311127	3
2	2454	489.617869102318	2
2	2458	489.780457093908	3
2	2460	489.913296544424	4
2	2462	490.391502857848	5
2	2463	490.633478582014	4
2	2467	491.338251725375	5
2	2468	491.466839035709	4
2	2471	492.628715192635	3
2	2475	492.789044788549	4
2	2476	493.548803628624	3
2	2482	494.346929275109	4
2	2483	494.560829292812	3
2	2486	495.399861434304	2
2	2490	495.484502202095	3
2	2493	496.285098534745	2
2	2497	496.636560573066	3
2	2498	497.391775198948	2
2	2502	497.542964929429	3
2	2504	498.184791440981	4
2	2505	498.379731617324	3
2	2508	499.469357976146	2
2	2512	499.630565585696	3
2	2513	500.374549426805	2
2	2517	500.679103912449	3
2	2519	501.21163008725	4
2	2520	501.381174017224	3
2	2523	502.452643755838	2
2	2527	503.331002045896	3
2	2529	503.382296051046	4
2	2530	503.593750196896	3
2	2534	504.185608062601	4
2	2535	504.49316790273	3
2	2539	504.783570572791	4
2	2541	505.212300018042	5
2	2542	505.451052655108	4
2	2545	506.445948581692	3
2	2548	507.548975954592	2
2	2551	508.48896001048	1
2	2554	509.31069316018	0
2	2558	510.187465673831	1
2	2559	510.477413772713	0
2	2563	510.829777840174	1
2	2564	511.403559911545	0
2	2568	511.959451675618	1
2	2569	512.594841283947	0
2	2576	514.163951992129	1
2	2577	514.859634488557	0
2	2583	514.95283959406	1
2	2585	515.274072161442	2
2	2586	516.007867243436	1
2	2589	516.979741039422	0
2	2593	517.310070699553	1
2	2595	517.647457230407	2
2	2596	517.860551589929	1
2	2600	518.033222810272	2
2	2602	518.214003913301	3
2	2603	518.788199848138	2
2	2606	519.970431310792	1
2	2609	520.799536902473	0
2	2613	521.154485392976	1
2	2615	521.278271572204	2
2	2617	521.483860416386	3
2	2618	521.979276075137	2
2	2622	522.097237499327	3
2	2624	522.16792059425	4
2	2625	523.138831414857	3
2	2629	523.448188432973	4
2	2631	523.950956628053	5
2	2632	524.238481297826	4
2	2636	524.381908835809	5
2	2637	525.346575537527	4
2	2641	525.719422211385	5
2	2642	526.463280541467	4
2	2646	527.020753479925	5
2	2648	527.094552351303	6
2	2649	527.478817251621	5
2	2653	527.816458331902	6
2	2654	528.646633301879	5
2	2658	528.673769289505	6
2	2659	529.566072748246	5
2	2663	529.81980113394	6
2	2665	530.087349734929	7
2	2668	530.61599045174	6
2	2672	530.737139807061	7
2	2674	531.701557847598	8
2	2675	531.806110264005	7
2	2679	531.84381304144	8
2	2681	532.237812033331	9
2	2683	532.322504500922	10
2	2685	532.477106365044	11
2	2687	532.636550993622	12
2	2688	532.974267229641	11
2	2692	533.187766091367	12
2	2694	533.399182485958	13
2	2695	534.135451939067	12
2	2699	534.526458300952	13
2	2700	534.963428974075	12
2	2704	535.469041356787	13
2	2705	535.874967273434	12
2	2709	536.257019234011	13
2	2711	536.382414849884	14
2	2712	537.002538737857	13
2	2716	537.307842862475	14
2	2717	538.164472238456	13
2	2721	538.306665267662	14
2	2723	538.638376322034	15
2	2725	538.724918915266	16
2	2726	539.098740436339	15
2	2730	539.579100513104	16
2	2732	539.629111499392	17
2	2733	540.293053344094	16
2	2737	540.364819911796	17
2	2739	540.383455269921	18
2	2740	541.118006293491	17
2	2744	541.993153934066	18
2	2745	542.143137691558	17
2	2748	543.031899094504	16
2	2751	543.990672117022	15
2	2754	545.187272761126	14
2	2758	545.669052081343	15
2	2759	546.310527700853	14
2	2762	547.183744102825	13
2	2766	547.915639750976	14
2	2767	548.081969576996	13
2	2771	548.390277446599	14
2	2773	548.49599506518	15
2	2774	549.094691507627	14
2	2778	549.777207164089	15
2	2779	550.260957636234	14
2	2782	551.222418041636	13
2	2785	552.421367798668	12
2	2788	553.231574874201	11
2	2791	554.215783446298	10
2	2795	554.655488444251	11
2	2797	555.364946529671	12
2	2798	555.406946213746	11
2	2801	556.488254847673	10
2	2805	557.375631689634	11
2	2806	557.397787874115	10
2	2810	557.43043168406	11
2	2812	558.118459479029	12
2	2813	558.40230823999	11
2	2817	558.527780383084	12
2	2818	559.260821805817	11
2	2822	559.945135517915	12
2	2824	560.033609948762	13
2	2825	560.112067971115	12
2	2829	560.566713441536	13
2	2831	560.682028850035	14
2	2832	561.016590857708	13
2	2836	561.389121760806	14
2	2837	562.132694752903	13
2	2841	563.018821834936	14
2	2842	563.320913208665	13
2	2846	563.601359452512	14
2	2848	563.614901459619	15
2	2850	563.762568827168	16
2	2852	563.930900299536	17
2	2853	564.235272987483	16
2	2857	564.880201488225	17
2	2860	565.19643236093	16
2	2864	565.228738105726	17
2	2866	566.133652178988	18
2	2867	566.364109439885	17
2	2870	567.262613659555	16
2	2874	567.965612331291	17
2	2875	568.273827709088	16
2	2879	568.323782608685	17
2	2881	568.684528602839	18
2	2882	569.449533571413	17
2	2885	570.251787801756	16
2	2888	571.402744934353	15
2	2891	572.327854227292	14
2	2895	572.872296066493	15
2	2896	573.407986674755	14
2	2902	574.202438529029	15
2	2903	574.381500049791	14
2	2907	574.605048627617	15
2	2908	575.241706797777	14
2	2911	576.364240808336	13
2	2914	577.191488416975	12
2	2918	577.683371035308	13
2	2920	577.763454304241	14
2	2921	578.201426466478	13
2	2924	579.025180046463	12
2	2927	579.951440110447	11
2	2930	580.897062017413	10
2	2934	581.557839386254	11
2	2935	581.912905928975	10
2	2939	582.282490913059	11
2	2940	582.77762864718	10
2	2943	583.958101259188	9
2	2947	584.757143247879	10
2	2948	584.817275271022	9
2	2952	585.289431563314	10
2	2954	585.39714028319	11
2	2955	585.962427855765	10
2	2958	586.823839825501	9
2	2962	587.073028455845	10
2	2964	587.164733878829	11
2	2966	587.253062250297	12
2	2968	587.458801627829	13
2	2970	587.689366535982	14
2	2971	587.846286693511	13
2	2974	588.941702770737	12
2	2978	588.94360400783	13
2	2979	589.930484144126	12
2	2983	590.338012392801	13
2	2984	591.105519995295	12
2	2988	591.284794183568	13
2	2989	592.262524590005	12
2	2993	593.05396497767	13
2	2994	593.304038807393	12
2	2997	594.499212886129	11
2	3000	595.353588841219	10
2	3004	595.69098394408	11
2	3006	596.156670049262	12
2	3007	596.328459464029	11
2	3010	597.349040994343	10
2	3013	598.247745487203	9
2	3017	598.628782545824	10
2	3018	599.264640926958	9
2	3022	599.835235058563	10
2	3023	600.31848285116	9
2	3026	601.484158757624	8
2	3030	601.637322701425	9
2	3031	602.546425813638	8
2	3035	603.229082587273	9
2	3037	603.477193615103	10
2	3038	603.656999610473	9
2	3042	603.980290162523	10
2	3043	604.849190727637	9
2	3047	605.268871775557	10
2	3048	605.744453831871	9
2	3052	606.020280700564	10
2	3054	606.607002282938	11
2	3055	606.796149757055	10
2	3058	607.796852081565	9
2	3062	608.123777026384	10
2	3063	608.616555629128	9
2	3066	609.685281336324	8
2	3070	609.903632857159	9
2	3071	610.824226903932	8
2	3074	611.658376726804	7
2	3078	611.67531547496	8
2	3080	612.06020825965	9
2	3082	612.167547634452	10
2	3084	612.50393095719	11
2	3085	612.63887590423	10
2	3089	613.07098436783	11
2	3090	613.616609597316	10
2	3093	614.541362429148	9
2	3097	615.56245936537	10
2	3098	615.687705202697	9
2	3101	616.49596202012	8
2	3105	617.170603466399	9
2	3106	617.634369381907	8
2	3109	618.704767204838	7
2	3113	618.769806921765	8
2	3115	619.458345155902	9
2	3116	619.903705434611	8
2	3120	620.076120572426	9
2	3122	620.813830511492	10
2	3123	620.851161766814	9
2	3127	621.645155590817	10
2	3129	621.676753736123	11
2	3130	621.824396533536	10
2	3134	622.412677931825	11
2	3136	622.673934754218	12
2	3137	622.838323118462	11
2	3141	623.670803747211	12
2	3142	623.894702231715	11
2	3146	624.077434201496	12
2	3148	624.284262510708	13
2	3151	624.993563602975	12
2	3157	625.642676917258	13
2	3158	625.832799602503	12
2	3161	626.921453047933	11
2	3164	627.88846917359	10
2	3168	628.113761829415	11
2	3170	628.343986379829	12
2	3172	628.346581513955	13
2	3174	628.563369487865	14
2	3175	629.022918735462	13
2	3179	629.858053148217	14
2	3180	630.126547899115	13
2	3186	631.041310722734	14
2	3187	631.199973387568	13
2	3190	632.002181384544	12
2	3193	632.820591220371	11
2	3196	633.90176796887	10
2	3202	634.725083121006	11
2	3203	635.089634940046	10
2	3207	635.704365215419	11
2	3209	635.712844433238	12
2	3210	636.006214321888	11
2	3214	636.684976774987	12
2	3215	637.126624897792	11
2	3220	637.985861078574	10
2	3223	638.866677474248	9
2	3227	639.83797157818	10
2	3228	640.016905888001	9
2	3232	640.501262766098	10
2	3234	640.541781542779	11
2	3235	640.85375801606	10
2	3239	641.463848472391	11
2	3240	642.028548836539	10
2	3243	642.869715087971	9
2	3249	643.370404185993	10
2	3250	643.834573968331	9
2	3253	644.708991018514	8
2	3257	645.585225342916	9
2	3258	645.749927195272	8
2	3262	645.806684616884	9
2	3263	646.759263179003	8
2	3266	647.573810412007	7
2	3270	647.691927106989	8
2	3271	648.587718756328	7
2	3274	649.463399810361	6
2	3278	649.558871501635	7
2	3280	649.57513947881	8
2	3282	649.833705907589	9
2	3284	650.33607496763	10
2	3285	650.57656408252	9
2	3289	651.019081156198	10
2	3291	651.286511132634	11
2	3292	651.425519391445	10
2	3295	652.235081439761	9
2	3298	653.055697376949	8
2	3302	653.07755241248	9
2	3304	653.172210550304	10
2	3306	653.443106267959	11
2	3309	654.101658256927	10
2	3314	655.030300785711	9
2	3318	655.686975112535	10
2	3320	656.070706995405	11
2	3321	656.2066171962	10
2	3324	657.181331476027	9
2	3327	658.202957307471	8
2	3331	658.314778411603	9
2	3332	659.149431887193	8
2	3335	659.962900741229	7
2	3339	660.70879519798	8
2	3340	660.868499495292	7
2	3344	661.259791885944	8
2	3346	661.665869103125	9
2	3347	661.781087704858	8
2	3351	662.438486719036	9
2	3353	662.564526031133	10
2	3355	662.841532470293	11
2	3356	662.882358949648	10
2	3360	662.965947318385	11
2	3361	663.859732885116	10
2	3365	664.736640785995	11
2	3366	664.971553045155	10
2	3372	665.697836140641	11
2	3373	666.026679605914	10
2	3377	666.66427730277	11
2	3378	666.949684092605	10
2	3382	667.996242282411	11
2	3383	668.130568675806	10
2	3386	669.044164564756	9
2	3390	670.038425066217	10
2	3391	670.213821956159	9
2	3394	671.042019178548	8
2	3398	671.512533547534	9
2	3399	672.235829485783	8
2	3403	672.692341725401	9
2	3405	672.767692492394	10
2	3406	673.244028419086	9
2	3409	674.170204179657	8
2	3413	674.170998840782	9
2	3415	674.312988482305	10
2	3416	675.261904451733	9
2	3419	676.445361166277	8
2	3422	677.485011341439	7
2	3425	678.325288887804	6
2	3429	678.926338696454	7
2	3430	679.185180710645	6
2	3433	680.135324662661	5
2	3436	681.042197711875	4
2	3440	681.192198271436	5
2	3441	681.953864756895	4
2	3445	682.069994561913	5
2	3446	682.78736420797	4
2	3449	683.603481992165	3
2	3452	684.527650710771	2
2	3456	684.990214895084	3
2	3458	685.179825887982	4
2	3459	685.366244770976	3
2	3462	686.219637240393	2
2	3466	686.790144674837	3
2	3467	687.110871212853	2
2	3471	687.112135164026	3
2	3473	688.179415739023	4
2	3474	688.265031261666	3
2	3477	689.166616658883	2
2	3480	690.278394122811	1
2	3484	690.76549926428	2
2	3486	691.065480132499	3
2	3488	691.070723184861	4
2	3489	691.34982288705	3
2	3493	691.527171198195	4
2	3496	692.176372772658	3
2	3500	692.597653870705	4
2	3501	693.372836411109	3
2	3505	693.664229528756	4
2	3506	694.249860895721	3
2	3509	695.174881326237	2
2	3513	695.70608277055	3
2	3515	696.050978775288	4
2	3516	696.071190930267	3
2	3520	696.482002202978	4
2	3522	696.829509376263	5
2	3523	697.089978884456	4
2	3526	697.94269963253	3
2	3529	699.117305497375	2
2	3533	699.539693356493	3
2	3535	699.93742791227	4
2	3537	700.101685852635	5
2	3538	700.134573132933	4
2	3542	700.764989054733	5
2	3544	701.107322781315	6
2	3545	701.253927370456	5
2	3549	701.33038221236	6
2	3551	701.776885742281	7
2	3552	702.150423810461	6
2	3556	702.875956047109	7
2	3557	703.083867896644	6
2	3561	703.323297554196	7
2	3562	703.892458805458	6
2	3566	704.422537771409	7
2	3567	704.842900612408	6
2	3570	705.89869489867	5
2	3573	706.755436403693	4
2	3576	707.723584534337	3
2	3580	707.881367900791	4
2	3581	708.804055262094	3
2	3585	708.810323949636	4
2	3586	709.755889439506	3
2	3590	710.201286405747	4
2	3593	710.610234240179	3
2	3597	710.876989848245	4
2	3598	711.48471509434	3
2	3601	712.516889204659	2
2	3605	713.007869759799	3
2	3607	713.062058087683	4
2	3609	713.456647669874	5
2	3610	713.635102197357	4
2	3614	713.696645792261	5
2	3616	713.776563324763	6
2	3617	714.688612617288	5
2	3621	714.71101338244	6
2	3622	715.628249817077	5
2	3626	715.638063591612	6
2	3628	716.066059825501	7
2	3630	716.442533577163	8
2	3632	716.632381746163	9
2	3633	716.772857902214	8
2	3637	717.681530124545	9
2	3638	717.754688477345	8
2	3642	718.279729070066	9
2	3645	718.645310482491	8
2	3649	718.9962012633	9
2	3651	719.33924262928	10
2	3653	719.365727514689	11
2	3654	719.538435528908	10
2	3661	720.699317600779	9
2	3665	720.725451996865	10
2	3667	720.807946619028	11
2	3669	721.389561570045	12
2	3670	721.749075812302	11
2	3673	722.776347062006	10
2	3677	722.892641406078	11
2	3679	723.232139308639	12
2	3680	723.767047492056	11
2	3684	723.958141104463	12
2	3686	724.71909047239	13
2	3688	724.864784712265	14
2	3689	724.935139027717	13
2	3693	724.99330954417	14
2	3694	725.783439543391	13
2	3698	726.017303170173	14
2	3699	726.764729737411	13
2	3703	727.303864800422	14
2	3704	727.677618525936	13
2	3708	727.822460374079	14
2	3711	728.856144731971	13
2	3715	729.373198107332	14
2	3717	729.541377611827	15
2	3719	729.818600866789	16
2	3720	729.926361348959	15
2	3724	730.488448915627	16
2	3725	730.983917330498	15
2	3728	731.807738447482	14
2	3731	732.884310990492	13
2	3734	733.790844169272	12
2	3738	733.853761138028	13
2	3740	734.686220676871	14
2	3742	734.728437800352	15
2	3743	734.8250846794	14
2	3747	734.959780520272	15
2	3749	735.194054236546	16
2	3750	735.662439478481	15
2	3753	736.562328773284	14
2	3757	737.414940551504	15
2	3759	737.545201892296	16
2	3760	737.658741087479	15
2	3764	737.847893467811	16
2	3765	738.787829648064	15
2	3769	738.910598883313	16
2	3771	738.985357168968	17
2	3772	739.606945454062	16
2	3776	739.758969519569	17
2	3778	740.337762851132	18
2	3779	740.519332819258	17
2	3782	741.344773011946	16
2	3787	742.457148013648	15
2	3790	743.44559903742	14
2	3793	744.345256164216	13
2	3796	745.531332829979	12
2	3800	745.61876174451	13
2	3802	746.444376320504	14
2	3803	746.637711627234	13
2	3809	746.958463574837	14
2	3813	747.490345795069	15
2	3814	747.643674189981	14
2	3818	748.745320455458	15
2	3819	748.779366700735	14
2	3823	749.579488296262	15
2	3825	749.63028756794	16
2	3826	749.667062771518	15
2	3830	749.788068918659	16
2	3832	750.356456541308	17
2	3833	750.74656736619	16
2	3836	751.589450498122	15
2	3840	751.620021654605	16
2	3842	751.638587569718	17
2	3843	752.446804452232	16
2	3846	753.492379228874	15
2	3849	754.327037041179	14
2	3853	754.900898128521	15
2	3854	755.168736184492	14
2	3858	755.751050937753	15
2	3860	756.292044563185	16
2	3861	756.321337052725	15
2	3865	756.661257751301	16
2	3867	757.393131150706	17
2	3868	757.514334996521	16
2	3871	758.592652118776	15
2	3875	758.949247540178	16
2	3877	759.320935751999	17
2	3878	759.417153760802	16
2	3881	760.229471208353	15
2	3884	761.033879916754	14
2	3888	761.937836272456	15
2	3889	762.087330695346	14
2	3892	763.281144795019	13
2	3896	763.839176057084	14
2	3898	763.969803584669	15
2	3899	764.308054707024	14
2	3902	765.229145014018	13
2	3906	765.59526312714	14
2	3907	766.286858949449	13
2	3911	766.684513223476	14
2	3912	767.100672032137	13
2	3916	767.150765614834	14
2	3918	767.168954607404	15
2	3921	768.153360415448	14
2	3925	768.38486791475	15
2	3926	769.308462555159	14
2	3930	769.337864880646	15
2	3931	770.314357285585	14
2	3934	771.427689801074	13
2	3938	771.894317438814	14
2	3939	772.490886761724	13
2	3942	773.384460663247	12
2	3945	774.422952623303	11
2	3949	774.69858774679	12
2	3950	775.423435839183	11
2	3954	775.440665018067	12
2	3956	775.464360443909	13
2	3958	775.787278701019	14
2	3959	776.321028551656	13
2	3963	776.555641768664	14
2	3964	777.428352950803	13
2	3968	777.769077304016	14
2	3969	778.626999963737	13
2	3973	778.791531470496	14
2	3975	779.32093469503	15
2	3977	779.592627444698	16
2	3978	779.732431865121	15
2	3982	779.924737590513	16
2	3984	780.019733061381	17
2	3985	780.581655930365	16
2	3988	781.541587787597	15
2	3992	781.705396842497	16
2	3994	781.976236384443	17
2	3995	782.425766237835	16
2	3999	782.563611683617	17
2	4001	783.224994013149	18
2	4002	783.354064537595	17
2	4005	784.484472048852	16
2	4009	784.641290382364	17
2	4010	785.435112645767	16
2	4013	786.57926796741	15
2	4017	787.258813235454	16
2	4018	787.590109429892	15
2	4021	788.5450025458	14
2	4025	789.005235460618	15
2	4027	789.207695765778	16
2	4028	789.460138210107	15
2	4032	789.604848765093	16
2	4033	790.445297478337	15
2	4036	791.434356064174	14
2	4040	792.045329930853	15
2	4041	792.332189834874	14
2	4044	793.228619079303	13
2	4048	793.396620142744	14
2	4050	793.588003157154	15
2	4051	794.378677781124	14
2	4055	795.174479541644	15
2	4057	795.319818113932	16
2	4058	795.445373236586	15
2	4062	795.608570137535	16
2	4063	796.417625843093	15
2	4067	797.169754031304	16
2	4068	797.491249532636	15
2	4071	798.389300734654	14
2	4075	798.912266891174	15
2	4077	799.054981836039	16
2	4078	799.385897983063	15
2	4081	800.294811787654	14
2	4085	800.348550960259	15
2	4086	801.123580886714	14
2	4089	802.319017009541	13
2	4092	803.317759222362	12
2	4096	803.658005333571	13
2	4098	803.976551820221	14
2	4099	804.169143951881	13
2	4103	804.936861069185	14
2	4105	805.3099191141	15
2	4106	805.362832908902	14
2	4110	805.402971506485	15
2	4111	806.236764650151	14
2	4115	806.491973326645	15
2	4117	806.850963494959	16
2	4118	807.372107233863	15
2	4122	808.369512896418	16
2	4123	808.534043150872	15
2	4127	809.003603953292	16
2	4128	809.34190623631	15
2	4132	810.291368540243	16
2	4133	810.501282208238	15
2	4137	811.353691535128	16
2	4139	811.368539415779	17
2	4140	811.542983975552	16
2	4144	811.929450398131	17
2	4146	812.34488476929	18
2	4147	812.599526205298	17
2	4150	813.432582983572	16
2	4156	814.306873998848	17
2	4157	814.317654599261	16
2	4161	814.732100738344	17
2	4164	815.465881746833	16
2	4168	816.069805198621	17
2	4169	816.44923865014	16
2	4172	817.329234243289	15
2	4175	818.150193988078	14
2	4178	819.24666513243	13
2	4181	820.073196045694	12
2	4185	820.747430264076	13
2	4186	821.138983853639	12
2	4189	821.976321661671	11
2	4193	822.015418002146	12
2	4196	822.863782637579	11
2	4199	823.759501134337	10
2	4202	824.592635386636	9
2	4206	825.232809102617	10
2	4207	825.692382923433	9
2	4210	826.667179172312	8
2	4214	826.907113096244	9
2	4216	827.029648041038	10
2	4217	827.547604557698	9
2	4221	828.675276397421	10
2	4222	828.700554742397	9
2	4226	829.70037148502	10
2	4227	829.899766140071	9
2	4231	830.383938089951	10
2	4233	830.86493802557	11
2	4234	830.986871470337	10
2	4238	831.05794445295	11
2	4240	831.999898735893	12
2	4241	832.042307572358	11
2	4245	832.499276070583	12
2	4246	832.954863376555	11
2	4249	834.149783849728	10
2	4252	835.12052183525	9
2	4256	835.621368158528	10
2	4257	836.298122724717	9
2	4260	837.37140043612	8
2	4264	837.818683502258	9
2	4266	837.846717054976	10
2	4267	838.329853020714	9
2	4271	838.954601244261	10
2	4273	839.148639177065	11
2	4274	839.452125653637	10
2	4278	839.994327803898	11
2	4280	840.123888989625	12
2	4282	840.290724524426	13
2	4283	840.326909063862	12
2	4287	840.916055896463	13
2	4289	841.296420210524	14
2	4290	841.305246965506	13
2	4294	841.621242030648	14
2	4296	841.807904922647	15
2	4297	842.499864922569	14
2	4301	843.039829343555	15
2	4303	843.364669547465	16
2	4304	843.376757785597	15
2	4308	844.211413473385	16
2	4309	844.279769964249	15
2	4313	844.793414417751	16
2	4314	845.271648866789	15
2	4318	845.75222504684	16
2	4319	846.237748884795	15
2	4323	846.308622125172	16
2	4325	846.395474925233	17
2	4326	847.081112411072	16
2	4330	847.332510767013	17
2	4331	848.172353024235	16
2	4334	848.993894074125	15
2	4338	849.059665461724	16
2	4340	849.600171137717	17
2	4341	849.839125402005	16
2	4344	850.732935804234	15
2	4348	851.047265958601	16
2	4350	851.404807968518	17
2	4351	851.589417109558	16
2	4356	852.483393857548	15
2	4360	852.612441504464	16
2	4362	853.053357309603	17
2	4364	853.201858408107	18
2	4365	853.672262466526	17
2	4369	853.678917043453	18
2	4370	854.833649992677	17
2	4374	855.386362601754	18
2	4375	856.009714806187	17
2	4379	856.878571831987	18
2	4380	857.126348484694	17
2	4383	858.113685352928	16
2	4386	859.215926818564	15
2	4391	860.241032680325	14
2	4395	860.694503858059	15
2	4397	860.942547431816	16
2	4398	861.17281671438	15
2	4401	862.215933137868	14
2	4404	863.286552911174	13
2	4407	864.128940101728	12
2	4411	864.220207632995	13
2	4412	865.109602089986	12
2	4416	865.170590491001	13
2	4418	865.52729052116	14
2	4420	866.076851537013	15
2	4421	866.205347674168	14
2	4425	866.927771334555	15
2	4427	867.060634692357	16
2	4428	867.380963467635	15
2	4432	867.830742245655	16
2	4433	868.215048202701	15
2	4437	868.322174812061	16
2	4438	869.034762142334	15
2	4442	869.410769185843	16
2	4443	870.016081911899	15
2	4447	871.066354925167	16
2	4448	871.20744531808	15
2	4451	872.09512491209	14
2	4454	872.927508408218	13
2	4457	873.874587828867	12
2	4461	873.88287025827	13
2	4463	873.989457112554	14
2	4465	874.532226883985	15
2	4466	874.916984835841	14
2	4470	875.22789465284	15
2	4472	875.889050999447	16
2	4473	876.066776182238	15
2	4476	876.973102260396	14
2	4480	877.645675575817	15
2	4481	877.920466315016	14
2	4485	878.582109478678	15
2	4487	878.688919090858	16
2	4488	878.997257575035	15
2	4492	879.71500891956	16
2	4494	880.001476274982	17
2	4495	880.176344595678	16
2	4499	880.256300645911	17
2	4500	881.327872397952	16
2	4504	881.859843875255	17
2	4505	882.155353381779	16
2	4509	882.473396448761	17
2	4510	883.336933626622	16
2	4514	883.451774139288	17
2	4515	884.222131778967	16
2	4519	884.497099230811	17
2	4520	885.207856739607	16
2	4524	886.044225038957	17
2	4525	886.257458271288	16
2	4528	887.153093071949	15
2	4532	887.711905491915	16
2	4534	887.954712309885	17
2	4535	888.187650130052	16
2	4540	889.353965732098	15
2	4545	890.425838626005	14
2	4548	891.332116164003	13
2	4551	892.325450686008	12
2	4555	893.332603504045	13
2	4556	893.35301027076	12
2	4560	893.521414422646	13
2	4562	894.089998128551	14
2	4563	894.207330110871	13
2	4567	894.621556950928	14
2	4568	895.064998464581	13
2	4572	895.107938944723	14
2	4573	895.964077047274	13
2	4576	896.897856951148	12
2	4580	897.358316614262	13
2	4581	897.91229941325	12
2	4584	898.713677568657	11
2	4588	898.869413933482	12
2	4589	899.574798677226	11
2	4592	900.753583531564	10
2	4595	901.619909586495	9
2	4599	902.597175235729	10
2	4600	902.703154044057	9
2	4604	903.250593537464	10
2	4605	903.64847944986	9
2	4608	904.468709521479	8
2	4614	905.056804489269	9
2	4615	905.555756625923	8
2	4618	906.670147256384	7
2	4622	907.494752800782	8
2	4623	907.567478182929	7
2	4626	908.636884648743	6
2	4629	909.599376608076	5
2	4633	909.737533960027	6
2	4635	909.766201713941	7
2	4637	910.52722427141	8
2	4638	910.778023918922	7
2	4642	910.867756777386	8
2	4643	911.908287715836	7
2	4646	912.987280567101	6
2	4649	914.014751947502	5
2	4653	914.024506649555	6
2	4655	914.921051464708	7
2	4656	915.001680270413	6
2	4660	915.45639620487	7
2	4661	916.171292620635	6
2	4665	916.407263520699	7
2	4666	917.254361109732	6
2	4670	917.710228954156	7
2	4672	918.008998680966	8
2	4673	918.174819087254	7
2	4677	918.207704795935	8
2	4679	918.79252234185	9
2	4681	919.288519086963	10
2	4682	919.363335830083	9
2	4686	919.713123613371	10
2	4687	920.222791894356	9
2	4691	920.233746533708	10
2	4693	920.483682443483	11
2	4695	921.034888466067	12
2	4696	921.281011560763	11
2	4700	922.038530351099	12
2	4701	922.106845634541	11
2	4705	923.063700702135	12
2	4707	923.074661442169	13
2	4708	923.199180621019	12
2	4711	924.222975984233	11
2	4715	924.300331097595	12
2	4717	925.170923396774	13
2	4718	925.368050647637	12
2	4722	926.234796718094	13
2	4723	926.340971283818	12
2	4727	926.386255449925	13
2	4729	926.432263824161	14
2	4730	927.446735373622	13
2	4734	928.411077063596	14
2	4735	928.607542794028	13
2	4741	929.202539910802	14
2	4742	929.637621576355	13
2	4746	930.304713319059	14
2	4747	930.518553814494	13
2	4751	930.847937562869	14
2	4752	931.48237264428	13
2	4756	931.792932597911	14
2	4757	932.562661284969	13
2	4761	933.502609017872	14
2	4762	933.568587694146	13
2	4766	933.785239227647	14
2	4768	933.889826401647	15
2	4770	933.99248091959	16
2	4771	934.540771612447	15
2	4774	935.410214296557	14
2	4778	935.671629274182	15
2	4779	936.455358962171	14
2	4782	937.516444989402	13
2	4785	938.40592594083	12
2	4789	938.658419691252	13
2	4790	939.471257303018	12
2	4794	939.754216959184	13
2	4795	940.341808611635	12
2	4799	941.153256348402	13
2	4800	941.365166933663	12
2	4803	942.369453714896	11
2	4807	942.404478524916	12
2	4808	943.4551238157	11
2	4812	943.733650559269	12
2	4816	944.309052133693	13
2	4817	944.614354804173	12
2	4823	945.043103589696	13
2	4824	945.699180717595	12
2	4828	945.830165362838	13
2	4830	946.118984860767	14
2	4832	946.446995805425	15
2	4834	946.585869557082	16
2	4837	946.71125689197	15
2	4841	947.388875113059	16
2	4842	947.609269540586	15
2	4846	947.82483412801	16
2	4847	948.703563392457	15
2	4851	949.279935193659	16
2	4852	949.585622155309	15
2	4856	950.171069711142	16
2	4858	950.223212561958	17
2	4859	950.735948145125	16
2	4863	951.099225748545	17
2	4865	951.71115162746	18
2	4866	951.864609437916	17
2	4870	952.272684596333	18
2	4871	952.686147632092	17
2	4874	953.764823425017	16
2	4878	954.356518454549	17
2	4880	954.637619470371	18
2	4881	954.640951156445	17
2	4885	955.049270455313	18
2	4886	955.635382052619	17
2	4890	956.238695198825	18
2	4892	956.266455367664	19
2	4894	956.321953252563	20
2	4895	956.475393526271	19
2	4899	956.544695788114	20
2	4900	957.397671258185	19
2	4903	958.32341522995	18
2	4907	958.449821165846	19
2	4908	959.247759600557	18
2	4911	960.085101990882	17
2	4917	961.156890121843	18
2	4918	961.249398385934	17
2	4921	962.388391528107	16
2	4925	962.565317578927	17
2	4926	963.262260390367	16
2	4930	963.446740391172	17
2	4932	963.49640469082	18
2	4933	964.274620790142	17
2	4937	964.519402446869	18
2	4939	964.530214382314	19
2	4941	964.600858490956	20
2	4943	964.637205390998	21
2	4945	964.950481219214	22
2	4946	965.241843610923	21
2	4949	966.268661952871	20
2	4953	966.966138984114	21
2	4955	967.04578929531	22
2	4957	967.154893304092	23
2	4958	967.2572998888	22
2	4961	968.119501871257	21
2	4965	968.125702026271	22
2	4966	968.961161169796	21
2	4969	970.105904563437	20
2	4973	970.984574575522	21
2	4974	971.283513689986	20
2	4977	972.092819191436	19
2	4980	973.056111803385	18
2	4984	973.802408402552	19
2	4985	973.881046583517	18
2	4989	974.289153676879	19
2	4991	974.539574912609	20
2	4992	974.890672849691	19
2	4996	975.299586111173	20
2	4998	975.638691510003	21
2	4999	975.963497513826	20
2	5003	976.843419266354	21
2	5004	976.894917379986	20
2	5008	976.908168667613	21
2	5009	977.929062012504	20
2	5013	978.3949717008	21
2	5015	978.508047913185	22
2	5016	978.855400659531	21
2	5020	979.258590006732	22
2	5021	980.04082259053	21
2	5025	980.416901407543	22
2	5026	981.108288138747	21
2	5029	982.165725123338	20
2	5035	982.445652588906	21
2	5036	983.049315923746	20
2	5040	983.399589794554	21
2	5041	983.959136497244	20
2	5045	984.827905426904	21
2	5046	984.872799207005	20
2	5050	985.003004925274	21
2	5052	985.519468367444	22
2	5053	985.717786538988	21
2	5056	986.520794015299	20
2	5060	986.872246672231	21
2	5062	987.106413256188	22
2	5064	987.306922112913	23
2	5065	987.443140045847	22
2	5068	988.280033519319	21
2	5072	989.009252814808	22
2	5073	989.384437704752	21
2	5080	990.401520331963	20
2	5084	990.938138625197	21
2	5085	991.527323714192	20
2	5088	992.673635175931	19
2	5092	993.154545902895	20
2	5094	993.179597687132	21
2	5096	993.319846754333	22
2	5098	993.521360268506	23
2	5099	993.694785692556	22
2	5103	993.800095974298	23
2	5104	994.887594626485	22
2	5108	995.173866376682	23
2	5109	996.034585991888	22
2	5113	996.759942263983	23
2	5114	996.954303928292	22
2	5118	997.543658248245	23
2	5119	997.813717454406	22
2	5123	998.365992447092	23
2	5124	998.827240837193	22
2	5128	998.831939849409	23
2	5129	999.78300421854	22
2	5133	1000.230616467981	23
2	5136	1000.764021145287	22
2	5139	1001.740706934887	21
2	5143	1002.365770420777	22
2	5144	1002.908885424412	21
2	5147	1003.901502677812	20
2	5151	1004.143805936052	21
2	5153	1004.542526413206	22
2	5155	1004.744283540857	23
2	5156	1004.780897427923	22
2	5160	1004.999418092373	23
2	5162	1005.637018570765	24
2	5163	1005.768305560029	23
2	5167	1006.021000052141	24
2	5169	1006.61559208446	25
2	5170	1006.900863953601	24
2	5174	1007.10495753691	25
2	5175	1007.78822736369	24
2	5179	1008.775869202596	25
2	5180	1008.8682266215	24
2	5184	1009.58360020516	25
2	5185	1010.030575852296	24
2	5191	1010.373474091631	25
2	5193	1010.614348991132	26
2	5194	1010.857257983288	25
2	5197	1011.769666815842	24
2	5201	1012.080561195376	25
2	5202	1012.694944961196	24
2	5206	1012.913321601498	25
2	5207	1013.742093290867	24
2	5211	1013.819392305065	25
2	5213	1014.042039718091	26
2	5214	1014.923212006608	25
2	5218	1015.592130394086	26
2	5219	1015.812254741894	25
2	5223	1015.960167670524	26
2	5224	1016.673458728393	25
2	5228	1017.539906015328	26
2	5229	1017.763367755351	25
2	5233	1017.968678302825	26
2	5234	1018.571922461142	25
2	5237	1019.463431949646	24
2	5241	1020.498539594746	25
2	5242	1020.611616174982	24
2	5245	1021.746705120442	23
2	5249	1021.752018363026	24
2	5252	1022.630077973859	23
2	5255	1023.731106668258	22
2	5258	1024.69883852919	21
2	5262	1025.55318970664	22
2	5263	1025.873934564566	21
2	5267	1026.641054775225	22
2	5268	1026.7057945246	21
2	5272	1026.720820933646	22
2	5273	1027.517704939389	21
2	5277	1028.246124482063	22
2	5278	1028.376963102551	21
2	5282	1029.049246905991	22
2	5284	1029.357238958194	23
2	5285	1029.54207904992	22
2	5289	1030.044298074061	23
2	5290	1030.388678294153	22
2	5294	1030.7946785004	23
2	5296	1030.877630877031	24
2	5297	1031.335480581329	23
2	5301	1031.706951249698	24
2	5303	1031.964417524319	25
2	5304	1032.345870945987	24
2	5308	1032.453124678716	25
2	5309	1033.326957882487	24
2	5313	1033.662112105836	25
2	5314	1034.402958735929	24
2	5317	1035.238377492701	23
2	5321	1035.709000779314	24
2	5322	1036.16054052926	23
2	5326	1036.867211810784	24
2	5328	1037.243029602512	25
2	5329	1037.280841748336	24
2	5333	1038.161764187973	25
2	5334	1038.230471642235	24
2	5338	1039.341046988402	25
2	5339	1039.398366935471	24
2	5343	1039.512872286673	25
2	5347	1039.936672022941	26
2	5348	1040.260238620652	25
2	5352	1040.991981092225	26
2	5354	1041.149640708849	27
2	5357	1041.375846507413	26
2	5361	1041.507268729808	27
2	5363	1042.208734696262	28
2	5364	1042.455633652595	27
2	5367	1043.6075724139	26
2	5371	1043.754049558256	27
2	5372	1044.562979978708	26
2	5376	1045.478021925395	27
2	5377	1045.739900406649	26
2	5380	1046.5432397782	25
2	5384	1046.689613628166	26
2	5388	1047.336405506269	27
2	5389	1047.502596496058	26
2	5392	1048.565949670983	25
2	5396	1049.083700083996	26
2	5397	1049.558709840582	25
2	5401	1049.669506168996	26
2	5403	1050.52595859742	27
2	5404	1050.726005379682	26
2	5408	1051.461679560011	27
2	5409	1051.922321741296	26
2	5412	1053.063321116487	25
2	5416	1053.330676206361	26
2	5418	1053.428992963226	27
2	5420	1053.622924913139	28
2	5421	1054.124317614561	27
2	5425	1054.166717464528	28
2	5426	1055.19973968781	27
2	5430	1055.300831549497	28
2	5431	1056.061779927289	27
2	5435	1056.75725890054	28
2	5436	1057.166523668183	27
2	5439	1057.983955979547	26
2	5442	1058.888864711592	25
2	5445	1059.936349294348	24
2	5449	1060.328730157602	25
2	5450	1060.903747522099	24
2	5453	1061.717146390783	23
2	5457	1061.970225925823	24
2	5459	1062.414768612565	25
2	5460	1062.770131010855	24
2	5464	1063.161854526936	25
2	5465	1063.904326379033	24
2	5469	1063.961743897195	25
2	5470	1064.80133549442	24
2	5473	1065.607730608074	23
2	5477	1065.994762504784	24
2	5478	1066.63380974607	23
2	5481	1067.755511784287	22
2	5485	1067.885075702899	23
2	5486	1068.768450496638	22
2	5489	1069.895817887982	21
2	5492	1071.07932318739	20
2	5496	1072.080050551964	21
2	5497	1072.217633022381	20
2	5501	1072.256738294363	21
2	5503	1072.504795412094	22
2	5505	1072.953021193524	23
2	5507	1073.004878608992	24
2	5508	1073.303151318816	23
2	5512	1073.406425103464	24
2	5514	1073.515649708381	25
2	5515	1074.485774752324	24
2	5519	1074.734663968323	25
2	5523	1075.516514473136	26
2	5524	1075.519335028542	25
2	5528	1076.12340785274	26
2	5529	1076.641191171216	25
2	5532	1077.777952394927	24
2	5535	1078.773040460622	23
2	5539	1079.641317774744	24
2	5540	1079.671026148753	23
2	5544	1080.386472285665	24
2	5545	1080.841936503829	23
2	5548	1081.853994347447	22
2	5552	1082.021649064125	23
2	5554	1082.636268223025	24
2	5555	1082.692079786317	23
2	5558	1083.710392792722	22
2	5562	1084.663681434993	23
2	5563	1084.775546847297	22
2	5566	1085.656128330821	21
2	5569	1086.781721156662	20
2	5573	1087.802742638464	21
2	5574	1087.91617894472	20
2	5578	1088.665443305722	21
2	5579	1088.758898811987	20
2	5583	1088.884669472817	21
2	5584	1089.836938549498	20
2	5587	1090.678205950944	19
2	5590	1091.823731875433	18
2	5594	1092.712086727126	19
2	5595	1092.728080048891	18
2	5599	1093.625336973372	19
2	5600	1093.631077035157	18
2	5604	1094.470793462385	19
2	5605	1094.709800429096	18
2	5608	1095.906730773685	17
2	5611	1096.958137217456	16
2	5614	1097.775660599781	15
2	5618	1098.228283233011	16
2	5619	1098.756895891869	15
2	5623	1099.264509888101	16
2	5625	1099.641294922341	17
2	5626	1099.783621612018	16
2	5629	1100.62890741696	15
2	5633	1101.009551162448	16
2	5634	1101.776025548031	15
2	5638	1102.191765796558	16
2	5639	1102.835879271676	15
2	5643	1102.845057681225	16
2	5644	1103.966905133718	15
2	5647	1104.84454954808	14
2	5652	1105.824769667549	13
2	5656	1106.526500661769	14
2	5657	1106.723363513978	13
2	5660	1107.601365569712	12
2	5664	1108.359479515932	13
2	5665	1108.682213098755	12
2	5669	1108.885846468119	13
2	5671	1108.905313680257	14
2	5673	1109.022894864581	15
2	5674	1109.683358158557	14
2	5677	1110.773335720798	13
2	5681	1111.056767730467	14
2	5683	1111.532222544965	15
2	5684	1111.817208094349	14
2	5689	1112.732284100925	13
2	5693	1113.211095076138	14
2	5694	1113.711080062961	13
2	5698	1114.199249772207	14
2	5700	1114.306285105666	15
2	5702	1114.773771676497	16
2	5703	1114.856221947832	15
2	5707	1115.137402788337	16
2	5708	1115.933302492475	15
2	5711	1116.957587963356	14
2	5715	1117.847205597898	15
2	5716	1117.978261307268	14
2	5720	1118.647345146247	15
2	5721	1118.780592579222	14
2	5724	1119.624847219246	13
2	5728	1120.62774217071	14
2	5729	1120.80255042586	13
2	5733	1120.92950323353	14
2	5735	1121.741347325323	15
2	5736	1121.838442793875	14
2	5739	1122.723107164926	13
2	5743	1122.798980358425	14
2	5745	1123.05779584088	15
2	5747	1123.393782000103	16
2	5749	1123.730839272907	17
2	5750	1123.91026781715	16
2	5754	1123.965050267022	17
2	5756	1124.079364594697	18
2	5758	1124.465996269542	19
2	5760	1124.472562108654	20
2	5762	1124.687223637023	21
2	5764	1124.730781129145	22
2	5765	1124.908484555329	21
2	5768	1126.009281550362	20
2	5772	1126.193747196028	21
2	5774	1126.37980117373	22
2	5775	1127.02922062214	21
2	5780	1127.906828662953	20
2	5783	1128.874186008065	19
2	5787	1129.217638186731	20
2	5788	1129.921962660658	19
2	5792	1130.026111401773	20
2	5794	1130.553412632789	21
2	5795	1130.893780941902	20
2	5799	1130.986182060705	21
2	5800	1131.905546544785	20
2	5804	1132.309184235943	21
2	5805	1133.041425062636	20
2	5808	1133.948165715871	19
2	5811	1134.818699704496	18
2	5814	1135.976247563133	17
2	5818	1136.063411562409	18
2	5822	1136.759561241313	19
2	5823	1136.887819140976	18
2	5827	1136.912634448096	19
2	5829	1137.574773739532	20
2	5830	1137.937457525557	19
2	5834	1138.143642689461	20
2	5835	1139.081256806957	19
2	5839	1139.214917876559	20
2	5841	1139.86427255389	21
2	5842	1139.9879821689	20
2	5846	1140.197289927297	21
2	5848	1140.570330719317	22
2	5849	1140.847979896063	21
2	5853	1141.636205161868	22
2	5854	1141.86379381997	21
2	5859	1142.898144512637	20
2	5863	1143.348997295104	21
2	5864	1143.746360968626	20
2	5867	1144.718437907207	19
2	5870	1145.565468909885	18
2	5874	1146.199281607649	19
2	5876	1146.259187547541	20
2	5877	1146.521977572344	19
2	5880	1147.590684296671	18
2	5884	1147.620691054633	19
2	5886	1147.895623166108	20
2	5887	1148.412184533491	19
2	5890	1149.22984086826	18
2	5894	1150.254749546534	19
2	5896	1150.322978092512	20
2	5897	1150.4297791524	19
2	5901	1150.829436330734	20
2	5902	1151.476001534904	19
2	5905	1152.577805557581	18
2	5909	1153.49751738999	19
2	5910	1153.772953018559	18
2	5914	1154.251555088498	19
2	5916	1154.481070069525	20
2	5917	1154.625266111096	19
2	5921	1154.945172814493	20
2	5922	1155.472369056394	19
2	5925	1156.537586669264	18
2	5928	1157.689747565904	17
2	5932	1157.751053492309	18
2	5934	1158.045620887332	19
2	5936	1158.123597640889	20
2	5938	1158.189540713403	21
2	5939	1158.85959696594	20
2	5943	1159.035310072463	21
2	5944	1159.961043331226	20
2	5948	1160.084643311233	21
2	5949	1160.946361925931	20
2	5953	1161.918100833171	21
2	5954	1161.970433835791	20
2	5957	1163.108321098903	19
2	5960	1164.240530816013	18
2	5964	1164.256653509371	19
2	5966	1164.622070241466	20
2	5969	1165.357071192855	19
2	5973	1165.603202086601	20
2	5974	1166.402433354793	19
2	5977	1167.342468653632	18
2	5981	1167.587438574634	19
2	5982	1168.368684785267	18
2	5986	1169.281700923031	19
2	5987	1169.312607659692	18
2	5990	1170.204044297257	17
2	5994	1170.207050109252	18
2	5995	1171.062312364032	17
2	5999	1171.93134348354	18
2	6000	1172.059641096008	17
2	6003	1173.242820604903	16
2	6007	1173.539788011429	17
2	6009	1173.866556669502	18
2	6010	1174.228558478051	17
2	6014	1174.790709878726	18
2	6016	1174.962386691996	19
2	6017	1175.210734115926	18
2	6021	1175.976629964641	19
2	6023	1176.006484782465	20
2	6024	1176.032439744951	19
2	6028	1176.289305097639	20
2	6030	1176.524435253553	21
2	6033	1177.147218321277	20
2	6037	1177.636343661792	21
2	6038	1178.086781210652	20
2	6042	1178.22090120595	21
2	6043	1179.096083959485	20
2	6046	1180.09981691047	19
2	6049	1181.039164219158	18
2	6053	1181.079401000756	19
2	6055	1181.923285004998	20
2	6056	1182.193098052511	19
2	6059	1183.057016767202	18
2	6063	1183.259137480929	19
2	6065	1183.331755478879	20
2	6067	1183.543828984923	21
2	6068	1183.930541180367	20
2	6071	1184.953693695845	19
2	6075	1185.228391587502	20
2	6076	1186.108195113683	19
2	6080	1186.315666991525	20
2	6082	1186.664851729959	21
2	6083	1187.082843979647	20
2	6087	1187.149956972469	21
2	6089	1187.87515548692	22
2	6090	1188.211271445652	21
2	6094	1188.639865570738	22
2	6097	1189.138941490011	21
2	6101	1189.601457178649	22
2	6102	1189.962787088578	21
2	6106	1190.907756643901	22
2	6107	1190.919392463391	21
2	6113	1191.25679197358	22
2	6115	1191.720708057064	23
2	6116	1191.998589564127	22
2	6120	1192.476057106439	23
2	6121	1192.854942963191	22
2	6125	1192.937166096402	23
2	6127	1193.324832565094	24
2	6128	1193.774165873148	23
2	6131	1194.717964026344	22
2	6134	1195.543245182105	21
2	6138	1196.35287352747	22
2	6139	1196.534071046312	21
2	6143	1196.549571476383	22
2	6145	1196.718870817813	23
2	6147	1197.284850719819	24
2	6149	1197.313534606923	25
2	6152	1197.672212760721	24
2	6155	1198.535304832098	23
2	6159	1199.269214310932	24
2	6161	1199.331957601349	25
2	6162	1199.567007558898	24
2	6165	1200.729349544004	23
2	6169	1201.219410639427	24
2	6170	1201.679006486677	23
2	6173	1202.570847158984	22
2	6177	1203.312504595835	23
2	6179	1203.426740113024	24
2	6180	1203.430606248428	23
2	6184	1203.645546887668	24
2	6185	1204.359306254529	23
2	6189	1204.663024981516	24
2	6191	1205.132186335829	25
2	6192	1205.470202833985	24
2	6196	1205.639872522552	25
2	6197	1206.309214800236	24
2	6200	1207.130991674506	23
2	6204	1207.186479369639	24
2	6206	1207.846224847518	25
2	6208	1208.164898965639	26
2	6209	1208.200924355735	25
2	6212	1209.168346210302	24
2	6216	1209.249303040914	25
2	6217	1210.216945380357	24
2	6221	1210.742574482183	25
2	6222	1211.030484679353	24
2	6227	1211.834254704241	23
2	6231	1211.890357390397	24
2	6233	1212.105816184348	25
2	6235	1212.197504743276	26
2	6237	1212.816161907502	27
2	6238	1212.866264069651	26
2	6241	1213.908228296519	25
2	6245	1214.473173416342	26
2	6246	1215.088434218441	25
2	6250	1215.656382423475	26
2	6252	1215.745949076502	27
2	6253	1215.993589111895	26
2	6256	1216.90395274089	25
2	6260	1217.58862124949	26
2	6261	1218.058503086598	25
2	6264	1218.937373042678	24
2	6268	1218.976829724137	25
2	6270	1219.589543245923	26
2	6271	1219.91593624811	25
2	6275	1220.074756949548	26
2	6277	1220.312474800797	27
2	6279	1220.403090397434	28
2	6281	1220.529839658609	29
2	6282	1220.869033953094	28
2	6285	1222.022990684782	27
2	6289	1222.373940475014	28
2	6291	1222.400563387507	29
2	6293	1222.961077641585	30
2	6294	1223.132183199108	29
2	6298	1223.559637676017	30
2	6299	1223.982997696858	29
2	6302	1224.838538932812	28
2	6305	1225.763895749499	27
2	6309	1225.839788129747	28
2	6311	1226.606557089634	29
2	6312	1226.711699142692	28
2	6316	1227.43845257879	29
2	6318	1227.627317551425	30
2	6319	1227.710457518244	29
2	6322	1228.590236539593	28
2	6325	1229.613490401687	27
2	6329	1230.546453422044	28
2	6330	1230.73036918092	27
2	6333	1231.808706839303	26
2	6337	1232.259578400935	27
2	6338	1232.804454582384	26
2	6341	1233.928477750825	25
2	6344	1234.799125046017	24
2	6348	1235.121438352758	25
2	6349	1235.991797979189	24
2	6353	1236.546427174333	25
2	6354	1236.958573969653	24
2	6358	1237.077217122399	25
2	6360	1237.264481018588	26
2	6361	1237.979571855268	25
2	6365	1238.22344385601	26
2	6367	1238.342750683782	27
2	6369	1238.602918414547	28
2	6371	1238.661423121345	29
2	6372	1238.954675607211	28
2	6376	1239.198827075292	29
2	6378	1239.282090062351	30
2	6379	1240.005107373479	29
2	6383	1240.402528558367	30
2	6384	1240.845163591686	29
2	6387	1241.717643775153	28
2	6391	1241.849744062606	29
2	6392	1242.57384541539	28
2	6396	1243.206012222822	29
2	6398	1243.446260084308	30
2	6399	1243.580963541022	29
2	6402	1244.465353513057	28
2	6406	1244.568612368363	29
2	6408	1244.633033695258	30
2	6409	1245.497807515333	29
2	6413	1246.366968682463	30
2	6414	1246.417222107122	29
2	6417	1247.351633268608	28
2	6420	1248.280378333865	27
2	6424	1249.268363207928	28
2	6425	1249.280142955588	27
2	6429	1249.579313727519	28
2	6430	1250.310493047083	27
2	6434	1250.640580987236	28
2	6435	1251.251134707792	27
2	6439	1251.859445137429	28
2	6440	1252.332467814734	27
2	6443	1253.396485445102	26
2	6447	1253.954191094878	27
2	6448	1254.488943346043	26
2	6451	1255.366604988289	25
2	6455	1256.223696368745	26
2	6456	1256.253329111927	25
2	6459	1257.115349489183	24
2	6463	1257.898969089366	25
2	6464	1258.271293036652	24
2	6468	1258.311923324462	25
2	6469	1259.370680370194	24
2	6473	1259.902110347143	25
2	6474	1260.214479911246	24
2	6478	1260.42588162077	25
2	6479	1261.331849023712	24
2	6484	1262.190696775553	23
2	6487	1263.298909776577	22
2	6492	1264.237066067581	21
2	6496	1264.763509258629	22
2	6497	1265.274758901645	21
2	6500	1266.096279663791	20
2	6504	1266.333389989805	21
2	6506	1266.97603195683	22
2	6507	1267.186333142513	21
2	6511	1267.271362390183	22
2	6513	1268.136003405419	23
2	6515	1268.234743518041	24
2	6516	1268.284899882985	23
2	6520	1268.387773782153	24
2	6522	1268.951155613839	25
2	6523	1269.395631318273	24
2	6527	1269.623167430918	25
2	6528	1270.444041613223	24
2	6531	1271.594889590157	23
2	6535	1272.10067698747	24
2	6538	1272.480021441368	23
2	6542	1272.753997718973	24
2	6543	1273.386481392024	23
2	6546	1274.529484139489	22
2	6550	1275.382063228102	23
2	6551	1275.623428180547	22
2	6557	1275.815300336034	23
2	6558	1276.437484444504	22
2	6562	1276.956428573112	23
2	6564	1277.074991031893	24
2	6565	1277.284360673757	23
2	6569	1277.920911576408	24
2	6570	1278.369729008073	23
2	6574	1279.261957313049	24
2	6575	1279.406114010805	23
2	6579	1279.628712661415	24
2	6580	1280.436129666878	23
2	6583	1281.2466311874	22
2	6586	1282.339414910892	21
2	6589	1283.195431832517	20
2	6592	1284.230750229503	19
2	6596	1284.647932820275	20
2	6598	1285.149173982169	21
2	6599	1285.429554318371	20
2	6603	1285.500848253411	21
2	6605	1286.412049767974	22
2	6606	1286.49442265538	21
2	6609	1287.483062376561	20
2	6613	1287.941818351408	21
2	6615	1288.035415362208	22
2	6616	1288.530737683284	21
2	6620	1289.503422714068	22
2	6621	1289.70038086466	21
2	6625	1289.824855348678	22
2	6627	1290.259960258855	23
2	6628	1290.520751971113	22
2	6632	1290.681841904382	23
2	6633	1291.41316258145	22
2	6636	1292.267983168005	21
2	6640	1292.561302744772	22
2	6641	1293.40067400198	21
2	6645	1293.49764677311	22
2	6647	1293.700887345746	23
2	6649	1293.807167770994	24
2	6651	1294.248501518036	25
2	6652	1294.307010703455	24
2	6657	1295.179236249081	23
2	6661	1295.545571298985	24
2	6663	1295.906404265917	25
2	6664	1296.173716021716	24
2	6668	1296.426661082177	25
2	6669	1297.133994166288	24
2	6673	1297.185541666587	25
2	6676	1298.069906069539	24
2	6679	1298.917417083416	23
2	6682	1300.090945888046	22
2	6686	1300.571558049052	23
2	6687	1300.983827157426	22
2	6690	1301.818277924708	21
2	6693	1302.931402464132	20
2	6697	1303.881928639351	21
2	6698	1304.126267051338	20
2	6701	1305.259398625525	19
2	6704	1306.271706272489	18
2	6707	1307.418536012168	17
2	6711	1307.736169039039	18
2	6712	1308.284294689181	17
2	6716	1309.148384625848	18
2	6717	1309.348607442355	17
2	6721	1309.797654924242	18
2	6722	1310.187922804443	17
2	6726	1310.661951807368	18
2	6727	1311.012999135455	17
2	6731	1311.610086128245	18
2	6732	1312.026680745384	17
2	6736	1312.741450722027	18
2	6738	1312.983510333409	19
2	6739	1313.134687682068	18
2	6743	1313.56500850166	19
2	6745	1314.085692915205	20
2	6746	1314.088203237498	19
2	6749	1315.049340221764	18
2	6752	1316.093115991646	17
2	6756	1316.699745969199	18
2	6757	1316.922131906835	17
2	6761	1317.358616972607	18
2	6762	1318.049628269871	17
2	6766	1318.562886884095	18
2	6768	1318.876173828904	19
2	6769	1319.166939429113	18
2	6773	1319.611640535557	19
2	6774	1320.164299880353	18
2	6778	1320.899111783227	19
2	6779	1321.187340906182	18
2	6783	1321.739484837899	19
2	6784	1322.300902390865	18
2	6788	1322.905987251219	19
2	6789	1323.199652953551	18
2	6793	1323.441118498531	19
2	6795	1323.948073279637	20
2	6796	1324.084345267632	19
2	6800	1324.186215631123	20
2	6802	1324.341136281614	21
2	6804	1325.024367393521	22
2	6805	1325.187327763357	21
2	6809	1325.473120668564	22
2	6811	1326.20478661573	23
2	6813	1326.260347397241	24
2	6814	1326.267312249926	23
2	6818	1327.258482242802	24
2	6819	1327.264781775245	23
2	6823	1327.930889780033	24
2	6824	1328.243181514753	23
2	6827	1329.225796963194	22
2	6830	1330.216137651646	21
2	6834	1331.058637192607	22
2	6835	1331.21775945864	21
2	6838	1332.241790343182	20
2	6843	1333.325683544775	19
2	6847	1333.536455396583	20
2	6849	1333.638079265219	21
2	6851	1333.753966691071	22
2	6852	1334.302158062266	21
2	6856	1334.4755969674	22
2	6857	1335.126396494465	21
2	6861	1335.479542493232	22
2	6863	1336.082254430684	23
2	6864	1336.141653946428	22
2	6868	1337.041030099512	23
2	6869	1337.063826693794	22
2	6873	1337.078042896841	23
2	6874	1338.236665587047	22
2	6878	1338.496569495672	23
2	6880	1338.775140231496	24
2	6882	1338.840498069661	25
2	6884	1338.872277267513	26
2	6885	1339.119060343237	25
2	6889	1339.652630110712	26
2	6890	1340.025425743417	25
2	6894	1340.696112781725	26
2	6895	1340.949503283401	25
2	6899	1341.113118202579	26
2	6900	1342.092748320115	25
2	6903	1343.00719703493	24
2	6906	1344.027541902208	23
2	6909	1344.829977068224	22
2	6913	1345.078791755429	23
2	6914	1345.926678782248	22
2	6917	1346.950042698545	21
2	6920	1348.003676619673	20
2	6924	1348.581789643836	21
2	6925	1348.804527904665	20
2	6930	1349.969146136673	19
2	6934	1350.187633598126	20
2	6935	1351.15245897734	19
2	6939	1351.183194602982	20
2	6941	1351.280828332525	21
2	6943	1351.97950787911	22
2	6944	1352.045322994529	21
2	6947	1352.849240284054	20
2	6951	1353.806608923052	21
2	6952	1353.808428219626	20
2	6955	1354.798165362714	19
2	6959	1355.296455261372	20
2	6960	1355.631474107424	19
2	6964	1355.777615758384	20
2	6966	1355.852644654252	21
2	6967	1356.631280072419	20
2	6970	1357.591416938802	19
2	6973	1358.579297808477	18
2	6977	1358.637074151226	19
2	6978	1359.734374152975	18
2	6981	1360.68868951864	17
2	6985	1360.951575421365	18
2	6987	1361.057546015303	19
2	6988	1361.849291993411	18
2	6992	1361.934438717377	19
2	6993	1363.016394346313	18
2	6996	1364.160446658557	17
2	7000	1365.116532014568	18
2	7001	1365.237404388947	17
2	7005	1366.034018989618	18
2	7006	1366.147041602818	17
2	7010	1366.796319138545	18
2	7011	1367.183471670201	17
2	7014	1368.157435266407	16
2	7018	1368.269181344803	17
2	7019	1369.007849690238	16
2	7022	1369.914222713014	15
2	7026	1370.272599116238	16
2	7027	1370.901611156402	15
2	7030	1371.97456125609	14
2	7034	1372.189316010848	15
2	7035	1373.138244930761	14
2	7039	1373.647176973761	15
2	7040	1374.127990842065	14
2	7044	1374.147292714862	15
2	7046	1374.401254104435	16
2	7048	1374.70028681374	17
2	7049	1375.226208380623	16
2	7053	1375.724384639423	17
2	7055	1375.881608326367	18
2	7056	1376.401845544124	17
2	7060	1377.010380819336	18
2	7062	1377.113491922987	19
2	7064	1377.363836229665	20
2	7065	1377.522593822995	19
2	7069	1377.917116406901	20
2	7071	1378.428320859508	21
2	7072	1378.438124093799	20
2	7076	1379.249398423181	21
2	7077	1379.59282246699	20
2	7081	1379.613989012039	21
2	7083	1379.724093049054	22
2	7085	1379.937951238519	23
2	7086	1380.680384309696	22
2	7090	1381.335308449136	23
2	7091	1381.867521462323	22
2	7095	1382.248628496284	23
2	7096	1382.682939444961	22
2	7100	1383.247476177854	23
2	7101	1383.769846504288	22
2	7105	1384.569511693181	23
2	7106	1384.593457499253	22
2	7110	1384.735609550507	23
2	7112	1384.984981961716	24
2	7113	1385.726731537575	23
2	7117	1386.049728659978	24
2	7118	1386.692983523863	23
2	7122	1387.16561933465	24
2	7123	1387.587485687541	23
2	7127	1388.323309161619	24
2	7128	1388.735489089707	23
2	7132	1389.256998377234	24
2	7133	1389.605703700533	23
2	7137	1389.871246590357	24
2	7140	1390.601704523073	23
2	7144	1390.899457741011	24
2	7146	1391.382061089003	25
2	7147	1391.732198392054	24
2	7151	1392.139962173919	25
2	7152	1392.661862949016	24
2	7155	1393.686320661394	23
2	7158	1394.649889291277	22
2	7161	1395.472936540389	21
2	7165	1395.574660708972	22
2	7167	1396.18928341591	23
2	7169	1396.394441483607	24
2	7170	1396.510555395031	23
2	7174	1397.293795367407	24
2	7175	1397.408794453008	23
2	7179	1397.653669097152	24
2	7180	1398.521916935792	23
2	7184	1398.842477112472	24
2	7186	1399.222388465383	25
2	7187	1399.509544726567	24
2	7191	1399.878828052931	25
2	7193	1400.051348291295	26
2	7194	1400.409641596315	25
2	7197	1401.482967467526	24
2	7200	1402.510697405612	23
2	7203	1403.627965190554	22
2	7207	1404.224914862933	23
2	7209	1404.621102499012	24
2	7210	1404.806483247889	23
2	7213	1405.699072002167	22
2	7216	1406.598116325693	21
2	7220	1406.912268804811	22
2	7222	1406.920132159117	23
2	7224	1407.04921380606	24
2	7225	1407.550396952791	23
2	7228	1408.608762768669	22
2	7232	1408.798063717928	23
2	7234	1409.370587105195	24
2	7235	1409.780231705973	23
2	7240	1410.617732914737	22
2	7243	1411.714400857049	21
2	7247	1412.215563689642	22
2	7248	1412.789358024406	21
2	7251	1413.691749886065	20
2	7254	1414.616939494494	19
2	7260	1415.299637550588	20
2	7261	1415.589438524484	19
2	7265	1415.86674569092	20
2	7266	1416.396670729122	19
2	7269	1417.49811792077	18
2	7273	1417.711542861803	19
2	7274	1418.682448647557	18
2	7277	1419.707177195897	17
2	7281	1419.830551368249	18
2	7283	1420.052430544513	19
2	7284	1420.663745517296	18
2	7288	1420.690084046118	19
2	7290	1420.708975462269	20
2	7292	1420.788589152352	21
2	7294	1421.404874843404	22
2	7295	1421.856737821003	21
2	7299	1422.481430792624	22
2	7301	1422.541954749595	23
2	7302	1422.817236565718	22
2	7305	1423.858661752207	21
2	7308	1425.034209957266	20
2	7312	1425.632374590677	21
2	7313	1425.97380591418	20
2	7317	1426.557996642668	21
2	7318	1427.139144814679	20
2	7322	1427.325545447248	21
2	7323	1427.96257290264	20
2	7326	1428.909155662557	19
2	7330	1429.589404163153	20
2	7331	1430.082094049187	19
2	7334	1430.961515636569	18
2	7338	1431.172569247732	19
2	7340	1431.637337070903	20
2	7341	1432.150560802886	19
2	7345	1433.077623098669	20
2	7346	1433.112078447653	19
2	7351	1433.961992294448	18
2	7355	1434.352475246031	19
2	7356	1434.868337322319	18
2	7359	1435.796270600161	17
2	7362	1436.785648526917	16
2	7366	1437.395970942365	17
2	7367	1437.945791208385	16
2	7371	1438.321095124981	17
2	7373	1438.500465253155	18
2	7374	1439.069266571025	17
2	7377	1440.224548314805	16
2	7380	1441.195817995737	15
2	7384	1441.87005011046	16
2	7385	1442.21702825922	15
2	7388	1443.269782523824	14
2	7392	1443.713866264927	15
2	7394	1444.430056755925	16
2	7395	1444.468847998897	15
2	7399	1445.145227317681	16
2	7401	1445.157838044008	17
2	7402	1445.635699730473	16
2	7406	1445.881209085039	17
2	7409	1446.700059477719	16
2	7413	1447.610606078619	17
2	7414	1447.713060928243	16
2	7418	1447.932419688985	17
2	7419	1448.52032756425	16
2	7423	1448.93652732901	17
2	7425	1449.394291959401	18
2	7426	1449.705177314501	17
2	7430	1450.325940849251	18
2	7431	1450.533906778708	17
2	7435	1450.802096238705	18
2	7437	1450.947170498856	19
2	7439	1451.316468661481	20
2	7441	1451.478676588726	21
2	7442	1451.711754328959	20
2	7446	1451.879375285939	21
2	7447	1452.756826468107	20
2	7450	1453.698700295963	19
2	7454	1453.777655488962	20
2	7456	1454.128218640728	21
2	7457	1454.572816252351	20
2	7460	1455.440445991434	19
2	7463	1456.364767899193	18
2	7466	1457.442919914439	17
2	7470	1457.913345240267	18
2	7472	1458.266025376999	19
2	7474	1458.334294960525	20
2	7475	1458.414167657137	19
2	7479	1459.142974385668	20
2	7481	1459.471559784377	21
2	7482	1459.491154424582	20
2	7486	1460.025702732822	21
2	7487	1460.563726128094	20
2	7491	1460.954436312472	21
2	7492	1461.561523079049	20
2	7496	1462.236628741454	21
2	7498	1462.242024877938	22
2	7499	1462.423879256208	21
2	7503	1463.274319877489	22
2	7504	1463.590632037182	21
2	7508	1463.849287697931	22
2	7509	1464.472731159457	21
2	7514	1465.424198133887	20
2	7517	1466.315475159061	19
2	7520	1467.346613541261	18
2	7524	1468.049309204542	19
2	7525	1468.224150546004	18
2	7529	1468.820945900324	19
2	7531	1469.095902838984	20
2	7532	1469.307173733895	19
2	7535	1470.162546150868	18
2	7539	1470.326467144504	19
2	7541	1470.432448709958	20
2	7543	1470.745786626936	21
2	7545	1470.94919382301	22
2	7546	1471.043025741463	21
2	7550	1471.867147668254	22
2	7552	1472.148526014184	23
2	7553	1472.242721896728	22
2	7557	1472.775397888837	23
2	7558	1473.376760845275	22
2	7562	1473.451144877778	23
2	7564	1473.76374311765	24
2	7565	1474.203079694339	23
2	7569	1474.44459063277	24
2	7571	1474.583028887167	25
2	7573	1474.745011886261	26
2	7575	1475.083527215128	27
2	7576	1475.140490075403	26
2	7580	1475.367005577603	27
2	7581	1476.228387307298	26
2	7584	1477.236314321977	25
2	7587	1478.243919765313	24
2	7590	1479.108837197364	23
2	7593	1480.028565573056	22
2	7596	1480.829326510538	21
2	7600	1481.571840166622	22
2	7601	1481.98360052101	21
2	7605	1482.155761262678	22
2	7607	1482.270788461657	23
2	7609	1482.372726501645	24
2	7610	1482.944278246925	23
2	7616	1483.90427210679	24
2	7617	1484.080455420089	23
2	7621	1484.865175708941	24
2	7623	1484.984919665098	25
2	7624	1485.097350264263	24
2	7628	1485.692109589028	25
2	7630	1485.707150672753	26
2	7631	1485.991193594427	25
2	7635	1486.84264923174	26
2	7636	1487.182061275856	25
2	7640	1488.02418983879	26
2	7641	1488.058011607469	25
2	7644	1489.049724422784	24
2	7648	1489.082995559916	25
2	7650	1489.18866287685	26
2	7652	1489.360869581355	27
2	7653	1489.858220020605	26
2	7656	1491.011692121641	25
2	7660	1491.760219021658	26
2	7661	1491.813514501524	25
2	7665	1491.914160223656	26
2	7666	1492.740264921185	25
[...]
5	132044	25404.213620127729	6240.7035759632
5	132067	25409.173831683295	4339.8500874033
5	132087	25415.217602852724	3840.8408087628
5	132110	25419.72396553605	2278.1173025901
5	132160	25429.997931706431	1743.8931470606
5	132247	25445.529739723254	608.47924039742
5	132424	25480.239596694051	5825.4200277785
5	132467	25487.243464841689	5348.3278408233
5	132533	25499.047404961376	1759.5567831094
5	132607	25513.52164766583	1197.2368992696
5	132624	25518.502622999524	2839.1834461645
5	132644	25520.328020917339	8076.6614633595
5	132701	25531.257310361224	2306.1582875773
5	132711	25533.366918388284	616.27274505148
5	132733	25537.938388980269	3882.7464451214
5	132764	25544.934119997729	4887.5075578278
5	132802	25553.180372250822	1766.4570583685
5	132812	25555.371494173255	6784.7834957377
5	132815	25556.21309972461	7228.6365100607
5	132869	25566.075720850562	2300.0501073567
5	132906	25572.610549449452	1194.0503917789
5	132940	25580.318200516604	10887.060622038
5	132957	25583.204698113349	4385.1445637195
5	132965	25585.169175777674	4881.5816168971
5	133020	25596.069489701369	3372.5132901282
5	133069	25605.123008349722	7229.6119741624
5	133174	25625.720075519753	6791.021092809
5	133186	25627.742269825653	1752.6809501939
5	133194	25629.569484839213	4901.5413144839
5	133219	25635.06075282199	609.94564956202
5	133260	25644.439712036585	1201.0065097146
5	133272	25648.260790278574	4395.6019535238
5	133280	25650.145226915551	1203.5045159467
5	133367	25666.344657153448	5406.6321219437
5	133395	25670.241029374207	2305.978277706
5	133410	25673.37459284542	605.82765148766
5	133443	25680.613911269697	607.0492899324
5	133471	25684.573739411121	1207.5553275902
5	133479	25686.481519731039	4407.313245539
5	133482	25687.600599921306	5881.0757401644
5	133510	25693.745621653365	3389.1734217514
5	133594	25714.219005247298	14460.07913431
5	133615	25717.089835447259	6826.5792885852
5	133671	25727.62626686599	10131.080476158
5	133683	25729.819597662984	5430.5668164127
5	133691	25731.946652447058	7280.7333813891
5	133765	25746.095688844098	1219.3256424716
5	133775	25748.109130596275	613.39531564318
5	133906	25773.772158558199	4444.395373834
5	133918	25775.789274340587	5916.72188281
5	133940	25779.834426481648	1221.5108071576
5	133984	25788.254348103048	4945.6636074624
5	134091	25809.878438593724	4449.2829700761
5	134160	25823.733490729423	3418.0633071672
5	134168	25825.663128811864	5923.4518899728
5	134202	25833.430522602981	1786.8095935037
5	134390	25869.999718218297	7298.8220421644
5	134393	25871.059508000408	3420.6004911437
5	134453	25881.135116574634	2327.2210974445
5	134469	25883.376904614735	619.97011945011
5	134507	25890.816212785897	1223.2655617779
5	134529	25895.056284991187	616.06388232172
5	134562	25902.73315500347	1226.695129506
5	134603	25909.580522719585	9392.541438895
5	134611	25911.584147331305	5444.8909153937
5	134774	25943.192436091698	18172.15563498
5	134808	25949.172796255633	8989.0016521388
5	134879	25960.813650225852	6852.9310720244
5	134940	25974.664160179632	4939.187416611
5	134971	25980.092102366412	3425.4946932366
5	134996	25985.079845136316	607.9457275267
5	135004	25986.972401601733	3425.8026642107
5	135014	25988.637724537873	6387.4526818378
5	135097	26003.521045642446	2876.7198455068
5	135108	26006.774208081333	1216.6564665602
5	135113	26007.885538674617	11000.674491498
5	135119	26009.92005737974	1786.6757067022
5	135215	26027.519909248415	2882.1302892102
5	135278	26040.395578221239	599.79566556292
5	135323	26049.311170507975	597.5400877509
5	135367	26057.050403513953	4461.4531116297
5	135408	26065.865605961724	2905.4502610469
5	135530	26087.970168724941	7802.8147685464
5	135580	26097.658996221428	2367.2233213451
5	135583	26098.511519877431	604.64846511676
5	135667	26114.760111235181	3976.9976048299
5	135675	26116.730762574455	3977.837706688
5	135879	26155.223178925184	1222.0516244368
5	136086	26194.06903986475	9522.2876270949
5	136091	26195.218424651032	7837.4755492337
5	136109	26199.201962811132	4990.2259153612
5	136196	26218.058804060804	1800.821419541
5	136350	26244.70781886839	10329.119235738
5	136363	26247.801118102024	3976.3931197511
5	136373	26250.069154443784	2908.4937326408
5	136440	26262.392049760283	12274.29415988
5	136450	26264.305945630096	1798.5323388356
5	136457	26265.403063535787	5001.9544013877
5	136618	26300.392408324967	6490.4417914455
5	136658	26308.146381624139	6967.7858737097
5	136722	26321.877602492277	1206.5663485899
5	136804	26335.664478764128	591.34585718393
5	137009	26371.939562331793	2382.94809355
5	137078	26385.153880111688	8321.4370265789
5	137172	26403.389653551392	12706.607325127
5	137293	26424.45950146811	5544.7022097278
5	137305	26426.808720156829	9983.7290381321
5	137344	26433.90420301156	7440.1713839403
5	137359	26437.119571689702	586.25901500939
5	137396	26446.633817584159	1221.408551216
5	137461	26458.010020332967	5547.9546823379
5	137568	26479.183217390905	8327.9729977179
5	137600	26483.118850397224	11949.670500919
5	137645	26490.493554219043	5045.0889254198
5	137670	26495.534081607869	592.61933076131
5	137717	26506.172638886606	9992.2543543646
5	137813	26525.746220664957	589.97920752295
5	137849	26531.874434266236	2388.5191152398
5	137908	26541.07234227983	2384.5046362935
5	137918	26542.944092746448	594.05432179193
5	137949	26547.766105634157	3476.483797502
5	137970	26552.424188624504	3474.529700847
5	137979	26553.367879148847	1212.5935807887
5	137996	26556.190486681643	6993.1084296843
5	138004	26558.189902725532	1212.7624871235
5	138041	26566.757769949451	6031.1037153371
5	138127	26582.208034552258	10008.744247474
5	138151	26586.048611160364	3468.0809671823
5	138156	26586.992706156239	11981.234633645
5	138229	26603.908347056616	6032.1872464385
5	138323	26618.244496733223	8354.350604602
5	138401	26634.090177028156	1192.6337471639
5	138438	26642.910310350913	1188.6831832419
5	138566	26667.632090622366	4044.8646302512
5	138618	26677.464995035149	591.28131792674
5	138634	26681.375079719063	8400.7490170504
5	138824	26715.270890821414	2400.4123857145
5	138891	26726.135686201312	7051.6599557736
5	138906	26729.236070015737	590.74192145816
5	138928	26733.389789350879	1819.2682992562
5	138970	26741.294831977307	3513.19573536
5	138993	26746.122149982011	5086.4935984704
5	139073	26763.59583572027	10117.702845632
5	139179	26785.401224235714	3494.8882399931
5	139290	26803.992888776202	593.1765022516
5	139350	26814.267190771912	12082.390538727
5	139373	26819.268771271117	3510.1843400907
5	139416	26827.665497011866	4054.8439899826
5	139431	26830.563697370409	8870.7185659555
5	139472	26839.3177426773	4052.1658245758
5	139508	26845.310237733821	7064.5527001744
5	139562	26857.303745772864	5100.9178139293
5	139590	26863.133067143977	2950.2762588366
5	139668	26879.473121220889	1197.0417407249
5	139690	26883.784112021691	1194.8704882663
5	139749	26895.157289565066	1186.455001625
5	139791	26903.375498843371	3512.4537753636
5	139824	26910.571840756286	2962.7123341581
5	139924	26927.582363374804	5626.2036206504
5	139980	26939.077561098703	4057.1052740789
5	140036	26950.435043592467	3543.7014964707
5	140042	26952.095599565371	592.27616454327
5	140098	26962.987611743617	6647.3249894246
5	140123	26967.976790820525	9353.2366976286
5	140195	26981.970021722836	9361.6968039398
5	140231	26990.39921728093	2423.020332802
5	140236	26991.548608227724	5650.8688305945
5	140364	27010.836623284499	7599.2691277747
5	140369	27011.789009870029	8939.6545492725
5	140372	27012.684870390407	5148.9943304062
5	140409	27020.274242975935	6160.2745862927
5	140427	27024.141352779139	8043.7852742063
5	140443	27027.998637397681	2997.6177891207
5	140471	27034.004944698792	8509.0789940113
5	140484	27035.018849633168	5140.2401557252
5	140639	27065.287100748998	1832.772488671
5	140684	27072.54067161372	8525.8514103687
5	140735	27083.59810041208	8945.2185717355
5	140751	27087.261695510989	5157.0714678327
5	140777	27095.159217531607	1838.6106957621
5	140816	27101.928168307247	610.4623946603
5	140918	27123.203262112386	598.61254927953
5	140950	27129.544631694818	2439.4190525105
5	140977	27134.637632116956	13730.349587899
5	141135	27166.105135515241	6658.3593345119
5	141230	27181.340275016708	9802.5705298402
5	141273	27188.184281746021	2429.387400135
5	141287	27190.148052087707	612.38200714232
5	141367	27206.52604807606	7115.4760159732
5	141384	27209.295942973159	4083.1463857049
5	141396	27211.304443121608	1811.2635969585
5	141426	27215.510201593861	2425.8815858417
5	141531	27232.597649585176	616.10946019548
5	141599	27244.38713992983	1807.1381465431
5	141609	27246.108834800868	4094.0512072082
5	141649	27256.602463012745	1802.5076095098
5	141847	27293.504763397199	4122.9743832709
5	141880	27300.51222892217	1815.0125184482
5	141902	27304.624342530589	617.13597909276
5	141915	27307.47973097134	5189.8267121775
5	141920	27308.511546420954	6195.9744364603
5	141946	27314.653829507713	1211.6290417137
5	142045	27331.494772436188	10292.366497157
5	142051	27333.166271255256	1820.6458252552
5	142168	27357.084301192867	3026.572735815
5	142184	27359.077669722302	1825.8657999584
5	142257	27373.455728680076	3022.6128299826
5	142275	27375.485349873541	10310.775131815
5	142309	27381.477838957118	607.43875222809
5	142334	27386.09789163451	13490.453552658
5	142364	27392.54372350368	1217.9854596292
5	142437	27407.455268425489	11927.462158491
5	142452	27410.38625579541	5194.3264762554
5	142462	27412.43383308127	1220.5161224577
5	142472	27414.586071970681	6709.5290209229
5	142490	27418.645657562832	15302.270741152
5	142732	27467.436341609149	619.0415344135
5	142788	27477.808601288958	2428.0688078506
5	142825	27484.814042737794	4660.2599080009
5	142857	27491.05755314221	1815.7944322897
5	142914	27502.397971860501	1220.5420803359
5	142943	27509.066081620562	614.50327229854
5	143057	27530.471233890573	5207.0524220849
5	143092	27538.631849171123	17888.750263053
5	143112	27542.68358757663	3025.2377834416
5	143142	27546.844725152566	619.67338528126
5	143260	27568.924334957539	5764.1415587742
5	143277	27572.088999625384	3606.3231076464
5	143299	27576.127815923555	5236.6370533127
5	143312	27578.929815020221	1218.8071810039
5	143373	27590.735468402221	6274.5679145488
5	143437	27602.967930563163	6276.4718778018
5	143446	27603.975314181294	8669.8017156889
5	143551	27624.797746201412	1225.4875811637
5	143586	27629.90839752992	1829.1692932425
5	143595	27632.967882874881	625.27401398151
5	143616	27637.906381492683	1830.8788383504
5	143678	27650.512898957259	3622.8718517273
5	143694	27654.748248415715	2457.3197069498
5	143782	27668.479929918139	4159.1673911813
5	143795	27671.353643911885	1227.7993012667
5	143847	27684.016728951218	8219.6489008727
5	143860	27686.997415177891	622.8802373419
5	143953	27706.39495229413	7298.5987494604
5	143975	27710.290190400083	8227.7471423273
5	144045	27721.98665566928	5266.3116722253
5	144096	27732.202042855224	605.28830017852
5	144226	27758.705018969803	6279.0316390784
5	144334	27774.843409896074	5268.6425838026
5	144475	27801.376281423484	7758.7176912485
5	144537	27813.708871108655	2448.5695588087
5	144610	27826.624271303404	4717.8641233001
5	144635	27831.462841166359	616.71360480879
5	144658	27836.276621436968	1242.5635342457
5	144666	27838.213064283121	1242.0366029995
5	144685	27841.458156737488	3620.4292421628
5	144693	27843.148669390462	4714.1211553174
5	144731	27850.937135252252	622.35218095254
5	144748	27853.70883105545	3623.0803506755
5	144804	27864.060597915563	629.40673142269
5	144914	27883.506386370575	4728.7609110818
5	145015	27904.549189653516	7788.763288291
5	145045	27910.380182625622	627.38390388356
5	145193	27936.189029808425	628.09963169474
5	145305	27955.320470620402	4215.4370802379
5	145315	27957.22131333555	4216.0996811239
5	145318	27958.279368673814	6326.1515819491
5	145323	27959.207086411388	628.29158378428
5	145515	27995.512852347632	630.07909548791
5	145629	28017.9710750522	2455.4018740162
5	145731	28037.906950348327	3066.8199283637
5	145853	28060.770630462738	624.99819854719
5	145905	28071.039120225879	15591.04020027
5	146002	28089.85687396721	9246.8179478766
5	146027	28095.24726165113	4208.06729639
5	146057	28101.216000773468	19171.528364465
5	146097	28109.169966831421	630.20989162572
5	146140	28118.324227695808	1245.182812664
5	146234	28136.323416121853	3055.7770441787
5	146262	28142.251754493629	9259.4098871407
5	146346	28159.141678732624	2441.5753862042
5	146507	28190.406897514677	1249.2835775941
5	146689	28227.237253698138	1246.2849749326
5	146861	28259.358183427054	1257.4443710801
5	146878	28264.322548321441	4258.0520970835
5	146894	28266.449468354407	2466.672035239
5	147102	28307.366206411547	10630.405423473
5	147115	28310.520517474781	4256.7968390669
5	147122	28311.400815086435	2448.7426106777
5	147243	28333.424247366279	622.79605011289
5	147335	28347.434177706202	11862.9517886
5	147355	28351.524381309839	1868.7375385327
5	147365	28353.35955258766	3697.4668960659
5	147382	28356.226093730049	4265.4364881029
5	147410	28360.059236639364	4258.9410169222
5	147438	28366.401180189847	3697.3203644181
5	147465	28371.378193201776	8399.3339834366
5	147500	28378.330524248351	4267.6804164131
5	147597	28398.208375635278	7923.7284924602
5	147610	28401.210993445478	3696.2499218408
5	147613	28402.344419268891	2463.7072221246
5	147650	28409.580941566546	11470.120236031
5	147676	28415.220922332444	1874.4111585931
5	147686	28416.981465405692	1874.071631447
5	147713	28423.823218499962	6422.6896751487
5	147758	28433.12409922704	633.87700415305
5	147783	28437.766151185985	1881.9337056518
5	147918	28462.905813107824	9315.9194827559
5	147951	28470.357151177338	4832.0091551738
5	147970	28473.432402476946	9320.4743093127
5	148045	28488.423736912942	1262.3965240256
5	148056	28491.321409530751	7422.8822129201
5	148089	28498.834277761354	640.24147261574
5	148118	28503.91460213242	4266.0864576306
5	148164	28513.847189934549	8405.2517840388
5	148179	28516.962572280781	4829.7548202154
5	148182	28517.809995781349	4264.8336486656
5	148252	28531.591484485472	4271.7432928464
5	148356	28550.490479667576	639.27987824054
5	148445	28565.3001073529	1274.2110129599
5	148494	28575.458179181999	10723.996086323
5	148504	28577.786604291944	6462.9105557168
5	148540	28583.887224324697	7967.4203317619
5	148718	28617.987625483421	8457.5951671771
5	148785	28630.847855033163	4870.4297718024
5	148831	28640.966696571368	3721.2820408571
5	148936	28662.389963414424	1280.7069621638
5	149070	28684.95079022748	4303.5785387293
5	149140	28698.865925411876	5395.7158154739
5	149187	28705.920510832309	4297.003965149
5	149220	28713.199671929698	649.61551877527
5	149321	28734.247462213407	10349.306844596
5	149329	28736.324709135848	9437.5676077728
5	149350	28741.086732470612	7496.2400675842
5	149398	28751.259468483827	4304.0499111155
5	149577	28786.198936229657	3707.9563678473
5	149587	28788.152431961048	6485.4654505359
5	149601	28790.228509249065	12453.498820871
5	149612	28793.187274638835	14792.866820746
5	149623	28794.374062649991	3089.0095581791
5	149708	28809.766638468478	9472.4252886596
5	149711	28810.868391099937	8028.5270052139
5	149845	28834.523762549452	1283.8770619082
5	149941	28852.247237402471	7047.877526123
5	150008	28863.565990258277	1899.8032247451
5	150011	28864.456393415191	3729.476883903
5	150102	28881.559743324097	2509.8105435333
5	150143	28888.250328805565	4346.8204575318
5	150146	28889.252459500345	9507.865048928
5	150175	28896.243374403274	5986.4885789308
5	150210	28903.432500181147	4908.0430859433
5	150274	28918.058009334732	1916.2645384985
5	150289	28920.932371970811	2522.4544100301
5	150319	28927.07988042029	4344.6607269976
5	150322	28928.095494255409	651.88063690317
5	150362	28935.706472768247	1921.1972120527
5	150369	28936.597374849286	15979.032515481
5	150480	28957.665714967233	3117.7771889981
5	150499	28960.29789871106	4340.8632847498
5	150558	28971.172818246559	652.06647035006
5	150572	28975.628881699387	11291.659123251
5	150590	28979.545759156236	2523.084468948
5	150599	28980.353206011356	5463.2139301524
5	150602	28981.302473042515	6010.3031001681
5	150625	28986.011793132109	1918.2536449916
5	150655	28991.928178546281	2527.2093253861
5	150676	28996.718526144588	6559.4168589226
5	150686	28998.786185370648	9993.2583774179
5	150770	29014.434123910015	1278.6754674452
5	150868	29033.631435077527	659.06301422202
5	150907	29042.153791452274	12528.479031863
5	150912	29043.056354720872	4360.5732759109
5	150919	29044.109682850149	9531.8312323232
5	150938	29046.709890365116	13319.54442059
5	150972	29052.577247831392	4360.3314305777
5	151018	29060.274988229367	11306.310226895
5	151021	29061.125476311035	1286.7067193098
5	151117	29081.83120443186	9534.3459911322
5	151217	29101.131479709483	3131.3332701887
5	151287	29111.039191233814	10440.191884295
5	151329	29118.927922164352	1291.7443923073
5	151478	29147.758762344048	1291.2355722495
5	151602	29171.633528373653	5483.1821377568
5	151863	29218.768749728129	4943.3445067331
5	151913	29226.694901489262	2545.0000642556
5	151923	29228.497038252074	4944.2019180774
5	152059	29254.586327647862	7120.7904446107
5	152100	29261.072464517389	6602.6564529156
5	152392	29317.647532828504	8647.6843204978
5	152532	29343.48758445073	10994.593157166
5	152570	29351.776660982222	4960.7169172116
5	152584	29353.888121396937	6602.8720858009
5	152607	29358.809383985476	1309.911063043
5	152663	29368.577537229825	4956.0995573394
5	152701	29376.340049129425	12263.387642888
5	152803	29398.43743909139	13869.533103163
5	152817	29400.439726638494	5519.2820269477
5	152826	29401.616845789904	6071.584947244
5	152866	29409.667245376742	4366.873327472
5	152880	29411.892577855083	3159.6931455734
5	153134	29460.424964125434	2550.1748751783
5	153195	29473.174705194567	4966.5332299403
5	153226	29478.44055804934	14295.51753526
5	153341	29499.873296799675	1310.7336769056
5	153356	29502.673907543138	658.01647113699
5	153389	29509.623512880109	1947.4738476926
5	153432	29517.06928760733	2564.8832788747
5	153492	29529.100054775808	3169.8351044863
5	153511	29534.223004461336	8728.596378467
5	153532	29537.290236042882	2566.88573144
5	153545	29540.487420852552	8727.3262947732
5	153550	29541.565884404792	6127.2411088416
5	153553	29542.391297845146	9703.2722569165
5	153576	29547.338573611505	667.58078528057
5	153665	29565.788246498327	16266.509797586
5	153677	29567.747426011297	1956.0051587317
5	153721	29575.870443427446	664.33518674396
5	153777	29584.852697295486	9231.8703803927
5	153799	29588.643711612909	6658.3222438587
5	153802	29589.689640689152	1319.752657288
5	153831	29597.074348915811	3187.5453493852
5	153845	29601.048651473853	2583.2815927202
5	153888	29607.611363630254	4411.0750256664
5	153947	29616.64430866053	6120.5198032491
5	153976	29623.816509347853	13572.115727651
5	154131	29656.15513409961	658.53716366951
5	154148	29659.67538817374	3187.2663579186
5	154374	29702.410147723812	657.59798091139
5	154454	29718.632843345101	13585.578580324
5	154505	29727.797211067169	661.12477717042
5	154513	29729.604198300443	2558.9035899623
5	154609	29747.893400310517	8244.7350637731
5	154644	29754.597339862564	655.47695987739
5	154662	29758.754020791759	6675.2608653439
5	154685	29762.267913634495	8743.879806121
5	154840	29793.017008648882	12805.362514044
5	154888	29801.023073400626	6147.2682049701
5	154898	29803.233572774543	3800.1812160739
5	154974	29817.61129119692	8243.4798837819
5	155004	29821.552787567653	5586.8108859284
5	155049	29830.584180177354	1317.7084227631
5	155074	29835.414166614205	11129.898638222
5	155149	29849.940747467686	4404.8516392176
5	155221	29864.192936427217	8268.0477881986
5	155278	29875.090916716191	8776.7178848178
5	155325	29884.424351767056	3806.6713199927
5	155378	29893.438547759294	1974.0122937106
5	155504	29915.648390418082	3815.9015622871
5	155514	29917.836762672454	1977.8124288628
5	155609	29937.276299790737	12070.516387753
5	155659	29946.762868134935	1333.4020051732
5	155664	29947.581433068194	7273.8801798454
5	155825	29978.96346447093	5645.4745580413
5	155871	29986.847106646724	6208.8084386922
6	551	117.599309371235	66.603251207154
6	558	118.455548437415	64.355408951592
6	1344	271.156225499152	184.04976147672

