version 2
run Second_exit_2-6-20191023-00:19:49-5162
attr configname Second_exit_2
attr datetime 20191023-00:19:49
attr experiment Second_exit_2
attr inifile omnetpp.ini
attr iterationvars ""
attr iterationvarsf ""
attr measurement ""
attr network ResponseTimeNetwork
attr processid 5162
attr repetition 6
attr replication #6
attr resultdir results
attr runnumber 6
attr seedset 6
param **.Source.interArrivalTime exponential(5s)
param **.jobPriority bernoulli(0.6)
param **.PS.serviceTimeU1 "uniform(0.8s, 1.2s)"
param **.PS.serviceTimeU2 "uniform(1.8s, 2.2s)"
param **.SS1.serviceTime exponential(1s)
param **.SS2.serviceTime exponential(1.2s)
param **.PS.exitProbability bernoulli(0.2)

vector 0 ResponseTimeNetwork.SS1 queueLength:vector ETV
attr interpolationmode sample-hold
attr title "queue length, vector"
vector 1 ResponseTimeNetwork.SS2 queueLength:vector ETV
attr interpolationmode sample-hold
attr title "queue length, vector"
vector 2 ResponseTimeNetwork.QueueU1 queueLength:vector ETV
attr interpolationmode sample-hold
attr title "queue length, vector"
vector 3 ResponseTimeNetwork.QueueU2 queueLength:vector ETV
attr interpolationmode sample-hold
attr title "queue length, vector"
vector 4 ResponseTimeNetwork.sink lifeTimeU1:vector ETV
attr interpolationmode none
attr title "lifetime of arrived jobs U1, vector"
attr unit s
vector 5 ResponseTimeNetwork.sink lifeTime:vector ETV
attr interpolationmode none
attr title "lifetime of arrived jobs, vector"
attr unit s
vector 6 ResponseTimeNetwork.sink lifeTimeU2:vector ETV
attr interpolationmode none
attr title "lifetime of arrived jobs U2, vector"
attr unit s
0	0	0	0
0	1117	966.669300775142	1
0	1119	966.724440207802	0
0	1124	967.810445541987	1
0	1126	968.429746629743	0
0	1482	1233.952516164789	1
0	1484	1234.953158613877	0
0	6325	5239.820797091773	1
0	6326	5240.650696559588	0
0	9085	7630.077197371387	1
0	9086	7630.648383992381	0
0	11679	9841.119150345332	1
0	11681	9841.636103361287	0
0	11687	9843.080750887773	1
0	11689	9843.145024759919	0
0	12382	10414.610589065882	1
0	12389	10416.858254693411	0
0	12815	10731.763733026014	1
0	12816	10732.037672276028	0
0	14700	12140.124136000514	1
0	14701	12142.174083380545	0
0	19540	15973.709085467742	1
0	19541	15974.315402933991	0
0	19655	16082.722972853261	1
0	19656	16082.833202426959	0
0	26634	21730.05989308136	1
0	26636	21730.326251890869	0
0	27655	22527.95298267153	1
0	27656	22528.122652934668	0
0	28057	22823.765791944837	1
0	28061	22824.615570693094	0
0	29740	24263.852753103332	1
0	29741	24264.166233928509	0
0	29760	24268.758559289656	1
0	29761	24270.457731204255	0
0	29765	24271.538246474097	1
0	29766	24271.540666556559	0
0	30552	24879.218484452767	1
0	30556	24880.46804048304	0
0	32224	26037.87762660021	1
0	32226	26038.072671618685	0
0	33545	27230.823624771939	1
0	33546	27230.868850298979	0
0	35335	28580.311418323789	1
0	35339	28580.599586697276	0
1	0	0	0
1	1375	1163.893407114146	1
1	1386	1170.705535044751	0
1	6577	5420.316717648084	1
1	6596	5425.67609115158	0
1	20375	16728.635174036647	1
1	20376	16729.296484832176	0
1	21640	17858.936606852264	1
1	21646	17861.607489943899	0
1	22090	18184.707987663351	1
1	22101	18188.850256902811	0
1	23255	19135.394780847338	1
1	23256	19136.417468878347	0
1	26720	21784.27684195086	1
1	26721	21787.016286508667	0
1	33675	27315.995974790886	1
1	33676	27316.657059578175	0
1	34015	27552.122692011872	1
1	34016	27552.521207232955	0
2	0	0	0
2	12	26.802114818854	1
2	13	26.848577658944	0
2	185	178.546995390643	1
2	186	178.87824400787	0
2	200	194.72176072693	1
2	201	194.992120677937	0
2	215	198.904563493686	1
2	216	199.247155656423	0
2	315	313.568900501968	1
2	316	314.520330017606	0
2	320	315.028070226692	1
2	321	315.365497351146	0
2	355	330.409980018016	1
2	356	331.175041291132	0
2	405	410.180019832267	1
2	406	410.433455946496	0
2	425	428.43229855882	1
2	426	428.845232251362	0
2	450	445.581323712052	1
2	452	445.62108647724	2
2	453	446.421252108354	1
2	456	447.440533966932	0
2	480	478.068702176852	1
2	482	478.721457011618	2
2	483	479.042091936109	1
2	486	479.880944094018	0
2	510	502.433779690942	1
2	513	503.27856103368	0
2	575	551.124404377031	1
2	576	551.550437726188	0
2	580	551.804662035797	1
2	581	552.465645162031	0
2	655	616.705621555932	1
2	656	617.026376545696	0
2	705	659.424378674036	1
2	706	660.144637642069	0
2	715	662.216905959949	1
2	716	662.256085724428	0
2	755	692.054802719277	1
2	756	692.474422456838	0
2	765	694.996632924849	1
2	766	695.152631741252	0
2	865	770.749802286667	1
2	866	771.339645623678	0
2	945	831.354952840399	1
2	946	832.144671404099	0
2	1017	896.849802894919	1
2	1018	897.391321513887	0
2	1025	899.125851433007	1
2	1026	899.599791052836	0
2	1035	901.077122166903	1
2	1036	901.879156456693	0
2	1055	921.221210897827	1
2	1057	921.584290049187	2
2	1058	921.621629262707	1
2	1061	922.677476183689	0
2	1100	962.944415368064	1
2	1101	963.03807681266	0
2	1115	966.111309962218	1
2	1116	966.669300775142	0
2	1120	966.724440207802	1
2	1123	967.810445541987	0
2	1127	968.429746629743	1
2	1129	968.760827545734	2
2	1130	968.792173249839	1
2	1134	969.088753062255	2
2	1135	969.604189932166	1
2	1138	970.67431190834	0
2	1165	998.183634512441	1
2	1166	998.386352500496	0
2	1170	998.512569325794	1
2	1172	999.280656807292	2
2	1173	999.580590465003	1
2	1180	1000.46905418056	0
2	1184	1001.170462247865	1
2	1185	1001.443635084656	0
2	1192	1002.90775947435	1
2	1193	1003.427049183463	0
2	1197	1003.605230779862	1
2	1198	1004.61609292793	0
2	1205	1006.573970572019	1
2	1206	1006.841587897939	0
2	1255	1056.528241007947	1
2	1256	1057.211099525862	0
2	1280	1100.616352857391	1
2	1281	1100.714261339635	0
2	1305	1112.284576349293	1
2	1307	1112.686642193877	2
2	1308	1112.852317050713	1
2	1311	1113.91388105411	0
2	1340	1148.672212934043	1
2	1341	1149.358534655209	0
2	1415	1191.380203651689	1
2	1416	1192.562673441995	0
2	1440	1218.739946934919	1
2	1441	1219.234724623382	0
2	1450	1220.354585279918	1
2	1451	1221.113632523872	0
2	1470	1231.27638518687	1
2	1472	1231.723059367336	2
2	1473	1231.768324147137	1
2	1478	1232.919630090771	0
2	1485	1234.953158613877	1
2	1486	1235.054769973615	0
2	1490	1235.20177811425	1
2	1492	1235.57373841462	2
2	1493	1236.119343959326	1
2	1497	1236.217353544455	2
2	1498	1237.024904096844	1
2	1501	1238.146887373897	0
2	1605	1339.560884194835	1
2	1608	1340.576189796228	0
2	1615	1342.268124145403	1
2	1616	1342.293352502837	0
2	1655	1368.88734003363	1
2	1656	1369.361107777667	0
2	1660	1369.854439168632	1
2	1661	1370.245349470855	0
2	1685	1382.171449451076	1
2	1686	1383.090698262958	0
2	1725	1431.343929376904	1
2	1726	1432.478593182355	0
2	1750	1441.405278255639	1
2	1751	1441.645457070772	0
2	1772	1446.693585482652	1
2	1773	1446.956530250938	0
2	1860	1503.052253893849	1
2	1861	1503.73895472289	0
2	1970	1627.891226019506	1
2	1971	1628.060059382077	0
2	2030	1678.095172361314	1
2	2031	1678.436148167631	0
2	2040	1680.209280471641	1
2	2041	1680.522657807587	0
2	2045	1680.542405973706	1
2	2046	1681.401356911609	0
2	2060	1687.848756559691	1
2	2062	1688.488934473393	2
2	2063	1688.873326101012	1
2	2068	1689.698241445746	0
2	2072	1690.57669211731	1
2	2073	1690.869430314142	0
2	2145	1727.897893416704	1
2	2146	1727.930198772998	0
2	2220	1791.371635383426	1
2	2221	1791.449014771166	0
2	2265	1828.743970625778	1
2	2266	1829.609957732624	0
2	2275	1831.996281509393	1
2	2276	1832.278390403907	0
2	2300	1863.286209854527	1
2	2301	1863.349965144467	0
2	2340	1892.729020952303	1
2	2341	1893.762082685448	0
2	2365	1918.473024359745	1
2	2368	1919.002943387426	0
2	2380	1928.830848501818	1
2	2381	1929.462953732167	0
2	2440	2022.436731649257	1
2	2441	2023.075783106704	0
2	2450	2026.092131296739	1
2	2451	2026.666648781126	0
2	2500	2061.031238604343	1
2	2501	2061.293884543226	0
2	2550	2110.405716153429	1
2	2551	2110.649970259717	0
2	2600	2140.075969620713	1
2	2601	2140.43992169187	0
2	2607	2141.275199859027	1
2	2608	2141.553383249832	0
2	2612	2142.097445244322	1
2	2613	2142.602475677846	0
2	2617	2142.826326950231	1
2	2618	2143.782621993633	0
2	2640	2151.743323299604	1
2	2641	2152.239002616636	0
2	2695	2198.91575736416	1
2	2697	2199.140573854902	2
2	2698	2199.829091027389	1
2	2702	2199.994948712677	2
2	2703	2200.996528339303	1
2	2706	2202.099675241589	0
2	2742	2231.005309390719	1
2	2743	2231.672969628431	0
2	2785	2288.614235763615	1
2	2786	2288.849888760441	0
2	2810	2297.299706458857	1
2	2812	2297.722462806672	2
2	2813	2298.102474235904	1
2	2817	2298.32147689069	2
2	2818	2299.225742829565	1
2	2821	2300.407516738653	0
2	2850	2334.46037508169	1
2	2851	2335.341774623576	0
2	2855	2335.53657870778	1
2	2856	2336.304794710051	0
2	2860	2336.916134689777	1
2	2861	2337.143172920789	0
2	2880	2352.627252385703	1
2	2881	2352.836738137842	0
2	2970	2474.572798716956	1
2	2971	2474.985565149879	0
2	2980	2477.099138163241	1
2	2981	2477.414343464008	0
2	3035	2515.494908757595	1
2	3036	2515.886945479686	0
2	3045	2517.714677597017	1
2	3047	2518.098965602617	2
2	3048	2518.202342352486	1
2	3051	2519.167712180811	0
2	3130	2571.193903222158	1
2	3133	2571.99426997284	0
2	3180	2600.04178209766	1
2	3181	2600.835089687929	0
2	3275	2667.452313590956	1
2	3276	2668.260453901708	0
2	3325	2718.647395637145	1
2	3326	2718.99804149889	0
2	3405	2793.24780953287	1
2	3407	2793.287816637048	2
2	3408	2793.870541489095	1
2	3411	2795.047890168306	0
2	3460	2847.724363175549	1
2	3461	2848.518640523169	0
2	3465	2849.039506352942	1
2	3466	2849.434526739687	0
2	3480	2866.551890316137	1
2	3481	2866.838604879062	0
2	3485	2867.736279694264	1
2	3486	2868.017794880326	0
2	3560	2921.475256021787	1
2	3561	2922.210045178526	0
2	3610	2958.585863103457	1
2	3611	2959.317152157495	0
2	3620	2961.039549242741	1
2	3621	2961.501834683748	0
2	3655	3004.250037956824	1
2	3656	3005.160333078631	0
2	3680	3023.844644609339	1
2	3681	3024.510931345381	0
2	3725	3067.979865746969	1
2	3726	3068.683381604038	0
2	3785	3106.210351333407	1
2	3787	3106.299579164425	2
2	3788	3106.406714209591	1
2	3791	3107.524564812941	0
2	3812	3126.408712095808	1
2	3813	3126.414497650632	0
2	3817	3126.44078823228	1
2	3822	3127.575794729249	0
2	3860	3156.151931678278	1
2	3863	3156.489245876053	0
2	3870	3157.697899898528	1
2	3871	3158.510227518098	0
2	3935	3218.976030432771	1
2	3936	3219.838417794027	0
2	3970	3235.551628146477	1
2	3971	3235.778387242668	0
2	3980	3237.826642515416	1
2	3981	3237.963168781456	0
2	3985	3238.448109529317	1
2	3986	3238.890162180104	0
2	3990	3239.221404688043	1
2	3991	3239.848773368747	0
2	3995	3240.508066830245	1
2	3996	3240.671058920418	0
2	4030	3259.335027566684	1
2	4031	3259.706034331642	0
2	4130	3358.9735701589	1
2	4131	3359.472111074726	0
2	4145	3364.234766324275	1
2	4146	3364.828781146254	0
2	4175	3385.212885045593	1
2	4176	3385.266729174738	0
2	4260	3446.098120388614	1
2	4261	3446.26400187378	0
2	4265	3446.607675062528	1
2	4266	3447.436431394231	0
2	4300	3503.032822184886	1
2	4301	3503.547264301761	0
2	4480	3676.788866183636	1
2	4481	3677.867761401445	0
2	4525	3728.845029968853	1
2	4526	3729.440810588511	0
2	4640	3880.687598359623	1
2	4641	3881.322903011754	0
2	4745	3988.654211974947	1
2	4747	3988.867351622077	2
2	4748	3989.321101165432	1
2	4751	3990.357004509083	0
2	4805	4047.794756960287	1
2	4806	4048.336066075475	0
2	4820	4055.31564639497	1
2	4821	4056.033055730502	0
2	4855	4100.703847509533	1
2	4856	4101.510520148881	0
2	4860	4101.733503423054	1
2	4861	4102.411451121092	0
2	4930	4140.64986968697	1
2	4931	4141.208643979229	0
2	5110	4313.813405187152	1
2	5111	4314.78940677065	0
2	5115	4315.24186704448	1
2	5116	4315.983074214678	0
2	5120	4316.821311642775	1
2	5121	4317.076176724765	0
2	5125	4317.304543018528	1
2	5127	4317.507245951294	2
2	5128	4318.17859075991	1
2	5131	4319.318350243378	0
2	5165	4343.044250337845	1
2	5166	4344.108499132569	0
2	5170	4344.249418775713	1
2	5172	4344.46462723478	2
2	5175	4345.248723973434	1
2	5178	4346.071493927024	0
2	5182	4346.690092532763	1
2	5183	4346.918373845339	0
2	5220	4379.318650459746	1
2	5221	4379.850085076647	0
2	5250	4390.41499386515	1
2	5251	4390.751058212514	0
2	5300	4414.238600247757	1
2	5301	4414.528979240418	0
2	5337	4444.254929319818	1
2	5340	4444.673733334834	0
2	5349	4446.250057872753	1
2	5350	4446.65435783559	0
2	5375	4472.657119632424	1
2	5377	4472.83425270097	2
2	5378	4473.224743835055	1
2	5381	4474.395887637124	0
2	5385	4475.166740483695	1
2	5386	4475.512188585554	0
2	5395	4477.832694602322	1
2	5396	4478.400699413062	0
2	5470	4532.264147652095	1
2	5471	4533.027884153285	0
2	5485	4537.893406532435	1
2	5486	4538.682731726222	0
2	5495	4545.147015078732	1
2	5496	4545.183163922798	0
2	5505	4547.684600472814	1
2	5506	4547.822118743155	0
2	5520	4562.739367309565	1
2	5521	4563.441811180499	0
2	5525	4563.797050257204	1
2	5526	4564.526423090336	0
2	5570	4606.133403777689	1
2	5571	4606.656776540194	0
2	5580	4608.851027004725	1
2	5581	4608.882636649897	0
2	5650	4653.629304406407	1
2	5651	4654.245775347793	0
2	5655	4654.352648929146	1
2	5656	4655.342843601046	0
2	5685	4681.283454415428	1
2	5687	4681.603423165338	2
2	5688	4681.918066012959	1
2	5691	4683.024070329598	0
2	5700	4691.741254962549	1
2	5701	4692.398004234907	0
2	5725	4722.219934334868	1
2	5726	4723.036675886253	0
2	5730	4723.388536986911	1
2	5731	4724.035805197155	0
2	5765	4745.978439873604	1
2	5766	4746.216361145592	0
2	5795	4773.074766047557	1
2	5796	4773.922348141718	0
2	5810	4779.488771562687	1
2	5812	4779.714813405601	2
2	5813	4779.849460532813	1
2	5816	4780.95417763397	0
2	5890	4846.38105859268	1
2	5891	4847.121383960559	0
2	5935	4907.117511421313	1
2	5936	4907.860574847132	0
2	5970	4934.050499649931	1
2	5971	4934.678916688591	0
2	5990	4950.842800197283	1
2	5991	4950.92131232216	0
2	5995	4951.650347847584	1
2	5996	4952.075924768457	0
2	6005	4953.441921374339	1
2	6006	4953.800414450346	0
2	6030	4964.528881699185	1
2	6031	4965.548044899312	0
2	6040	4969.659784591836	1
2	6043	4970.187257651333	0
2	6047	4970.895936670009	1
2	6048	4971.029113228061	0
2	6075	4979.378372432657	1
2	6076	4980.394182335784	0
2	6085	4987.453338690163	1
2	6086	4987.478182924043	0
2	6120	5016.729296554424	1
2	6121	5017.638484853022	0
2	6125	5017.99910458223	1
2	6126	5018.51516769955	0
2	6145	5030.222521320313	1
2	6146	5031.19871536693	0
2	6220	5123.043359509869	1
2	6221	5123.068516175454	0
2	6225	5123.754964776844	1
2	6226	5124.085821554815	0
2	6230	5124.341842643527	1
2	6231	5125.022884238982	0
2	6315	5234.000482205932	1
2	6316	5235.016550337309	0
2	6345	5265.372091601019	1
2	6346	5266.00929091358	0
2	6365	5287.728795073313	1
2	6366	5287.974553269478	0
2	6380	5296.466190876005	1
2	6381	5296.986958368625	0
2	6400	5317.653284480587	1
2	6401	5317.885681091589	0
2	6447	5344.272087296345	1
2	6448	5344.51861397109	0
2	6460	5347.616157181918	1
2	6463	5348.377563138515	0
2	6490	5379.097621805005	1
2	6491	5379.40002556804	0
2	6505	5382.076559703853	1
2	6507	5382.58376580008	2
2	6508	5383.001352615724	1
2	6513	5383.832733532204	0
2	6517	5384.48694317845	1
2	6518	5384.771093134652	0
2	6522	5384.888172418153	1
2	6523	5385.845290661394	0
2	6527	5385.997085849169	1
2	6528	5386.792668550532	0
2	6535	5388.59391888865	1
2	6536	5388.734893846396	0
2	6590	5422.603750370757	1
2	6591	5423.288422392166	0
2	6625	5432.267777929736	1
2	6626	5432.872773085974	0
2	6635	5434.060547720724	1
2	6638	5434.920532824072	0
2	6670	5461.677279882833	1
2	6671	5462.21691100016	0
2	6730	5539.161475646825	1
2	6731	5539.702484414041	0
2	6765	5576.789663961153	1
2	6767	5577.434900596251	2
2	6768	5577.440989464375	1
2	6771	5578.365458122867	0
2	7080	5907.934637269368	1
2	7081	5907.936246704461	0
2	7110	5924.364746035137	1
2	7111	5925.194850727272	0
2	7115	5925.33751979302	1
2	7116	5926.13151711217	0
2	7245	6023.626630740547	1
2	7246	6024.678114947329	0
2	7280	6057.73707344666	1
2	7282	6057.78259211716	2
2	7283	6058.131870162646	1
2	7286	6059.007280697087	0
2	7330	6115.6642820808	1
2	7331	6115.864812080766	0
2	7460	6216.631066327199	1
2	7461	6217.454206590406	0
2	7475	6228.622570009842	1
2	7476	6229.514517339948	0
2	7485	6232.362645220919	1
2	7486	6232.687585878441	0
2	7595	6340.700572481636	1
2	7597	6341.373644750744	2
2	7598	6341.381403405994	1
2	7601	6342.503647643078	0
2	7655	6391.896596281172	1
2	7656	6392.366638883543	0
2	7670	6395.38526660744	1
2	7672	6395.553919157394	2
2	7673	6395.974456044376	1
2	7678	6397.152809948377	0
2	7687	6398.818508389503	1
2	7688	6399.127046329803	0
2	7750	6432.882102833136	1
2	7752	6433.645622018992	2
2	7753	6433.782232589071	1
2	7756	6434.863254877162	0
2	7795	6468.888280443672	1
2	7796	6469.765966275822	0
2	7810	6480.227951121085	1
2	7811	6480.908533740587	0
2	7815	6481.414665283665	1
2	7816	6481.713292633075	0
2	7890	6551.438072039858	1
2	7891	6551.721083341176	0
2	7895	6552.453367155454	1
2	7896	6552.521723494223	0
2	7925	6586.503715810562	1
2	7926	6587.448830531588	0
2	7930	6587.624353884644	1
2	7931	6588.421827012444	0
2	7935	6588.821364938097	1
2	7938	6589.610999999059	0
2	7985	6644.744931662535	1
2	7986	6645.490058920936	0
2	8060	6722.511593166851	1
2	8061	6723.297035046769	0
2	8095	6752.487998427389	1
2	8096	6753.048150432068	0
2	8117	6764.300896658359	1
2	8118	6765.283353258903	0
2	8130	6768.064694948861	1
2	8131	6768.193334680671	0
2	8185	6825.67545600158	1
2	8186	6826.213714295227	0
2	8215	6852.135703988005	1
2	8216	6852.688656907994	0
2	8230	6863.334170867866	1
2	8231	6864.029828626849	0
2	8247	6867.63205420475	1
2	8248	6867.692801854003	0
2	8275	6874.832340423839	1
2	8276	6875.629414163364	0
2	8280	6875.81610699118	1
2	8283	6876.793638518287	0
2	8305	6891.143968747502	1
2	8306	6891.41486323047	0
2	8330	6915.990191226987	1
2	8331	6916.386716927847	0
2	8365	6927.036989688765	1
2	8366	6927.298647383819	0
2	8390	6936.790939313662	1
2	8391	6937.528527395879	0
2	8415	6964.148506707979	1
2	8416	6964.231490931215	0
2	8470	7002.085699705417	1
2	8471	7002.694345809211	0
2	8500	7034.188051780041	1
2	8501	7034.337001044887	0
2	8600	7143.582735423462	1
2	8601	7144.743713926853	0
2	8670	7212.827633940253	1
2	8671	7213.283664217153	0
2	8675	7213.470123648566	1
2	8676	7214.240367119507	0
2	8700	7222.278188706369	1
2	8703	7222.563674438678	0
2	8730	7261.953863779859	1
2	8731	7263.052568056697	0
2	8745	7291.304647427671	1
2	8746	7292.009407953488	0
2	8750	7292.260007285814	1
2	8751	7293.171329752391	0
2	8805	7326.691743890689	1
2	8807	7327.266529363562	2
2	8808	7327.596341048665	1
2	8811	7328.495436842106	0
2	9080	7628.885567018953	1
2	9081	7629.0914165218	0
2	9090	7630.906888724338	1
2	9091	7631.566091982212	0
2	9155	7709.111774420789	1
2	9156	7709.574836812208	0
2	9410	7898.64881528746	1
2	9411	7899.459492783277	0
2	9505	7967.33136840632	1
2	9506	7967.908464383438	0
2	9595	8058.630512308289	1
2	9596	8059.46327323944	0
2	9705	8172.102767600227	1
2	9706	8172.803658938	0
2	9770	8218.034543543954	1
2	9771	8218.829040737547	0
2	9795	8235.04033362706	1
2	9796	8235.836765146064	0
2	9810	8239.367319203717	1
2	9811	8239.615784209399	0
2	9835	8243.831290020125	1
2	9836	8244.388480191669	0
2	9885	8319.828165098505	1
2	9886	8320.490118235341	0
2	9940	8369.381115176206	1
2	9941	8370.150215972531	0
2	10010	8461.328736817216	1
2	10012	8461.769960601075	2
2	10013	8462.175791657686	1
2	10016	8463.219584608979	0
2	10060	8551.459763635974	1
2	10061	8551.613049192691	0
2	10145	8633.370414470711	1
2	10146	8633.550847016204	0
2	10165	8642.507922052662	1
2	10168	8642.713008444549	0
2	10180	8653.718375751982	1
2	10181	8653.850971725837	0
2	10195	8659.529640750801	1
2	10196	8659.697235840157	0
2	10270	8701.273994149882	1
2	10271	8702.297020268444	0
2	10275	8702.305952450445	1
2	10276	8703.206381062236	0
2	10285	8705.099421862547	1
2	10286	8705.38395748898	0
2	10305	8715.22521453544	1
2	10306	8715.836860789867	0
2	10365	8782.322936961984	1
2	10367	8782.804822761262	2
2	10368	8782.809753083535	1
2	10372	8783.434994667511	2
2	10373	8783.798173307073	1
2	10376	8784.724232365195	0
2	10390	8790.481412722273	1
2	10391	8790.792398243161	0
2	10397	8791.702960470476	1
2	10398	8791.749336907031	0
2	10410	8797.855522360392	1
2	10411	8798.79266756512	0
2	10415	8799.204368056189	1
2	10416	8799.798949266782	0
2	10430	8814.30618700406	1
2	10431	8815.212008279352	0
2	10445	8827.16581748394	1
2	10446	8827.755281934925	0
2	10510	8855.096528925266	1
2	10512	8855.172868170058	2
2	10513	8855.935985235912	1
2	10517	8856.822055348715	2
2	10518	8856.82794652632	1
2	10522	8856.991189039138	2
2	10523	8857.840239255824	1
2	10526	8858.772314838176	0
2	10540	8869.634969758979	1
2	10542	8869.779066416771	2
2	10543	8870.192176669751	1
2	10549	8870.774313952755	2
2	10550	8871.324139021066	1
2	10553	8872.463403523163	0
2	10557	8872.596820488373	1
2	10558	8873.318956953016	0
2	10585	8890.567064046209	1
2	10586	8890.725663545117	0
2	10590	8891.307255027713	1
2	10591	8891.670966037497	0
2	10610	8901.958632385079	1
2	10611	8902.005964887808	0
2	10635	8944.558490408195	1
2	10636	8944.833831698655	0
2	10740	9048.710527805051	1
2	10741	9049.249599504167	0
2	10770	9063.470152578268	1
2	10771	9063.793576143793	0
2	10840	9126.339871079598	1
2	10841	9127.304569438682	0
2	10845	9127.506114385346	1
2	10846	9128.295685933461	0
2	10870	9144.575894863906	1
2	10871	9145.570333998756	0
2	10950	9224.265286765142	1
2	10951	9224.794792106602	0
2	10970	9249.057893202626	1
2	10971	9249.267638210115	0
2	11015	9287.967443140602	1
2	11016	9288.658125029837	0
2	11080	9354.029480755398	1
2	11081	9354.288550871408	0
2	11110	9376.781823409347	1
2	11111	9377.358189489987	0
2	11115	9377.83266532053	1
2	11116	9378.246103114277	0
2	11120	9378.268511793554	1
2	11122	9378.349099150556	2
2	11123	9379.304231973287	1
2	11128	9380.439362630729	0
2	11170	9408.284702011954	1
2	11172	9408.476587843018	2
2	11173	9408.498540547454	1
2	11176	9409.459474193734	0
2	11205	9443.78112058655	1
2	11206	9444.20579406039	0
2	11250	9476.412982610924	1
2	11253	9477.371095708276	0
2	11262	9478.521555593889	1
2	11263	9479.275952695574	0
2	11305	9514.643352831232	1
2	11306	9514.735441510449	0
2	11345	9529.669075208323	1
2	11346	9530.365412635234	0
2	11365	9550.442486741382	1
2	11366	9551.249965481846	0
2	11370	9551.576426085738	1
2	11371	9552.410357716507	0
2	11395	9559.215915565579	1
2	11396	9559.719597759805	0
2	11400	9559.889757354442	1
2	11401	9560.643965121321	0
2	11405	9560.87992135434	1
2	11406	9561.725851115547	0
2	11415	9566.816620195114	1
2	11416	9567.92859549301	0
2	11450	9609.878734664994	1
2	11451	9609.902061649251	0
2	11500	9654.405130330898	1
2	11501	9655.363787852515	0
2	11630	9806.132516453085	1
2	11631	9807.095154694961	0
2	11655	9837.02230658125	1
2	11657	9837.091086787794	2
2	11659	9837.351959273205	3
2	11660	9837.527419032182	2
2	11664	9837.868967934644	3
2	11667	9838.403030404381	2
2	11670	9839.355002478722	1
2	11674	9839.944679731117	2
2	11675	9840.192344227738	1
2	11678	9841.119150345332	0
2	11682	9841.636103361287	1
2	11683	9842.206961396641	0
2	11690	9843.145024759919	1
2	11692	9843.649590343629	2
2	11693	9844.126598863143	1
2	11697	9844.787097610098	2
2	11698	9845.016016133714	1
2	11701	9845.953240350566	0
2	11735	9878.748556716449	1
2	11736	9879.794715452696	0
2	11750	9883.274794387476	1
2	11751	9883.635650006107	0
2	11770	9902.211811693852	1
2	11771	9902.326594934963	0
2	11790	9908.213902771837	1
2	11792	9908.771072917735	2
2	11793	9908.831311728671	1
2	11798	9909.674821582582	0
2	11807	9911.324640461194	1
2	11808	9911.336108245753	0
2	11830	9928.78053250051	1
2	11831	9929.610810967127	0
2	11850	9940.80905452294	1
2	11851	9941.144888961289	0
2	11885	9998.656724942486	1
2	11887	9999.316720781874	2
2	11888	9999.757817789293	1
2	11891	10000.938533704761	0
2	11895	10001.728287605592	1
2	11896	10001.78001103656	0
2	11940	10061.799994093989	1
2	11941	10061.84970506027	0
2	11945	10062.487268210968	1
2	11946	10062.717206215836	0
2	11960	10084.798576635163	1
2	11961	10085.771740390711	0
2	12000	10100.429577864896	1
2	12001	10100.511248870537	0
2	12070	10151.709147396562	1
2	12073	10152.233319337477	0
2	12077	10152.375269526879	1
2	12080	10153.233361871258	0
2	12084	10153.72119840749	1
2	12087	10154.271266876996	0
2	12102	10157.87019502353	1
2	12103	10158.178980875104	0
2	12110	10159.576916259454	1
2	12111	10160.432897221013	0
2	12320	10385.993287715863	1
2	12321	10386.224416976634	0
2	12325	10386.626291872286	1
2	12326	10387.266832460396	0
2	12330	10388.243492497401	1
2	12331	10388.344645704076	0
2	12355	10398.616282407968	1
2	12356	10399.396932650404	0
2	12375	10412.796670202493	1
2	12377	10413.107546371395	2
2	12378	10413.476802057973	1
2	12381	10414.610589065882	0
2	12390	10416.858254693411	1
2	12391	10416.919499742631	0
2	12435	10445.590267555526	1
2	12436	10445.847474448909	0
2	12440	10446.540463783217	1
2	12441	10446.993180708461	0
2	12515	10492.115170428058	1
2	12516	10493.125149712867	0
2	12520	10493.208708717875	1
2	12521	10494.169187888659	0
2	12592	10548.945803312596	1
2	12593	10549.271483410116	0
2	12630	10575.372966942142	1
2	12631	10575.938047638222	0
2	12670	10608.212815394449	1
2	12671	10608.769155790623	0
2	12680	10609.811619420306	1
2	12682	10610.69961213312	2
2	12683	10610.708683856381	1
2	12687	10611.282130891046	2
2	12688	10611.877112037027	1
2	12691	10612.83642375878	0
2	12704	10614.239500665599	1
2	12705	10614.767993803033	0
2	12740	10665.298301538493	1
2	12741	10665.888411413872	0
2	12775	10707.488376220356	1
2	12776	10708.306967826336	0
2	12805	10729.402249431814	1
2	12806	10730.050942236373	0
2	12810	10730.616271933916	1
2	12811	10730.922337696051	0
2	12820	10732.552752206191	1
2	12821	10733.084919348151	0
2	12920	10841.163732734406	1
2	12923	10841.977100604617	0
2	12972	10891.632950177983	1
2	12973	10892.216167777584	0
2	13075	10976.535906652396	1
2	13076	10977.621992608899	0
2	13100	10995.127541242835	1
2	13101	10995.26933946886	0
2	13165	11075.859972312928	1
2	13166	11076.11348150501	0
2	13195	11090.465903247355	1
2	13196	11091.359831030693	0
2	13225	11102.191339444312	1
2	13228	11102.904823045259	0
2	13280	11146.847144662139	1
2	13283	11146.937175065419	0
2	13415	11256.03713649315	1
2	13416	11256.265617985834	0
2	13575	11379.911401558193	1
2	13576	11380.308594525481	0
2	13595	11391.003246350104	1
2	13596	11391.489467574738	0
2	13620	11410.97974098712	1
2	13622	11411.022751383353	2
2	13623	11411.641732519943	1
2	13628	11412.649467556908	0
2	13734	11500.075539452778	1
2	13735	11500.87571874611	0
2	13744	11502.509620733788	1
2	13745	11503.085610798242	0
2	13820	11573.003098857214	1
2	13821	11573.716961587796	0
2	13835	11578.012989424504	1
2	13836	11578.36758718955	0
2	13870	11605.921008140725	1
2	13872	11606.277129433927	2
2	13873	11606.768188826588	1
2	13876	11607.598457241186	0
2	13915	11621.68897163364	1
2	13916	11622.584208509264	0
2	13935	11632.937435441991	1
2	13936	11633.765066753266	0
2	13955	11640.964037215191	1
2	13956	11641.69792160203	0
2	14005	11670.304952094459	1
2	14006	11671.454262409826	0
2	14050	11696.707666423051	1
2	14051	11697.183726762215	0
2	14080	11709.98290475575	1
2	14081	11710.99502453661	0
2	14105	11733.253709379903	1
2	14106	11733.42359475556	0
2	14225	11831.802437654996	1
2	14228	11832.422799750782	0
2	14260	11841.070008624658	1
2	14261	11842.203277045829	0
2	14267	11843.05261704605	1
2	14268	11843.141490795618	0
2	14272	11843.28996344486	1
2	14273	11843.975338850511	0
2	14335	11880.88051164985	1
2	14336	11881.126822234221	0
2	14340	11881.894543811048	1
2	14341	11882.266428971008	0
2	14370	11904.153984216081	1
2	14371	11904.973837721725	0
2	14410	11934.711235689389	1
2	14411	11935.386231584697	0
2	14430	11951.687433878141	1
2	14431	11951.833156367536	0
2	14455	11971.267634263944	1
2	14456	11971.513223537762	0
2	14465	11974.791614529254	1
2	14466	11975.217559825275	0
2	14475	11982.57768745166	1
2	14476	11983.258284962873	0
2	14515	12009.206985215739	1
2	14516	12009.471441629606	0
2	14530	12019.977368834876	1
2	14531	12020.807377412299	0
2	14605	12108.050948858108	1
2	14606	12108.121719849574	0
2	14615	12111.843966453118	1
2	14618	12112.19892558596	0
2	14655	12130.012419498429	1
2	14656	12131.041640843186	0
2	14660	12131.107245679707	1
2	14662	12131.381340665023	2
2	14664	12131.608494547634	3
2	14665	12132.179868885517	2
2	14668	12133.022402411621	1
2	14671	12134.086204129659	0
2	14675	12134.086985410225	1
2	14676	12135.052409445044	0
2	14680	12135.672859657185	1
2	14682	12135.916187916824	2
2	14683	12136.13615795571	1
2	14687	12136.761596632512	2
2	14688	12137.112781076614	1
2	14692	12137.731020709782	2
2	14693	12138.262106370382	1
2	14696	12139.106862754762	0
2	14705	12142.651930267976	1
2	14706	12143.231424244265	0
2	14730	12155.55736195943	1
2	14731	12156.109786275151	0
2	14740	12162.673961812395	1
2	14741	12163.088800224048	0
2	14765	12177.574235639168	1
2	14766	12177.708912731621	0
2	14770	12178.150634036358	1
2	14771	12178.821608283471	0
2	14775	12179.065840174401	1
2	14776	12179.728382618081	0
2	14895	12269.589477654195	1
2	14896	12269.877842228954	0
2	14915	12279.229861592507	1
2	14916	12279.759635218776	0
2	14930	12283.428015177218	1
2	14931	12284.211668949277	0
2	14935	12284.755655787425	1
2	14936	12285.232255944312	0
2	14965	12298.243137338002	1
2	14966	12298.661995986261	0
2	14995	12307.891439270007	1
2	14996	12308.01714114588	0
2	15055	12367.210699059363	1
2	15056	12368.131000962697	0
2	15100	12397.45277992957	1
2	15101	12398.036297675554	0
2	15120	12411.477489787081	1
2	15121	12411.769027655972	0
2	15175	12454.073902336343	1
2	15177	12454.508736060216	2
2	15178	12455.225689651402	1
2	15181	12456.326775681092	0
2	15190	12458.755524240046	1
2	15191	12459.189095186597	0
2	15215	12468.331801216462	1
2	15216	12468.450148191532	0
2	15255	12487.022789736805	1
2	15258	12488.080139201479	0
2	15280	12509.257134918774	1
2	15281	12509.425682287708	0
2	15285	12509.934760527464	1
2	15286	12510.291637914859	0
2	15355	12559.768388236688	1
2	15356	12560.51196502594	0
2	15360	12560.701721806423	1
2	15361	12561.710964442675	0
2	15365	12562.374241929854	1
2	15366	12562.83450231373	0
2	15370	12563.03071754981	1
2	15372	12563.528385479169	2
2	15373	12564.009696589575	1
2	15376	12564.939205687099	0
2	15400	12579.693499778811	1
2	15402	12579.994667091563	2
2	15403	12580.773901012576	1
2	15406	12581.850182820055	0
2	15465	12665.514113969093	1
2	15466	12666.460345808644	0
2	15485	12700.5378106237	1
2	15486	12701.176335280177	0
2	15610	12821.337180823772	1
2	15611	12822.014508836063	0
2	15635	12834.832068441148	1
2	15636	12835.479178143701	0
2	15670	12850.84388916557	1
2	15671	12851.55423866584	0
2	15680	12853.957450115734	1
2	15681	12854.024111402075	0
2	15715	12896.030183912906	1
2	15716	12896.965177044212	0
2	15770	12949.233834463319	1
2	15771	12949.421010263009	0
2	15820	12991.574785729024	1
2	15821	12992.193321280044	0
2	15940	13103.565923184016	1
2	15941	13103.738985955791	0
2	15975	13136.177549834323	1
2	15976	13136.569941143035	0
2	16015	13179.246359912171	1
2	16016	13179.897442562522	0
2	16050	13190.372752945082	1
2	16051	13191.515610976618	0
2	16090	13222.612665840822	1
2	16091	13222.769762733087	0
2	16100	13224.272200490333	1
2	16101	13225.213490284765	0
2	16115	13232.785320894204	1
2	16116	13233.690842271388	0
2	16130	13246.319600433733	1
2	16131	13246.533064479399	0
2	16180	13307.717094154474	1
2	16181	13308.452434506941	0
2	16235	13351.142028243421	1
2	16236	13351.488162590062	0
2	16315	13426.861931801446	1
2	16316	13427.06409505251	0
2	16320	13427.282939219363	1
2	16321	13427.911008792828	0
2	16337	13433.746704255098	1
2	16338	13434.154916386101	0
2	16420	13498.294979788863	1
2	16421	13498.795098484426	0
2	16485	13560.391527664363	1
2	16486	13560.990362754287	0
2	16495	13563.576005332078	1
2	16496	13564.199261775291	0
2	16520	13582.602371799808	1
2	16522	13582.640009194648	2
2	16523	13583.389656372521	1
2	16526	13584.49959859677	0
2	16542	13591.26653890369	1
2	16543	13591.901908754917	0
2	16595	13634.409403240679	1
2	16596	13635.246647004891	0
2	16635	13652.161359124373	1
2	16636	13652.351196584751	0
2	16695	13692.80733494882	1
2	16696	13692.903974238838	0
2	16710	13715.100025298641	1
2	16712	13715.354180472873	2
2	16713	13715.644374335671	1
2	16716	13716.707814787535	0
2	16745	13747.108625730224	1
2	16746	13747.217998866257	0
2	16750	13747.567008846809	1
2	16751	13748.20651590683	0
2	16760	13757.186225857949	1
2	16761	13757.897155104933	0
2	16800	13795.82193956372	1
2	16801	13796.115248198821	0
2	16865	13834.031320160899	1
2	16866	13834.095518583006	0
2	16870	13835.018339397812	1
2	16871	13835.05319408946	0
2	16885	13841.160711021205	1
2	16886	13841.415944655691	0
2	16890	13842.399680966641	1
2	16891	13842.594857464344	0
2	16895	13843.540723453545	1
2	16896	13843.664399620038	0
2	16935	13870.832990995718	1
2	16936	13871.675343538696	0
2	16965	13891.258870022828	1
2	16966	13892.161171703704	0
2	16970	13892.819642885121	1
2	16971	13893.167157254286	0
2	16990	13906.377909454288	1
2	16991	13907.083781092351	0
2	17005	13914.407072820889	1
2	17006	13915.412546882398	0
2	17090	13979.335306632741	1
2	17091	13979.541009716755	0
2	17165	14039.708345035517	1
2	17166	14039.92237845612	0
2	17260	14149.8354367266	1
2	17261	14150.573344593396	0
2	17280	14165.946216588294	1
2	17281	14166.313554333399	0
2	17335	14205.376526902923	1
2	17337	14205.677516358518	2
2	17340	14206.031198793264	1
2	17343	14206.955859082272	0
2	17352	14207.877946458314	1
2	17353	14208.962403315292	0
2	17370	14214.392896132649	1
2	17371	14214.498020193424	0
2	17420	14272.616938704264	1
2	17421	14273.370947326752	0
2	17620	14421.787052090482	1
2	17622	14422.244675945089	2
2	17623	14422.65900477685	1
2	17626	14423.555030235946	0
2	17630	14423.715798172089	1
2	17631	14424.609498473089	0
2	17715	14511.943282697691	1
2	17716	14512.639991233411	0
2	17865	14653.63823214533	1
2	17866	14654.240857078977	0
2	17890	14678.640077710762	1
2	17891	14679.218362751163	0
2	17930	14719.655829495325	1
2	17931	14719.847726655986	0
2	17945	14734.782438688438	1
2	17946	14735.12497536863	0
2	17980	14748.212728433587	1
2	17981	14748.376068373745	0
2	17992	14749.328030751342	1
2	17993	14750.187621422926	0
2	18040	14776.481326574078	1
2	18041	14777.222077188264	0
2	18050	14778.388617847474	1
2	18051	14779.427281318938	0
2	18100	14809.446912730099	1
2	18101	14810.260812949778	0
2	18135	14827.729367754229	1
2	18136	14828.387606044506	0
2	18185	14877.527094448013	1
2	18186	14877.577990621435	0
2	18200	14881.397083433397	1
2	18201	14882.172646550443	0
2	18215	14894.118643417665	1
2	18216	14894.163600678295	0
2	18260	14947.775136030235	1
2	18261	14948.566587923457	0
2	18285	14956.007598153713	1
2	18286	14956.856064247142	0
2	18380	15034.61260024058	1
2	18383	15034.927910025703	0
2	18420	15076.525671044614	1
2	18421	15077.503592049039	0
2	18425	15078.238553066091	1
2	18426	15078.324595499865	0
2	18455	15102.456990003843	1
2	18456	15103.120038129052	0
2	18465	15104.400987296606	1
2	18466	15105.404010243923	0
2	18560	15174.982516398978	1
2	18561	15175.950841568982	0
2	18675	15283.290300888858	1
2	18676	15284.190356668351	0
2	18710	15334.18966499455	1
2	18711	15334.961133275829	0
2	18735	15356.498418820824	1
2	18737	15356.997481640241	2
2	18738	15357.067823539776	1
2	18741	15357.989688170617	0
2	18790	15430.1732112243	1
2	18791	15430.891461015868	0
2	18807	15434.44120036925	1
2	18808	15434.642639253942	0
2	18905	15508.759712956744	1
2	18906	15509.027542124936	0
2	18947	15558.186808588949	1
2	18949	15558.301971752541	2
2	18950	15558.498876457886	1
2	18954	15559.136801733653	2
2	18956	15559.521641667817	3
2	18957	15559.618746537381	2
2	18961	15560.332303399983	3
2	18962	15560.795465079268	2
2	18966	15561.769301398401	3
2	18967	15561.898942064719	2
2	18970	15562.966715532487	1
2	18974	15563.091809838516	2
2	18977	15563.90876881512	1
2	18980	15564.713534179648	0
2	19005	15575.467210246476	1
2	19006	15575.907377715003	0
2	19037	15606.913642369033	1
2	19038	15607.176296627505	0
2	19044	15608.014112610518	1
2	19045	15608.19795817787	0
2	19049	15608.830065099998	1
2	19050	15609.092592125369	0
2	19057	15610.138605283124	1
2	19058	15611.007145005541	0
2	19130	15657.436202078958	1
2	19131	15657.935831896618	0
2	19157	15681.7886220354	1
2	19159	15681.814786403468	2
2	19160	15682.046004254835	1
2	19163	15683.078617119601	0
2	19255	15777.49891452666	1
2	19256	15778.119206143094	0
2	19280	15816.682546301503	1
2	19281	15817.276192233067	0
2	19325	15829.689339580893	1
2	19326	15830.323236287942	0
2	19335	15831.450777245973	1
2	19336	15831.994352956766	0
2	19435	15903.037518692617	1
2	19436	15903.860410067137	0
2	19440	15904.283651622665	1
2	19441	15904.744648893155	0
2	19452	15908.784752774272	1
2	19453	15908.928323928479	0
2	19457	15909.08270213288	1
2	19459	15909.21117130606	2
2	19460	15909.958282885633	1
2	19466	15910.827706403586	2
2	19467	15911.014425330169	1
2	19470	15911.961532195962	0
2	19530	15971.186412204214	1
2	19532	15971.189968092836	2
2	19533	15971.616828763677	1
2	19536	15972.652785030944	0
2	19565	16003.094906862167	1
2	19566	16004.044871584721	0
2	19610	16045.096691555641	1
2	19611	16045.886831479912	0
2	19650	16081.003516109661	1
2	19651	16081.900095004368	0
2	19660	16083.175367572298	1
2	19661	16083.857037232429	0
2	19695	16114.94208310054	1
2	19696	16115.563928747389	0
2	19850	16250.618635517341	1
2	19851	16250.621287047523	0
2	19885	16276.640258136001	1
2	19886	16276.92521083099	0
2	19950	16356.091596972379	1
2	19951	16357.052650620645	0
2	19995	16379.204822133345	1
2	19996	16379.725495648045	0
2	20087	16467.164918831995	1
2	20088	16468.024519898762	0
2	20110	16495.633207413789	1
2	20111	16495.879790426055	0
2	20247	16653.662814454895	1
2	20248	16653.908539937006	0
2	20252	16654.624851774844	1
2	20253	16654.735456856655	0
2	20320	16702.165224551872	1
2	20321	16702.25795559275	0
2	20335	16709.717124164779	1
2	20336	16710.361356815562	0
2	20340	16711.298805753769	1
2	20341	16711.352384858724	0
2	20365	16726.294153621745	1
2	20366	16726.565435209933	0
2	20400	16745.43110182734	1
2	20401	16745.855965873769	0
2	20445	16782.726238318968	1
2	20448	16783.861976006378	0
2	20460	16792.072196628561	1
2	20461	16792.83067826078	0
2	20470	16796.553856163278	1
2	20471	16796.828761144871	0
2	20485	16800.118785857976	1
2	20487	16800.330847556763	2
2	20488	16800.969655050208	1
2	20491	16802.040642514044	0
2	20510	16807.133026813928	1
2	20511	16807.873460852174	0
2	20520	16814.714695490254	1
2	20521	16815.047782027443	0
2	20555	16839.063283328087	1
2	20558	16839.900713521583	0
2	20610	16856.201984023124	1
2	20611	16856.7848299034	0
2	20652	16890.488042791557	1
2	20653	16890.927865346323	0
2	20660	16892.315651790085	1
2	20661	16892.96553963077	0
2	20755	17018.180842629456	1
2	20756	17018.706948217949	0
2	20805	17065.258402212639	1
2	20806	17066.328576861637	0
2	20810	17066.715214442999	1
2	20811	17067.448236857018	0
2	20827	17106.946637407364	1
2	20828	17107.067747313459	0
2	20895	17186.040461257134	1
2	20896	17186.682226431337	0
2	20910	17199.891506140434	1
2	20911	17200.873487821835	0
2	20925	17203.690853346525	1
2	20927	17203.871502446254	2
2	20928	17204.349331781746	1
2	20932	17204.460685248258	2
2	20934	17204.614675994508	3
2	20935	17205.242863696733	2
2	20938	17206.139919252613	1
2	20944	17206.669980487731	2
2	20945	17207.225570468617	1
2	20948	17208.251570471947	0
2	20952	17208.46657335551	1
2	20954	17208.525606669557	2
2	20955	17209.233776676853	1
2	20958	17210.200949486357	0
2	20962	17210.243524157541	1
2	20963	17211.1425794894	0
2	21035	17275.697352163529	1
2	21036	17276.160228647835	0
2	21120	17369.368217868733	1
2	21121	17369.702153487595	0
2	21205	17468.271164667129	1
2	21206	17468.856875678624	0
2	21230	17479.546316022178	1
2	21231	17480.549887151215	0
2	21265	17516.769297030586	1
2	21266	17516.878734809513	0
2	21270	17517.594259908395	1
2	21271	17517.84211353043	0
2	21280	17519.613666623124	1
2	21281	17520.492731834908	0
2	21285	17520.502924522034	1
2	21286	17521.516093390767	0
2	21295	17523.854399472106	1
2	21296	17523.992355186645	0
2	21310	17529.65857534034	1
2	21311	17529.798125809668	0
2	21480	17715.388880084228	1
2	21481	17716.211092415556	0
2	21520	17757.027285038612	1
2	21521	17757.477978475841	0
2	21525	17758.248572139091	1
2	21526	17758.593255742157	0
2	21555	17774.448687687947	1
2	21556	17774.830302978493	0
2	21585	17802.314755804049	1
2	21586	17802.76132984819	0
2	21605	17814.444264685826	1
2	21607	17815.189592875985	2
2	21608	17815.387592078899	1
2	21611	17816.310173574057	0
2	21645	17861.102565661556	1
2	21648	17861.625990051256	0
2	21675	17874.471959483053	1
2	21676	17875.362167706267	0
2	21685	17877.191194945958	1
2	21686	17877.904437959882	0
2	21690	17878.078553010444	1
2	21691	17878.908930402937	0
2	21695	17879.20867701926	1
2	21699	17879.598137019398	2
2	21700	17880.085726136098	1
2	21703	17880.958811904619	0
2	21745	17911.295546764957	1
2	21746	17911.984622655486	0
2	21750	17912.696319340251	1
2	21751	17913.080577456163	0
2	21770	17927.128564355938	1
2	21771	17928.238481593945	0
2	21800	17946.592521585923	1
2	21803	17947.616914987235	0
2	21807	17947.912891809076	1
2	21808	17948.738650776024	0
2	21830	17955.825730724153	1
2	21831	17955.834143405771	0
2	21855	17993.872313843929	1
2	21856	17993.92158897837	0
2	21865	18008.712766001742	1
2	21866	18009.044660507875	0
2	21975	18135.40545596943	1
2	21978	18135.787666390166	0
2	21985	18137.512985562157	1
2	21986	18137.86669407392	0
2	22015	18167.254903869677	1
2	22016	18167.282778417938	0
2	22024	18168.268187290605	1
2	22025	18168.292114180852	0
2	22029	18168.737834775457	1
2	22030	18169.348161380146	0
2	22040	18172.198191792728	1
2	22041	18172.641241869484	0
2	22045	18173.177933952028	1
2	22046	18173.515470971134	0
2	22055	18174.799851069346	1
2	22056	18175.457584713796	0
2	22060	18175.985068326201	1
2	22061	18176.289924130333	0
2	22082	18182.164400536139	1
2	22083	18182.744766162351	0
2	22140	18223.025228937291	1
2	22141	18223.471539532306	0
2	22145	18223.572826913147	1
2	22146	18224.511874453916	0
2	22160	18231.85455760206	1
2	22161	18232.219523709437	0
2	22165	18232.771865315043	1
2	22166	18233.238466910349	0
2	22215	18254.418077256703	1
2	22216	18255.101561101088	0
2	22320	18345.762204699832	1
2	22321	18345.874959663783	0
2	22335	18351.361826973567	1
2	22336	18351.8369783246	0
2	22390	18419.318286025818	1
2	22391	18419.972161458462	0
2	22425	18435.666490389871	1
2	22426	18435.990451333488	0
2	22452	18453.141259269767	1
2	22453	18454.020753853295	0
2	22520	18536.38670782462	1
2	22521	18536.770679923564	0
2	22530	18537.848761640084	1
2	22532	18537.958902848262	2
2	22533	18538.699072834055	1
2	22536	18539.753063505094	0
2	22565	18578.513067048265	1
2	22566	18578.594332631981	0
2	22570	18579.208175644894	1
2	22571	18579.567195462553	0
2	22575	18579.830990351518	1
2	22576	18580.42820598886	0
2	22595	18609.480409881923	1
2	22596	18610.283603082809	0
2	22605	18612.870043613287	1
2	22606	18612.896627040092	0
2	22635	18635.886383999936	1
2	22637	18636.353717567391	2
2	22638	18636.406366266025	1
2	22641	18637.422212408291	0
2	22650	18639.233683983278	1
2	22651	18639.450444392482	0
2	22655	18639.970084745038	1
2	22656	18640.60069409599	0
2	22660	18641.395116572094	1
2	22661	18641.61635713465	0
2	22665	18642.712997595529	1
2	22666	18642.787755669555	0
2	22710	18676.013690432257	1
2	22711	18677.047793945001	0
2	22760	18709.519104208755	1
2	22762	18710.004033328735	2
2	22763	18710.045279199379	1
2	22766	18710.9760159449	0
2	22795	18736.316483004927	1
2	22796	18736.520535684631	0
2	22835	18777.452069814185	1
2	22836	18778.026842038813	0
2	22855	18798.589420234858	1
2	22856	18799.690457326477	0
2	22895	18822.365669020018	1
2	22896	18822.909675962148	0
2	22970	18871.819798430679	1
2	22971	18872.41794775464	0
2	22975	18873.033600002379	1
2	22976	18873.367818279661	0
2	22990	18878.105108300852	1
2	22991	18878.96315313798	0
2	23015	18893.49650956818	1
2	23016	18894.384766459344	0
2	23090	18992.506309407681	1
2	23091	18993.07095135621	0
2	23120	19002.44232535731	1
2	23121	19002.616744096927	0
2	23225	19124.148194665759	1
2	23226	19124.813172179966	0
2	23240	19130.794582840988	1
2	23241	19130.943732236423	0
2	23300	19167.810077551527	1
2	23301	19168.733359218857	0
2	23305	19168.736689491579	1
2	23306	19169.850072961583	0
2	23375	19260.764223455696	1
2	23376	19260.843654832424	0
2	23380	19261.231746710248	1
2	23381	19261.967753857927	0
2	23390	19265.608566651626	1
2	23391	19265.841792820294	0
2	23420	19302.672458708394	1
2	23421	19302.864512514057	0
2	23427	19303.940731682761	1
2	23428	19303.954856260693	0
2	23465	19314.566669717823	1
2	23466	19315.042681089762	0
2	23470	19315.124021417098	1
2	23471	19316.034147636193	0
2	23500	19333.17419907053	1
2	23503	19334.233868615368	0
2	23507	19334.891151174884	1
2	23508	19335.233614771386	0
2	23560	19379.329314771687	1
2	23561	19379.962561693398	0
2	23620	19433.288741380944	1
2	23621	19433.554421770306	0
2	23635	19441.756158850904	1
2	23637	19442.236615843549	2
2	23638	19442.39919326163	1
2	23642	19442.950758741065	2
2	23645	19443.260515620533	1
2	23649	19443.661211130406	2
2	23652	19444.219859174892	1
2	23655	19445.252668399896	0
2	23700	19462.628652774873	1
2	23701	19463.241901920874	0
2	23785	19521.66924620873	1
2	23786	19522.126880366752	0
2	23805	19528.273173536539	1
2	23807	19528.75938318753	2
2	23808	19529.116324714678	1
2	23811	19530.104608732382	0
2	23815	19530.280666243825	1
2	23819	19531.080437702445	2
2	23820	19531.161947547099	1
2	23823	19532.190031401454	0
2	23827	19532.50498690105	1
2	23828	19533.061090540434	0
2	23882	19548.88394799737	1
2	23883	19549.139968680011	0
2	23887	19550.128703063935	1
2	23888	19550.260999141427	0
2	23892	19550.322952868289	1
2	23893	19551.145733496061	0
2	23915	19570.881314958218	1
2	23916	19571.790425969418	0
2	23920	19572.171384698248	1
2	23921	19572.769356830269	0
2	23965	19601.060509087636	1
2	23967	19601.291040557019	2
2	23968	19601.887883223663	1
2	23971	19602.7964524796	0
2	23990	19611.577080710038	1
2	23991	19612.494498682358	0
2	24020	19652.861721937539	1
2	24021	19653.431254282036	0
2	24042	19664.085917763963	1
2	24043	19664.316573321164	0
2	24047	19664.804895559577	1
2	24050	19665.508830599018	0
2	24054	19665.671981203199	1
2	24055	19666.338942459409	0
2	24064	19668.444404137916	1
2	24065	19668.508639976473	0
2	24074	19669.954214524644	1
2	24075	19670.37234867485	0
2	24145	19737.366677735432	1
2	24146	19737.526245022168	0
2	24185	19786.080046349891	1
2	24186	19786.717788419796	0
2	24240	19821.5176879537	1
2	24241	19821.997709403792	0
2	24245	19822.592276544698	1
2	24246	19822.971004461171	0
2	24260	19835.826355119905	1
2	24261	19836.100368904927	0
2	24280	19851.656816288813	1
2	24281	19851.904280030056	0
2	24290	19852.860097678266	1
2	24291	19853.764229685422	0
2	24340	19882.25593854446	1
2	24341	19883.025541306689	0
2	24380	19945.923110185841	1
2	24384	19946.256066600258	2
2	24385	19946.867519717923	1
2	24388	19947.977360824569	0
2	24392	19948.499498449957	1
2	24393	19949.148123005385	0
2	24420	19978.93965598328	1
2	24421	19979.353023517269	0
2	24445	19987.965507554993	1
2	24446	19988.232334756037	0
2	24590	20157.950199371397	1
2	24591	20158.891245381565	0
2	24830	20352.445786323785	1
2	24831	20352.940892806612	0
2	24845	20369.902701821884	1
2	24846	20370.043281179275	0
2	24870	20413.034126479694	1
2	24871	20413.447715112327	0
2	24900	20447.285276697532	1
2	24901	20447.823605411652	0
2	24925	20463.116231006137	1
2	24926	20463.655550704743	0
2	24955	20480.76746974673	1
2	24956	20481.104503918489	0
2	25000	20518.498963154091	1
2	25001	20518.708273739627	0
2	25005	20519.332558532845	1
2	25006	20519.647847089803	0
2	25010	20519.718850467483	1
2	25012	20520.39654270709	2
2	25013	20520.478754559139	1
2	25016	20521.327745836394	0
2	25030	20528.488478444303	1
2	25031	20528.99581554501	0
2	25147	20618.530656087348	1
2	25148	20618.787763873096	0
2	25195	20635.824187574729	1
2	25196	20636.117043677524	0
2	25445	20898.094500577107	1
2	25446	20898.213907344621	0
2	25460	20904.655911128081	1
2	25461	20904.767420000958	0
2	25480	20908.561134158548	1
2	25481	20909.00859498	0
2	25485	20909.85593376506	1
2	25486	20909.973637295889	0
2	25520	20924.218110303203	1
2	25522	20924.33825570106	2
2	25523	20924.723545605954	1
2	25526	20925.787862476319	0
2	25580	20977.684427581974	1
2	25581	20978.2143644777	0
2	25615	21010.601227069346	1
2	25616	21011.156304266135	0
2	25645	21036.991575246025	1
2	25646	21037.976843147056	0
2	25660	21053.025569129988	1
2	25661	21053.305136199761	0
2	25705	21091.777015454083	1
2	25706	21092.069441801892	0
2	25712	21092.634825773745	1
2	25713	21093.139859092352	0
2	25835	21182.194714928027	1
2	25836	21183.211829897725	0
2	25860	21205.596414227889	1
2	25861	21205.883729839387	0
2	25875	21210.700260824075	1
2	25876	21210.849476433407	0
2	25882	21211.428917460764	1
2	25883	21211.854456458382	0
2	26030	21317.297331335175	1
2	26031	21317.529188776182	0
2	26045	21319.925899042299	1
2	26046	21320.45052146211	0
2	26075	21330.436307484694	1
2	26076	21331.214600097543	0
2	26085	21335.212684468337	1
2	26088	21335.944556313129	0
2	26150	21377.70965838549	1
2	26151	21378.200632126442	0
2	26170	21410.659867130742	1
2	26171	21411.533379144161	0
2	26190	21422.928270797586	1
2	26191	21423.567408396069	0
2	26320	21519.655553444467	1
2	26321	21520.085054928674	0
2	26460	21626.120826775857	1
2	26461	21626.482194945435	0
2	26525	21672.903756746324	1
2	26526	21673.136822450663	0
2	26560	21696.21590992351	1
2	26563	21697.021495169267	0
2	26572	21698.948446133247	1
2	26573	21699.171220746782	0
2	26577	21699.234076616531	1
2	26578	21700.067491865304	0
2	26625	21728.959025169422	1
2	26626	21729.041136383847	0
2	26632	21729.317943682252	1
2	26633	21730.05989308136	0
2	26637	21730.326251890869	1
2	26639	21730.813603377517	2
2	26640	21731.059221570589	1
2	26643	21732.213643285282	0
2	26665	21748.788129429869	1
2	26666	21749.244924392439	0
2	26707	21780.557746691665	1
2	26708	21780.780705802757	0
2	26732	21788.543149447865	1
2	26734	21788.91086931349	2
2	26735	21788.922835566218	1
2	26738	21789.983054840959	0
2	26755	21795.210120824447	1
2	26756	21795.627692023171	0
2	26850	21870.713617193864	1
2	26851	21870.798849251909	0
2	26925	21921.804916488677	1
2	26926	21922.434086429009	0
2	26967	21951.712499214855	1
2	26968	21951.831866576181	0
2	27025	22023.91124844612	1
2	27026	22024.435769147453	0
2	27035	22027.00564577464	1
2	27036	22027.785327626478	0
2	27085	22082.863311436941	1
2	27086	22083.367735883146	0
2	27130	22135.246918319896	1
2	27131	22136.082106664432	0
2	27170	22154.570731626161	1
2	27171	22154.994560093405	0
2	27190	22159.734825866981	1
2	27193	22159.981202756648	0
2	27200	22161.35441434725	1
2	27201	22162.268311993719	0
2	27295	22241.003320123562	1
2	27296	22241.439782741576	0
2	27345	22294.11734927692	1
2	27348	22294.71419569516	0
2	27360	22296.799100111406	1
2	27364	22297.709595296449	2
2	27365	22297.735364003679	1
2	27368	22298.874048521662	0
2	27375	22300.076623860175	1
2	27376	22300.623900712667	0
2	27395	22304.74024316826	1
2	27396	22305.366523759988	0
2	27400	22305.604277377455	1
2	27401	22306.353923510284	0
2	27410	22309.191162060428	1
2	27411	22309.278490021172	0
2	27610	22504.906075359697	1
2	27611	22505.688829956122	0
2	27620	22512.761185084974	1
2	27621	22513.750040670255	0
2	27635	22522.163884512161	1
2	27636	22522.276105617446	0
2	27640	22522.613372566038	1
2	27641	22523.327857688715	0
2	27645	22524.100564132639	1
2	27646	22524.29540962092	0
2	27660	22529.200970010513	1
2	27661	22529.212617429895	0
2	27685	22541.52684519567	1
2	27686	22541.918943634292	0
2	27760	22624.874436556015	1
2	27761	22625.523788220688	0
2	27775	22628.532785562658	1
2	27776	22628.844426478482	0
2	27785	22630.016806437405	1
2	27786	22630.649840805606	0
2	27864	22700.489438926564	1
2	27865	22700.665030435943	0
2	27880	22706.180783228082	1
2	27881	22706.841368412616	0
2	27910	22714.476993483452	1
2	27911	22715.224202757635	0
2	28005	22804.482611243145	1
2	28006	22805.185223170656	0
2	28020	22810.770795752314	1
2	28021	22811.155669268706	0
2	28040	22820.294151808986	1
2	28041	22821.069608595086	0
2	28045	22821.751070320582	1
2	28046	22822.138618869757	0
2	28050	22822.231087123518	1
2	28051	22822.940729420868	0
2	28075	22829.238631725189	1
2	28077	22829.318610535925	2
2	28078	22829.869755060311	1
2	28082	22830.196687151118	2
2	28083	22830.77758773043	1
2	28087	22831.345833789865	2
2	28088	22831.880692395095	1
2	28091	22833.058029585045	0
2	28095	22833.80256008481	1
2	28099	22834.042989667971	2
2	28100	22834.251232728169	1
2	28104	22835.001724052118	2
2	28105	22835.405740289476	1
2	28108	22836.572561831206	0
2	28265	23005.447695715332	1
2	28266	23006.500221501137	0
2	28390	23132.387618591196	1
2	28391	23132.829113568312	0
2	28420	23151.64847059808	1
2	28421	23152.0968133201	0
2	28465	23213.784368579212	1
2	28466	23214.213587044529	0
2	28540	23307.117313593526	1
2	28541	23307.588281684301	0
2	28550	23318.407166909762	1
2	28551	23319.552395842016	0
2	28582	23335.524038640046	1
2	28583	23335.623487032412	0
2	28610	23352.075056221734	1
2	28611	23353.036959836978	0
2	28615	23353.498280608384	1
2	28616	23353.917799155388	0
2	28650	23368.530581483814	1
2	28651	23368.536451393319	0
2	28670	23391.771890081661	1
2	28671	23391.80041146574	0
2	28705	23417.043852391702	1
2	28706	23417.20657195966	0
2	28710	23417.418133210475	1
2	28711	23418.360670878321	0
2	28725	23423.647906119364	1
2	28726	23424.03737656547	0
2	28830	23524.86950018354	1
2	28831	23524.941398125013	0
2	28895	23555.990973505403	1
2	28897	23556.595898986095	2
2	28898	23556.748207054942	1
2	28901	23557.733002165242	0
2	28970	23625.071066739177	1
2	28971	23625.722909783343	0
2	28980	23628.072294777679	1
2	28983	23628.281206096962	0
2	29000	23636.013051912305	1
2	29001	23636.548340807996	0
2	29040	23673.143771452453	1
2	29041	23673.4779832983	0
2	29050	23675.067375758507	1
2	29053	23675.449385221357	0
2	29090	23690.640112906286	1
2	29091	23690.661161210469	0
2	29130	23728.618570065509	1
2	29131	23728.820243946013	0
2	29180	23782.894992632605	1
2	29181	23783.971861056083	0
2	29230	23829.522702194585	1
2	29231	23830.36941515945	0
2	29285	23874.919477515067	1
2	29286	23875.99253655283	0
2	29325	23906.295861416431	1
2	29327	23906.695675226142	2
2	29328	23907.116591230478	1
2	29333	23907.958431013092	0
2	29340	23909.49391372338	1
2	29341	23909.829596666689	0
2	29365	23933.743091615333	1
2	29366	23934.594438283965	0
2	29470	24024.335864672086	1
2	29471	24024.809654582795	0
2	29475	24024.926315866894	1
2	29476	24025.793506925497	0
2	29500	24060.141133294175	1
2	29501	24060.308187338867	0
2	29570	24149.615104469442	1
2	29571	24150.287625823173	0
2	29580	24165.688203324464	1
2	29581	24165.95053973676	0
2	29585	24166.229438152969	1
2	29586	24166.897084880185	0
2	29590	24167.132472463649	1
2	29591	24167.74506786003	0
2	29645	24220.981254654527	1
2	29646	24220.982517208422	0
2	29715	24256.098018186031	1
2	29716	24256.854712809887	0
2	29725	24259.83711384121	1
2	29726	24260.660850653512	0
2	29730	24261.090531530565	1
2	29731	24261.787279738107	0
2	29735	24261.918087034192	1
2	29736	24262.788839736109	0
2	29755	24266.846172675254	1
2	29756	24267.726007796253	0
2	29770	24271.559540757901	1
2	29771	24272.627784924224	0
2	29790	24282.163852817086	1
2	29791	24282.880988908553	0
2	29855	24380.333840359612	1
2	29856	24380.816218416144	0
2	29915	24418.635662286158	1
2	29916	24419.417401167709	0
2	30050	24527.712196501535	1
2	30051	24527.799267470158	0
2	30105	24553.956795207895	1
2	30106	24554.647465614847	0
2	30135	24567.458476054983	1
2	30136	24568.181887798895	0
2	30140	24568.673612286614	1
2	30141	24569.236934862145	0
2	30185	24594.569834829451	1
2	30187	24595.258288691774	2
2	30188	24595.690210633936	1
2	30193	24596.538248701698	0
2	30197	24596.579792642032	1
2	30198	24597.342202897488	0
2	30202	24597.363887185882	1
2	30203	24598.496896413087	0
2	30225	24618.577139731374	1
2	30226	24619.204587648407	0
2	30245	24627.941474083612	1
2	30246	24628.670837147684	0
2	30295	24694.823919595575	1
2	30296	24695.087907590371	0
2	30314	24699.554846312426	1
2	30315	24699.595329181704	0
2	30332	24702.787003579187	1
2	30333	24703.198518465313	0
2	30345	24713.213294426515	1
2	30346	24713.357484274834	0
2	30360	24727.273511719368	1
2	30361	24728.133486991468	0
2	30415	24782.137270793019	1
2	30416	24782.956631693356	0
2	30475	24832.847322063291	1
2	30476	24833.707651048059	0
2	30480	24833.886625244752	1
2	30483	24834.732214402033	0
2	30495	24841.252470330532	1
2	30496	24842.140248840428	0
2	30540	24876.565614458871	1
2	30541	24877.139549529471	0
2	30550	24878.085652708928	1
2	30551	24879.218484452767	0
2	30560	24880.99933752849	1
2	30561	24881.507364203469	0
2	30565	24882.407209209858	1
2	30566	24882.516902593584	0
2	30640	24961.373557514859	1
2	30641	24961.700259444453	0
2	30695	24998.606243314964	1
2	30696	24999.186966389283	0
2	30740	25031.750000657461	1
2	30741	25031.83855428797	0
2	30755	25035.717459230819	1
2	30756	25035.967261378054	0
2	30765	25039.388363446223	1
2	30766	25040.28148325694	0
2	30770	25040.46524027558	1
2	30771	25041.26559157449	0
2	30795	25057.919965681147	1
2	30796	25058.085793218999	0
2	30810	25080.400129149454	1
2	30811	25081.12325273234	0
2	30855	25139.519261014893	1
2	30856	25139.647100102049	0
2	30860	25139.799566489771	1
2	30861	25140.670087432288	0
2	30940	25186.288337534653	1
2	30941	25186.395469056401	0
2	30972	25199.471373271694	1
2	30973	25199.808846860038	0
2	31010	25211.10890322615	1
2	31011	25211.922001058129	0
2	31055	25235.614907454203	1
2	31056	25236.068030031094	0
2	31060	25236.165912273459	1
2	31062	25236.223692355721	2
2	31063	25237.218053862242	1
2	31066	25238.308078076107	0
2	31070	25238.373560001254	1
2	31071	25239.328018415229	0
2	31090	25267.427668305162	1
2	31092	25267.709661609515	2
2	31093	25268.102426208331	1
2	31098	25269.243362795709	0
2	31102	25270.091158024062	1
2	31103	25270.217554658706	0
2	31115	25285.316202039052	1
2	31116	25285.499121201271	0
2	31175	25335.224344260015	1
2	31177	25335.615002509381	2
2	31178	25335.72078618772	1
2	31182	25336.203989728702	2
2	31183	25336.581933087778	1
2	31187	25337.388025756393	2
2	31188	25337.485127629914	1
2	31191	25338.383520397839	0
2	31210	25353.991527778232	1
2	31211	25354.701391497619	0
2	31225	25373.241252328985	1
2	31226	25373.905719441551	0
2	31295	25437.293490377507	1
2	31298	25437.796300555653	0
2	31340	25455.610755708145	1
2	31341	25456.367846385729	0
2	31362	25464.881437971118	1
2	31363	25465.279993830269	0
2	31370	25466.419728517904	1
2	31371	25467.355318230224	0
2	31390	25485.232183829499	1
2	31391	25485.77806088984	0
2	31442	25532.92884574046	1
2	31443	25533.217432389838	0
2	31452	25534.183610637269	1
2	31455	25535.227292519772	0
2	31470	25538.404151618528	1
2	31471	25539.124589600845	0
2	31485	25548.647020818986	1
2	31486	25549.540892936947	0
2	31615	25653.720690664864	1
2	31616	25654.170434442536	0
2	31650	25670.992048172356	1
2	31651	25671.4954532711	0
2	31685	25697.514455704425	1
2	31686	25697.937156932066	0
2	31690	25697.951318139368	1
2	31693	25698.772633461012	0
2	31745	25738.718047579045	1
2	31748	25739.532270838489	0
2	31752	25739.702600113511	1
2	31755	25740.334624205233	0
2	31759	25740.818038478573	1
2	31760	25741.382036585157	0
2	31764	25741.955501068811	1
2	31765	25742.342819539533	0
2	31790	25750.201469057626	1
2	31791	25750.832782086739	0
2	31795	25751.641174795049	1
2	31796	25751.98251586697	0
2	31800	25752.508703160158	1
2	31801	25752.832027903674	0
2	31810	25777.380923301357	1
2	31811	25778.06147953713	0
2	31897	25850.440198733707	1
2	31898	25850.5269139371	0
2	31902	25851.137774442258	1
2	31903	25851.471843376488	0
2	31935	25877.880143888975	1
2	31936	25878.183974663044	0
2	31980	25901.979702747517	1
2	31981	25902.216618949203	0
2	31995	25913.321199121026	1
2	31997	25913.601144017162	2
2	31998	25914.353755758062	1
2	32001	25915.25050283923	0
2	32095	25977.350093155142	1
2	32096	25978.221554133983	0
2	32107	25982.587835480192	1
2	32108	25983.309155980738	0
2	32135	25997.493376638993	1
2	32136	25997.832319669946	0
2	32140	25998.102652992357	1
2	32141	25998.670707304924	0
2	32155	26002.209058239243	1
2	32156	26003.243660440678	0
2	32165	26005.273754140769	1
2	32166	26005.470851988756	0
2	32209	26033.921640260682	1
2	32210	26034.622071668879	0
2	32217	26035.703176864571	1
2	32218	26036.823806001712	0
2	32227	26038.072671618685	1
2	32229	26038.773644295403	2
2	32230	26039.03739434015	1
2	32233	26040.02099099597	0
2	32270	26095.604117999507	1
2	32271	26095.633453648615	0
2	32305	26126.971473328345	1
2	32306	26127.544251364972	0
2	32340	26151.165920245223	1
2	32341	26151.70360097765	0
2	32365	26181.300414145186	1
2	32366	26181.362767092511	0
2	32380	26191.997994501015	1
2	32381	26192.712935761115	0
2	32400	26205.716056665394	1
2	32401	26205.948569743025	0
2	32590	26359.596065075246	1
2	32591	26359.789139027057	0
2	32605	26374.626692342588	1
2	32606	26374.997240135261	0
2	32610	26375.958131642431	1
2	32611	26376.025275465102	0
2	32665	26424.216899767534	1
2	32667	26424.632501737521	2
2	32668	26425.297457893255	1
2	32671	26426.383894653122	0
2	32695	26445.169929019565	1
2	32696	26445.971594940865	0
2	32710	26453.615775871999	1
2	32711	26454.002925643534	0
2	32755	26539.980424122905	1
2	32756	26540.077380955803	0
2	32825	26626.019478222653	1
2	32826	26626.86367959784	0
2	32925	26748.699682683712	1
2	32926	26748.779096580758	0
2	32930	26748.873073079218	1
2	32931	26749.899158518478	0
2	32945	26759.469813164488	1
2	32946	26759.885274210087	0
2	33000	26782.632528649948	1
2	33001	26782.9731187709	0
2	33095	26848.293960961112	1
2	33096	26848.861754223759	0
2	33120	26858.219190855627	1
2	33121	26858.340898500288	0
2	33170	26895.217128679538	1
2	33171	26895.584568585833	0
2	33175	26895.891168760094	1
2	33176	26896.532670118572	0
2	33220	26964.784171611806	1
2	33221	26965.314842616539	0
2	33235	26971.333334513342	1
2	33236	26971.729238729955	0
2	33240	26972.064232081912	1
2	33241	26972.814107068752	0
2	33345	27087.676327103688	1
2	33346	27088.112506273671	0
2	33420	27146.699545530757	1
2	33421	27147.365936113003	0
2	33425	27147.733472903413	1
2	33426	27148.230721248913	0
2	33470	27190.689439335387	1
2	33471	27190.703561521204	0
2	33490	27201.883201706918	1
2	33491	27202.206575304338	0
2	33495	27202.565417810828	1
2	33496	27203.403184407925	0
2	33515	27212.352384138048	1
2	33516	27212.824396727996	0
2	33530	27216.402463381056	1
2	33531	27217.089279902597	0
2	33540	27229.198114786657	1
2	33541	27229.912427614455	0
2	33550	27231.271255528284	1
2	33551	27231.817429241174	0
2	33555	27231.879615048343	1
2	33556	27232.67810319933	0
2	33560	27233.242708417994	1
2	33561	27233.501150812589	0
2	33570	27237.239401987332	1
2	33571	27237.452373278655	0
2	33600	27261.2229415476	1
2	33601	27261.353658561473	0
2	33700	27325.518839405001	1
2	33701	27326.580430649931	0
2	33710	27328.692019927137	1
2	33711	27328.783412753449	0
2	33715	27329.768710316874	1
2	33716	27329.816458633294	0
2	33765	27370.750940452418	1
2	33766	27371.019220736148	0
2	33795	27383.684143498911	1
2	33796	27384.707099502511	0
2	33827	27423.825273079231	1
2	33828	27424.206945934529	0
2	33832	27424.268856885738	1
2	33834	27424.862277084241	2
2	33835	27425.101684858194	1
2	33838	27425.923258375293	0
2	33845	27427.935093614961	1
2	33846	27428.089227650232	0
2	33855	27430.877119681124	1
2	33856	27431.171233545277	0
2	33915	27498.753482520733	1
2	33916	27499.386420433138	0
2	33920	27500.011963418307	1
2	33921	27500.381197102469	0
2	33995	27545.845030511183	1
2	33996	27546.079129825215	0
2	34090	27598.318127135465	1
2	34091	27599.10750459553	0
2	34100	27600.836962067664	1
2	34101	27601.012386928957	0
2	34105	27601.545955099126	1
2	34107	27601.579034416974	2
2	34108	27602.155031841986	1
2	34111	27603.126918896094	0
2	34120	27613.298491177406	1
2	34121	27613.647745963342	0
2	34130	27615.333223800576	1
2	34133	27615.812957306735	0
2	34175	27637.662931318672	1
2	34176	27638.117112612798	0
2	34195	27644.702717542451	1
2	34196	27644.959296662407	0
2	34225	27667.718439271447	1
2	34226	27668.3959915263	0
2	34230	27669.071736880471	1
2	34231	27669.539709081443	0
2	34295	27737.178131184152	1
2	34298	27738.085490903565	0
2	34310	27740.233660926139	1
2	34313	27741.006093757533	0
2	34355	27761.76484012402	1
2	34356	27762.033071475773	0
2	34365	27764.983480614003	1
2	34366	27765.65084843101	0
2	34370	27765.837832192375	1
2	34371	27766.734520512037	0
2	34395	27785.216874674262	1
2	34397	27785.666434301756	2
2	34398	27785.881775012454	1
2	34401	27786.730529004736	0
2	34405	27787.19957663957	1
2	34406	27787.531084484263	0
2	34447	27834.628768636107	1
2	34448	27834.843386368681	0
2	34505	27900.419168849587	1
2	34506	27900.66570674646	0
2	34510	27901.156043938149	1
2	34511	27901.676845352252	0
2	34545	27922.994716924512	1
2	34547	27923.609720973135	2
2	34548	27923.835371432673	1
2	34551	27924.932399265501	0
2	34580	27961.236542208317	1
2	34581	27961.593921181374	0
2	34590	27963.075603885936	1
2	34592	27963.089414648983	2
2	34593	27963.456873537787	1
2	34600	27964.425260332134	0
2	34610	27966.903324436379	1
2	34611	27967.892303521839	0
2	34622	27970.060938666278	1
2	34623	27970.154835968465	0
2	34632	27971.935930372091	1
2	34633	27972.273200283293	0
2	34675	28020.813620767318	1
2	34676	28021.714792502575	0
2	34700	28039.190867967675	1
2	34701	28039.642704511539	0
2	34775	28102.357572611097	1
2	34776	28102.963963259433	0
2	34785	28105.561553626918	1
2	34786	28106.038081399912	0
2	34850	28225.841685856862	1
2	34853	28226.859086250517	0
2	34890	28255.090698648454	1
2	34891	28255.178635223742	0
2	34895	28255.465994203985	1
2	34896	28256.13763547537	0
2	34900	28256.746368789601	1
2	34901	28257.077167600739	0
2	34905	28257.19489433112	1
2	34906	28257.902457346088	0
2	34910	28257.94474082428	1
2	34911	28258.753610337126	0
2	35050	28365.983339305365	1
2	35051	28366.322066843224	0
2	35115	28419.818117073	1
2	35116	28420.849044121578	0
2	35130	28430.861266189969	1
2	35131	28431.692284345715	0
2	35140	28433.779028117281	1
2	35141	28434.768338258772	0
2	35170	28452.118984429339	1
2	35171	28452.306608445569	0
2	35225	28490.890409873753	1
2	35226	28491.124838127121	0
2	35340	28580.599586697276	1
2	35342	28581.219449993015	2
2	35343	28581.266622868283	1
2	35346	28582.078711153576	0
2	35350	28582.812851451191	1
2	35351	28583.165556340953	0
2	35360	28584.748969602418	1
2	35363	28585.290915301614	0
2	35367	28586.297570254746	1
2	35368	28586.334909604196	0
2	35385	28596.101238370266	1
2	35386	28596.828356328484	0
2	35415	28620.392025032581	1
2	35416	28621.320442249635	0
2	35420	28621.614312403706	1
2	35421	28622.13838553709	0
2	35440	28640.446038661162	1
2	35441	28641.347112457273	0
2	35460	28652.310297745035	1
2	35461	28652.551297326211	0
2	35500	28685.346864984682	1
2	35501	28685.710318349052	0
2	35515	28697.961212224315	1
2	35516	28698.351520671573	0
2	35600	28771.318104449716	1
2	35601	28771.642702546541	0
2	35685	28838.799081775144	1
2	35686	28839.122341102314	0
2	35700	28852.03339553719	1
2	35701	28852.947535006902	0
2	35830	28970.812854279744	1
2	35831	28971.004087622982	0
2	35865	28991.131482448148	1
2	35866	28991.649638988319	0
2	35895	29016.408542963448	1
2	35896	29016.834812324731	0
2	35920	29029.978049782964	1
2	35921	29030.997727608574	0
2	36000	29105.142168100046	1
2	36001	29105.566078796392	0
2	36020	29140.878336765324	1
2	36021	29141.211390200079	0
2	36030	29142.577750563708	1
2	36031	29142.892766472862	0
2	36040	29147.276087491815	1
2	36043	29147.730503978235	0
2	36105	29189.355835409209	1
2	36106	29190.441360500006	0
2	36110	29190.985553392664	1
2	36111	29191.53340968659	0
2	36160	29232.576044580909	1
2	36161	29232.672516283291	0
2	36170	29234.032772043552	1
2	36171	29234.405635971474	0
2	36190	29244.177325406248	1
2	36191	29244.662707906265	0
2	36252	29386.202681828992	1
2	36253	29386.504881878592	0
2	36270	29389.932313235092	1
2	36271	29390.836579004065	0
2	36290	29398.767386266281	1
2	36291	29399.267852945872	0
2	36325	29422.888954429226	1
2	36326	29423.236700793015	0
2	36330	29424.277245165723	1
2	36331	29424.286339757623	0
2	36335	29424.714090042027	1
2	36336	29425.117431805687	0
2	36360	29463.229202381739	1
2	36361	29464.182062983479	0
2	36380	29505.032197544041	1
2	36381	29505.118445479294	0
2	36385	29505.172175381841	1
2	36386	29505.959256882297	0
2	36395	29507.673669097684	1
2	36397	29507.804077361258	2
2	36398	29508.147353740752	1
2	36401	29509.101949202705	0
2	36430	29518.378968684456	1
2	36431	29519.245158653581	0
2	36515	29580.469469228859	1
2	36516	29580.996452108121	0
2	36585	29622.297606773683	1
2	36586	29622.548321692679	0
2	36595	29623.875908642336	1
2	36596	29624.567762055098	0
2	36607	29630.048026526443	1
2	36608	29630.389749424649	0
2	36695	29688.790514966436	1
2	36696	29689.402289396097	0
2	36720	29701.392306282054	1
2	36721	29702.312105275195	0
2	36750	29721.968086078826	1
2	36751	29722.785461969493	0
2	36780	29743.254344889355	1
2	36781	29743.555352233763	0
2	36815	29766.939912740723	1
2	36816	29767.754412988717	0
2	36820	29767.764044821237	1
2	36821	29768.570071274651	0
2	36965	29937.830051836256	1
2	36966	29937.956092236799	0
2	37040	29993.817081871817	1
2	37041	29994.187451430136	0
2	37045	29994.250947094597	1
2	37046	29995.078485727129	0
2	37055	29996.199007794176	1
2	37056	29997.033457192252	0
3	0	0	0
3	10	26.232593176661	1
3	16	27.891967105698	0
3	435	434.589737050257	1
3	436	435.234103484226	0
3	495	494.713213682907	1
3	496	494.953766497514	0
3	505	502.142149254848	1
3	506	502.425853611248	0
3	512	502.653166923602	1
3	516	504.39330070177	0
3	565	547.415490455125	1
3	566	548.042616594575	0
3	790	736.202781025646	1
3	791	736.373348442573	0
3	795	737.212402619062	1
3	796	737.266696222607	0
3	840	755.563762556022	1
3	841	756.661723704719	0
3	870	771.396477043201	1
3	871	772.345806584397	0
3	890	794.085786722477	1
3	891	795.137892950771	0
3	950	832.728522068997	1
3	951	832.964791498257	0
3	1015	896.569348000662	1
3	1021	898.500263366747	0
3	1030	899.999628190866	1
3	1031	900.715122935447	0
3	1122	966.936007347701	1
3	1141	971.703124366892	0
3	1177	999.710604745828	1
3	1179	1000.156588753026	2
3	1188	1002.536024953694	1
3	1201	1005.793697173418	0
3	1245	1053.512759455815	1
3	1246	1053.896399291219	0
3	1370	1162.441079625952	1
3	1371	1162.93801460603	0
3	1390	1171.781295130227	1
3	1391	1171.901949231463	0
3	1445	1219.581509596542	1
3	1446	1220.162049283598	0
3	1455	1221.369750759044	1
3	1456	1222.012111912526	0
3	1465	1230.680168253136	1
3	1466	1230.689073333396	0
3	1477	1231.865975791127	1
3	1481	1233.952516164789	0
3	1565	1306.537467444898	1
3	1566	1306.73314713919	0
3	1570	1307.74306163824	1
3	1571	1307.835017763725	0
3	1580	1312.466883110426	1
3	1581	1312.616699045794	0
3	1607	1340.247776461654	1
3	1611	1341.423232511777	0
3	1740	1438.628217595535	1
3	1742	1439.24694573544	2
3	1743	1439.531876314603	1
3	1746	1440.698180798985	0
3	1760	1444.77788175864	1
3	1762	1444.863469960845	2
3	1763	1445.028660833699	1
3	1767	1445.627382176819	2
3	1768	1445.929151976717	1
3	1777	1447.322632388394	2
3	1778	1447.875694393603	1
3	1781	1449.047937658666	0
3	1790	1450.499956743522	1
3	1791	1451.271920816755	0
3	1825	1481.395006649566	1
3	1826	1481.736616865477	0
3	1830	1482.004393436227	1
3	1831	1482.885483109044	0
3	1865	1504.657762883876	1
3	1866	1504.706558043612	0
3	1950	1612.824281028201	1
3	1951	1613.287354783914	0
3	2035	1678.704077948611	1
3	2036	1679.435806894252	0
3	2067	1689.623268398502	1
3	2076	1692.038261635739	0
3	2100	1706.808302893549	1
3	2102	1707.325798063889	2
3	2103	1707.613716826609	1
3	2106	1708.44440696819	0
3	2135	1724.81863176062	1
3	2136	1725.180045921522	0
3	2150	1728.524383019113	1
3	2151	1729.04680770226	0
3	2165	1733.939290350465	1
3	2166	1734.325587136674	0
3	2310	1877.965684637479	1
3	2311	1878.505610876328	0
3	2367	1918.774388802741	1
3	2371	1919.93078438247	0
3	2405	1947.425183992308	1
3	2406	1948.376357358039	0
3	2410	1948.723026423677	1
3	2411	1949.534208495726	0
3	2535	2102.756864316852	1
3	2536	2103.20242836351	0
3	2595	2138.608487073258	1
3	2596	2139.247980921851	0
3	2605	2140.768902000161	1
3	2621	2144.736194597507	0
3	2740	2230.946621047713	1
3	2746	2232.61542282135	0
3	2750	2233.42919037775	1
3	2751	2233.613629171837	0
3	2755	2234.439684848024	1
3	2756	2234.608559568066	0
3	2885	2353.44371599131	1
3	2886	2353.949000070465	0
3	2910	2411.187476226403	1
3	2911	2411.211246830963	0
3	2965	2474.017290144312	1
3	2966	2474.026194332169	0
3	3075	2546.947593340142	1
3	3077	2547.025006216178	2
3	3079	2547.316755799477	3
3	3080	2547.574603376887	2
3	3083	2548.494559755991	1
3	3086	2549.445163519191	0
3	3132	2571.206377616015	1
3	3136	2572.835974182455	0
3	3155	2585.596381394419	1
3	3156	2585.772074186279	0
3	3195	2607.575039289848	1
3	3196	2608.060544212536	0
3	3220	2635.514556613072	1
3	3221	2636.405133328874	0
3	3360	2731.674678374831	1
3	3361	2732.342027150948	0
3	3380	2753.338985253785	1
3	3381	2753.904548605243	0
3	3490	2869.038751592666	1
3	3491	2869.170216926894	0
3	3615	2960.261431366131	1
3	3616	2960.435188315878	0
3	3695	3043.625106506561	1
3	3696	3044.250427848604	0
3	3720	3067.394791387838	1
3	3721	3067.751022247046	0
3	3735	3071.216010714732	1
3	3736	3072.223015811194	0
3	3740	3072.263572123623	1
3	3742	3072.785164367909	2
3	3743	3073.113868442357	1
3	3746	3074.224187010799	0
3	3780	3104.467707092092	1
3	3781	3105.317753767644	0
3	3795	3108.018709170313	1
3	3796	3108.456342415655	0
3	3810	3125.703697738838	1
3	3819	3126.441737645718	2
3	3821	3126.712485066065	3
3	3825	3128.413482768306	2
3	3828	3129.293693025255	1
3	3831	3130.405168488839	0
3	3862	3156.370073978492	1
3	3866	3157.630032473744	0
3	3945	3222.717087216436	1
3	3946	3223.10355616659	0
3	3975	3236.608785134984	1
3	3976	3236.876213410609	0
3	4040	3264.269459565414	1
3	4041	3265.028095166678	0
3	4070	3298.837527820353	1
3	4071	3299.628602371706	0
3	4120	3356.713065352056	1
3	4121	3357.430803101982	0
3	4125	3357.965245538913	1
3	4126	3358.448558235082	0
3	4215	3405.977668422864	1
3	4216	3406.2773842679	0
3	4385	3595.979995043887	1
3	4386	3596.172720713394	0
3	4420	3630.031027577345	1
3	4421	3630.48629074478	0
3	4485	3677.945403174064	1
3	4486	3678.678126792968	0
3	4520	3727.809401878547	1
3	4521	3728.568892156096	0
3	4630	3878.704700550747	1
3	4632	3879.252128362621	2
3	4633	3879.343136433061	1
3	4636	3880.509435378216	0
3	4655	3927.553979690477	1
3	4656	3928.391243797509	0
3	4725	3974.905307287739	1
3	4726	3975.435202401113	0
3	4785	4027.404772338728	1
3	4786	4027.947672208552	0
3	4815	4054.367837756505	1
3	4816	4054.891680309608	0
3	4905	4126.737587413738	1
3	4906	4127.258548405075	0
3	4925	4139.868934532209	1
3	4926	4140.15977210591	0
3	4950	4145.336738933353	1
3	4951	4145.943303651589	0
3	5015	4249.119848845138	1
3	5016	4250.029985338464	0
3	5035	4262.48253544702	1
3	5036	4262.550232092338	0
3	5095	4302.762387876466	1
3	5096	4302.820061057652	0
3	5145	4335.560880253779	1
3	5146	4336.274742149103	0
3	5160	4342.243212574846	1
3	5161	4343.037942185166	0
3	5174	4344.705514970272	1
3	5186	4347.75109696566	0
3	5330	4442.912481063549	1
3	5331	4443.813299906099	0
3	5335	4444.057869232837	1
3	5339	4444.553269178593	2
3	5343	4445.632344398773	1
3	5347	4445.74759766395	2
3	5353	4447.480983991861	1
3	5356	4448.604704742074	0
3	5515	4561.198580217148	1
3	5516	4562.32727432932	0
3	5550	4600.924580714842	1
3	5551	4601.032967254959	0
3	5565	4605.251513310011	1
3	5566	4605.815544396293	0
3	5755	4741.122548832002	1
3	5756	4741.323760388992	0
3	5840	4800.234592993809	1
3	5841	4801.023490308199	0
3	5855	4822.402883792011	1
3	5856	4823.291414997143	0
3	5950	4926.725505826442	1
3	5951	4927.375922819602	0
3	5955	4928.169258431929	1
3	5956	4928.408916252295	0
3	5965	4933.184899238118	1
3	5966	4933.693736895315	0
3	6000	4952.489527966201	1
3	6001	4952.935679739686	0
3	6010	4954.28214442731	1
3	6011	4954.776153308312	0
3	6042	4969.667244702425	1
3	6051	4972.06623757165	0
3	6060	4973.775922295161	1
3	6061	4974.013942624777	0
3	6140	5029.789943486522	1
3	6141	5030.119970205188	0
3	6395	5316.377522541226	1
3	6396	5316.752617154052	0
3	6430	5340.787644556517	1
3	6432	5341.187112209978	2
3	6433	5341.723670600792	1
3	6437	5341.877701769979	2
3	6438	5342.647433449952	1
3	6442	5342.76445974789	2
3	6443	5343.561746094162	1
3	6451	5345.569485365292	0
3	6462	5347.708747279051	1
3	6466	5349.488563779671	0
3	6475	5373.137856384756	1
3	6476	5373.718831831969	0
3	6512	5383.586817573551	1
3	6531	5387.894973369665	0
3	6540	5389.232674457894	1
3	6541	5389.844625231415	0
3	6575	5420.233409112121	1
3	6576	5420.316717648084	0
3	6580	5420.434935020972	1
3	6582	5421.090150415444	2
3	6583	5421.477159278604	1
3	6586	5422.353608905661	0
3	6600	5426.3906050837	1
3	6601	5426.571783020615	0
3	6610	5429.02190695082	1
3	6611	5429.778064927246	0
3	6615	5429.837229809573	1
3	6616	5430.851580269143	0
3	6620	5430.873577157473	1
3	6621	5432.042784899913	0
3	6630	5433.736767967955	1
3	6631	5434.001201643023	0
3	6637	5434.693226247222	1
3	6641	5435.930553606032	0
3	6650	5438.192955226849	1
3	6651	5438.529774523236	0
3	6715	5522.690404608258	1
3	6716	5523.639291647824	0
3	6855	5647.843046619854	1
3	6856	5648.306412662502	0
3	6880	5668.3690502375	1
3	6881	5668.730247932037	0
3	6885	5669.080362726283	1
3	6886	5669.766748766524	0
3	6960	5734.855434634559	1
3	6961	5735.098132783105	0
3	7000	5800.277532234705	1
3	7001	5800.656013085927	0
3	7005	5801.32987905005	1
3	7006	5801.826607987984	0
3	7090	5917.50644155081	1
3	7091	5917.628674073197	0
3	7145	5936.39582269196	1
3	7146	5937.266335578323	0
3	7150	5937.524146286142	1
3	7151	5938.101219692514	0
3	7300	6070.025412159279	1
3	7301	6070.526369395688	0
3	7335	6116.497181333296	1
3	7336	6116.774869702308	0
3	7410	6173.561397817519	1
3	7411	6173.999129657731	0
3	7415	6174.585010482791	1
3	7416	6174.987253550072	0
3	7610	6345.463426759414	1
3	7611	6345.826918922851	0
3	7615	6346.173823889581	1
3	7616	6347.021820167659	0
3	7650	6390.718007411997	1
3	7651	6391.245628264607	0
3	7660	6392.628669635296	1
3	7661	6393.479159138971	0
3	7677	6396.947556335019	1
3	7681	6397.995622362658	0
3	7685	6398.231274558452	1
3	7692	6399.248742781153	2
3	7693	6399.993932608697	1
3	7696	6400.923699512515	0
3	7765	6440.057522470215	1
3	7766	6440.950731081286	0
3	7780	6459.445125490824	1
3	7781	6459.711894993323	0
3	7790	6467.905941341841	1
3	7791	6468.855452425334	0
3	7870	6540.122865817305	1
3	7871	6540.356929198526	0
3	7937	6588.884133065343	1
3	7941	6590.701118341231	0
3	8010	6674.111605799965	1
3	8011	6674.985435659412	0
3	8035	6693.512206091667	1
3	8036	6694.474465990894	0
3	8065	6723.43128254303	1
3	8066	6724.1441221024	0
3	8115	6764.238830575922	1
3	8121	6766.235108665797	0
3	8170	6797.094450767172	1
3	8171	6797.203196338944	0
3	8210	6851.061870871174	1
3	8211	6851.532271250989	0
3	8235	6864.907122639413	1
3	8236	6864.93397217691	0
3	8245	6867.123872788084	1
3	8251	6868.574429234013	0
3	8282	6876.066882599819	1
3	8286	6877.891703492517	0
3	8345	6922.14341206034	1
3	8347	6922.208058305775	2
3	8348	6922.425410480585	1
3	8351	6923.40650351017	0
3	8360	6925.606873484768	1
3	8361	6926.27374842552	0
3	8380	6932.23418140321	1
3	8381	6932.631393382099	0
3	8440	6973.717872102506	1
3	8441	6973.944030893212	0
3	8650	7195.894961886002	1
3	8651	7195.92550856885	0
3	8685	7217.535562865944	1
3	8686	7218.146505830754	0
3	8702	7222.484611802078	1
3	8706	7223.562819865186	0
3	8800	7326.060769605555	1
3	8801	7326.662469438482	0
3	8895	7468.783243395023	1
3	8896	7469.774889332924	0
3	8970	7523.38274472489	1
3	8971	7523.65176003108	0
3	9020	7567.786418533245	1
3	9021	7567.956989788791	0
3	9035	7585.430846630193	1
3	9036	7586.005900203621	0
3	9305	7840.085412408968	1
3	9306	7840.950408983959	0
3	9385	7892.246367261058	1
3	9386	7893.192750221634	0
3	9395	7895.170157037136	1
3	9396	7895.568774842085	0
3	9480	7944.237088311523	1
3	9481	7945.077915922311	0
3	9485	7945.361495720709	1
3	9486	7945.941614068617	0
3	9500	7966.952045297761	1
3	9501	7967.070386005204	0
3	9565	8043.440037708807	1
3	9566	8043.83513012588	0
3	9660	8128.096813512156	1
3	9661	8129.232486220559	0
3	9695	8170.813501000011	1
3	9696	8170.893556801134	0
3	9745	8204.130854645567	1
3	9746	8205.173393836751	0
3	9765	8217.175635042235	1
3	9766	8217.98543412248	0
3	9815	8240.039983872644	1
3	9816	8240.480553942444	0
3	9820	8240.750329841275	1
3	9821	8241.481839031344	0
3	9825	8241.836162545998	1
3	9827	8242.446901766403	2
3	9828	8242.586159105962	1
3	9831	8243.401107875435	0
3	9880	8319.470864837544	1
3	9881	8319.656910317662	0
3	9965	8402.559580643124	1
3	9966	8403.212060000461	0
3	10100	8599.771127733944	1
3	10101	8599.987743303387	0
3	10160	8641.341617195051	1
3	10161	8641.690997172778	0
[...]
6	29917	24419.417401167709	0.911099121533
6	29950	24449.168676195088	2.167034879388
6	29965	24477.579662767583	1.024456130527
6	29975	24484.879183451103	1.624896530193
6	29980	24487.260771282113	1.003666797094
6	29987	24489.246324601477	1.065559159406
6	29995	24491.700496351783	3.387517574669
6	30010	24509.339858743077	1.202443281665
6	30037	24520.742276959362	4.138334907688
6	30040	24521.709944154377	1.456254451042
6	30052	24527.799267470158	1.215662355265
6	30080	24535.674165617219	1.830804380905
6	30085	24538.738834484217	1.132926976215
6	30090	24540.997289938228	12.94772218963
6	30107	24554.647465614847	1.964815518408
6	30130	24566.434073266806	1.422778360012
6	30152	24571.148176986769	1.665920670347
6	30155	24571.960707047254	1.928426910936
6	30165	24578.118945763926	0.994722569175
6	30189	24595.690210633936	1.554386740712
6	30212	24600.405477644901	3.926805397769
6	30217	24601.466912771228	1.785280411733
6	30220	24602.632524694155	1.785053669688
6	30227	24619.204587648407	0.976248818357
6	30247	24628.670837147684	2.635146874199
6	30265	24644.775081723768	1.147397737578
6	30275	24665.420542466385	1.016601603292
6	30280	24669.944419874602	0.908223159146
6	30297	24695.087907590371	1.095902908314
6	30326	24701.386445883981	2.617924422676
6	30329	24702.210831274877	3.308637270323
6	30334	24703.198518465313	3.234386151104
6	30340	24705.028272208984	4.005971567851
6	30375	24751.344782904301	2.317229914442
6	30380	24762.652538803456	1.024413400702
6	30400	24772.726886035281	2.577346611785
6	30405	24777.290064657785	1.031017674226
6	30417	24782.956631693356	1.095613503549
6	30425	24793.426158164425	0.917638250161
6	30435	24804.605782244208	1.097455399856
6	30470	24832.250263103389	0.999140570965
6	30490	24836.78739935504	2.853921097107
6	30505	24846.99116832099	0.946600711811
6	30515	24857.853456573176	1.102981055062
6	30537	24876.080745135911	1.124008890614
6	30542	24877.139549529471	1.292067801426
6	30597	24908.367816512668	3.9673206769
6	30604	24909.448128321683	1.586002376372
6	30607	24910.382980049225	1.685338090307
6	30610	24911.370765082175	2.631369640095
6	30620	24928.936307565239	0.916523652244
6	30635	24953.538549321187	5.396205511925
6	30655	24970.472249643575	0.987272176612
6	30660	24972.93027457508	0.810285667423
6	30685	24992.920167907538	1.972262990078
6	30690	24996.710801460008	0.991403828654
6	30705	25001.268804053548	3.173233014159
6	30710	25004.31541610171	1.151376441307
6	30797	25058.085793218999	2.687774677278
6	30805	25075.971102205695	0.879584543034
6	30820	25083.409934669394	3.367402567342
6	30830	25090.134905181298	1.135106457956
6	30840	25122.946087446627	0.973487218935
6	30845	25132.192834544681	0.888713018037
6	30879	25148.127425510138	1.230494616905
6	30882	25149.315833360962	1.912476184286
6	30885	25150.432741943169	4.32516526049
6	30900	25161.744341026197	0.930892632902
6	30905	25166.239801561312	1.021603858657
6	30910	25168.405604478262	0.949804119859
6	30925	25178.074882981745	0.880809387192
6	30942	25186.395469056401	1.000095970184
6	30955	25194.922598326618	1.088858441729
6	30960	25196.730834702584	1.062582137156
6	30984	25201.659666096078	2.631472501423
6	30987	25202.579937908364	2.625127721375
6	30992	25203.598255076104	4.698233707062
6	31007	25210.771764552021	0.806039951276
6	31012	25211.922001058129	8.419257720828
6	31025	25216.919304878428	0.83259116821
6	31030	25219.631906347501	1.120090079214
6	31035	25222.115344736342	0.869256862067
6	31040	25228.319608052639	0.812708820868
6	31045	25230.800875881563	0.976457673218
6	31080	25262.725031009022	0.952339976653
6	31110	25272.337476918063	5.909219101913
6	31130	25310.566973674352	0.903802770562
6	31145	25320.138519665626	2.478134050284
6	31150	25325.133840658346	1.169660064019
6	31155	25326.98450040341	1.160724120494
6	31170	25333.826453901264	2.559972250211
6	31205	25346.00624021766	0.834824166354
6	31212	25354.701391497619	0.971120268852
6	31220	25358.715020199949	0.810722133238
6	31265	25396.779279439702	1.006898385286
6	31270	25402.272179356761	1.076460318267
6	31275	25419.700302397799	0.86503691189
6	31312	25441.754620458474	0.880135429837
6	31320	25443.929509546274	6.351669527002
6	31325	25446.755749376155	0.909758746438
6	31372	25467.355318230224	2.961890430489
6	31392	25485.77806088984	0.822143050283
6	31425	25508.023058641017	1.054439993203
6	31444	25533.217432389838	1.731557028074
6	31456	25535.227292519772	4.173002589867
6	31467	25538.269202055654	3.981097084482
6	31472	25539.124589600845	5.437799517014
6	31495	25551.89079549775	0.978555510286
6	31515	25566.673177331999	1.655280007866
6	31520	25568.287997424924	0.812172248401
6	31540	25588.046764389927	1.09189900849
6	31550	25605.315779847219	0.859206314478
6	31560	25633.794179528906	4.03635141922
6	31572	25636.697456680394	1.159459916037
6	31575	25637.607311408098	3.433210203274
6	31590	25646.341922754364	4.392585570066
6	31612	25653.01551786	4.792924446163
6	31617	25654.170434442536	2.035774871208
6	31630	25657.840224817884	6.855401057586
6	31640	25662.740034835387	1.225962335684
6	31645	25666.550562311578	0.994811694324
6	31652	25671.4954532711	0.936723450851
6	31670	25690.108276129591	1.410486194186
6	31687	25697.937156932066	1.229954726863
6	31700	25700.658450823194	6.510446748222
6	31710	25718.321938999983	1.038498670887
6	31720	25722.902958323759	6.750314687572
6	31749	25739.532270838489	1.098274754451
6	31772	25744.154529002105	9.308263257492
6	31780	25746.015337413718	1.009384543508
6	31785	25747.22731056887	7.233390131209
6	31812	25778.06147953713	1.038099105936
6	31840	25795.418478725237	0.945070206746
6	31857	25812.328746836977	0.818455521204
6	31860	25813.35323911828	1.03140653478
6	31880	25845.075903219433	1.160207343381
6	31885	25846.667151697722	1.086832586769
6	31910	25853.683423777029	3.515117833007
6	31945	25880.916452966076	4.131880835895
6	31957	25889.22492947341	0.917014092021
6	31960	25890.361025320227	1.406010837304
6	31965	25891.731843156077	1.086635309365
6	32010	25916.965663152758	1.513444800822
6	32015	25918.558625811682	1.165336509142
6	32030	25925.574803179095	0.869015413895
6	32047	25933.263302513738	1.787192781441
6	32052	25934.370393616301	3.181143496092
6	32055	25935.281579298866	1.016785971945
6	32065	25946.954118139346	0.931081851944
6	32109	25983.309155980738	1.174642695859
6	32115	25985.565493688694	3.055359166875
6	32137	25997.832319669946	4.32663294387
6	32157	26003.243660440678	1.493835685784
6	32167	26005.470851988756	0.901718949154
6	32180	26008.699124151491	1.843951781724
6	32200	26032.744438256438	1.207285489906
6	32219	26036.823806001712	3.049377458999
6	32231	26039.03739434015	8.236060101238
6	32240	26042.188620234281	4.685678090501
6	32245	26044.609759771521	1.04090239089
6	32250	26046.609681469019	0.922898579482
6	32260	26061.763307807845	0.958409712557
6	32285	26099.499874365181	9.211220744009
6	32295	26111.599940079113	0.996434892435
6	32300	26118.676238879282	1.098488477245
6	32307	26127.544251364972	0.852402122691
6	32320	26138.716237659692	1.190882551111
6	32327	26139.969937525668	4.009968470316
6	32332	26140.911297631708	0.978474821987
6	32335	26141.850844320168	1.03669009122
6	32350	26157.754803090839	0.858145614434
6	32360	26178.307363065754	1.094993824232
6	32367	26181.362767092511	0.921682362165
6	32375	26186.088818426919	0.87382892929
6	32382	26192.712935761115	1.015949784499
6	32390	26199.664649597309	1.132544598263
6	32395	26203.967443209645	0.840320827439
6	32402	26205.948569743025	1.01427025497
6	32410	26209.103981090053	0.885888838489
6	32415	26211.040729759605	0.910982498713
6	32425	26217.916348497757	0.802710867207
6	32430	26220.376421081048	4.863859829957
6	32437	26223.249694567031	1.030965745542
6	32440	26224.365838264811	1.794540878032
6	32445	26235.491904515578	1.094163340237
6	32475	26258.229694490427	0.848970578704
6	32505	26273.804148029503	0.824902620353
6	32540	26293.314633592945	1.025129856355
6	32550	26309.86677046195	1.038060385082
6	32560	26338.319842317596	0.926585888304
6	32580	26350.998382423016	0.907527944632
6	32592	26359.789139027057	1.521926410659
6	32630	26381.290729789522	3.322902732924
6	32635	26386.814899193312	0.859629984666
6	32645	26394.976641243204	2.16997666283
6	32655	26412.05624167923	0.850913877226
6	32697	26445.971594940865	1.736588245218
6	32720	26458.963655815732	1.089080055337
6	32745	26520.541265150841	1.159868514724
6	32770	26554.420124817364	2.814694059672
6	32785	26566.853743090756	0.960095804092
6	32790	26568.237238195496	1.197700615879
6	32800	26596.972893180804	1.18538163621
6	32805	26602.838512758273	0.913276974671
6	32810	26619.783314567355	0.857927702647
6	32835	26643.983078093028	0.913045863993
6	32845	26662.936308566464	1.294782067938
6	32862	26675.624427475903	1.585657000781
6	32865	26676.430530090567	2.928697809764
6	32875	26687.151342882338	3.418356350232
6	32895	26724.949659371087	2.936326997901
6	32912	26733.469667074794	1.179830012422
6	32915	26734.503068508266	1.467066508916
6	32940	26753.850226294677	0.861450164393
6	32980	26774.428452211149	1.1881749277
6	33010	26786.067529145128	0.987133427802
6	33020	26789.734099868666	0.929182517715
6	33025	26792.309562199758	0.937810798641
6	33037	26797.401380522469	0.871879557148
6	33040	26798.322697144108	1.337519886657
6	33050	26816.779501933756	0.939265254512
6	33060	26821.007393923756	1.061764009204
6	33080	26838.811304862795	0.942893711198
6	33085	26844.788484501362	1.132481130678
6	33150	26890.369859035967	1.13120537363
6	33165	26894.094437158602	0.873281474318
6	33172	26895.584568585833	1.04898752179
6	33187	26910.082153280546	1.060580751393
6	33190	26911.144724189025	2.052366623071
6	33205	26941.581180036174	1.133844320849
6	33215	26951.385090564382	1.440065265601
6	33222	26965.314842616539	1.030296443589
6	33250	26975.368723701379	0.87782282345
6	33267	26992.209985685372	2.292930516742
6	33270	26993.35049743338	2.017154978396
6	33275	26994.358688907686	0.838802561723
6	33305	27033.539422093828	1.930567074151
6	33310	27038.428121054499	0.94764034776
6	33315	27051.87764315711	1.148655160144
6	33320	27055.271448031385	1.098535442445
6	33330	27065.13689015899	0.874401568994
6	33365	27111.601872787098	0.891572089307
6	33370	27117.176601074823	1.013756124955
6	33375	27120.583831494057	0.94506305838
6	33380	27123.804987809891	0.868143331725
6	33400	27134.682060207943	0.860169825051
6	33415	27141.69003946213	1.824800686972
6	33440	27152.509182701054	0.820694422629
6	33455	27166.083959005337	1.146891920641
6	33460	27179.015157061903	0.886381996237
6	33480	27192.486301381676	1.004877883453
6	33505	27206.1437600951	4.779369519332
6	33517	27212.824396727996	1.771536534993
6	33525	27215.399276566928	0.81298441533
6	33532	27217.089279902597	1.095078104082
6	33590	27254.226548570597	1.191136491857
6	33610	27265.950868956269	1.12284203805
6	33615	27270.990837792467	1.101229595207
6	33642	27289.206386821593	1.109829718154
6	33645	27290.202010949484	1.091007182507
6	33655	27294.73551910105	1.104210098647
6	33682	27317.77804542272	5.742257529408
6	33685	27318.792423825288	3.640534485152
6	33702	27326.580430649931	1.659568042246
6	33730	27345.168967796958	0.875177419465
6	33745	27358.363295868721	0.862121039908
6	33750	27363.914422381941	1.111350786593
6	33760	27366.323012990397	0.822605649754
6	33797	27384.707099502511	1.999284418198
6	33810	27403.382617480224	1.078955409117
6	33815	27417.90008242949	0.962271310203
6	33847	27428.089227650232	4.543151117122
6	33865	27439.968804885201	0.921048656758
6	33900	27470.934143728409	2.256064253431
6	33905	27482.281936888102	0.828600160126
6	33910	27484.39830621279	0.865797374118
6	33917	27499.386420433138	1.129102105834
6	33930	27503.571367809032	1.070440096874
6	33947	27522.647667057699	0.957001954876
6	33952	27523.515054165831	1.666962181242
6	33960	27527.374587720004	4.119777887801
6	33970	27531.41760918135	0.832969413977
6	33980	27536.589763358761	1.218676094071
6	33985	27538.558029526909	0.836829893198
6	33990	27543.591639606245	0.855491799861
6	33997	27546.079129825215	0.937827622611
6	34027	27554.249237064268	3.204682977104
6	34030	27555.37870995374	5.703654439438
6	34035	27557.452834377128	1.134311277419
6	34047	27563.896947686218	1.31837610511
6	34050	27565.031856135588	1.153949028911
6	34055	27576.485508199911	0.948000721633
6	34077	27588.338592324729	0.906882635038
6	34080	27589.235476146496	1.03363172356
6	34102	27601.012386928957	3.048268706444
6	34147	27618.88784772937	6.165169054922
6	34150	27619.972944557358	4.407718468588
6	34165	27629.606537507421	0.879614205845
6	34192	27643.84690396362	1.18297744384
6	34197	27644.959296662407	1.863462477444
6	34215	27664.12879718342	0.852612804715
6	34220	27665.460318089404	0.952365754824
6	34240	27687.420288308382	1.117777254246
6	34275	27715.57508165645	4.942342306294
6	34322	27742.966978594036	5.455141356108
6	34325	27744.069516355199	4.911429741045
6	34330	27747.162453209858	0.961147609167
6	34335	27753.901401610473	0.894643377606
6	34340	27755.307358080052	1.011764717288
6	34345	27756.874481289554	1.17401200477
6	34357	27762.033071475773	1.010465996619
6	34399	27785.881775012454	1.017120544706
6	34430	27818.272711486722	1.376541088304
6	34449	27834.843386368681	1.105154059107
6	34455	27836.926574731473	4.149438851792
6	34475	27870.575086445622	0.968762396462
6	34500	27899.663920937894	1.139265463781
6	34549	27923.835371432673	0.994212046359
6	34560	27950.45742143999	1.14497545585
6	34565	27956.07394807749	0.887066542543
6	34577	27960.441611086112	1.683896538982
6	34594	27963.456873537787	4.516273911422
6	34607	27966.693200663664	3.154717137843
6	34634	27972.273200283293	8.377126318759
6	34640	27974.322403644119	5.739938154413
6	34645	27977.695356058475	1.037844226882
6	34660	28004.341044795189	1.175453957915
6	34665	28013.297528576952	1.106457345467
6	34695	28032.13671461082	0.922552731633
6	34710	28051.325111203134	1.165753301047
6	34725	28058.88315065425	0.812505351938
6	34745	28083.810473805453	1.086273173243
6	34760	28091.000827714862	0.950951833837
6	34765	28098.235817598166	1.121754885651
6	34805	28142.486181946631	0.936754625849
6	34835	28178.807341138007	1.084137098026
6	34845	28204.434861124883	2.217135186707
6	34854	28226.859086250517	1.119029896799
6	34860	28228.833921775132	2.386513171918
6	34870	28238.004871191708	2.668567553786
6	34937	28275.759363263575	1.682239861972
6	34945	28278.476721409694	4.713936205558
6	34950	28280.98845710626	0.822088847682
6	34955	28283.206925788357	0.858655147627
6	34965	28290.886062016511	1.030105222017
6	34977	28299.765318317804	1.091972719692
6	34980	28300.915920667909	2.11253392342
6	34985	28307.043362240969	0.927960874327
6	34990	28309.802404887545	1.071002851333
6	34997	28322.555285427005	1.013822127879
6	35002	28323.572555664585	1.264964636151
6	35005	28324.71444259587	1.495315006319
6	35015	28327.983220816357	1.77515594277
6	35025	28333.971695741917	0.97348087579
6	35040	28352.695115155325	0.96513385782
6	35097	28409.600199004088	1.090777015593
6	35105	28411.710417722315	2.679978863425
6	35117	28420.849044121578	1.184221938159
6	35132	28431.692284345715	1.058927704487
6	35142	28434.768338258772	1.111086321529
6	35172	28452.306608445569	1.10795868095
6	35210	28470.299602564791	1.88656069227
6	35245	28498.994011116891	1.130660925526
6	35255	28505.011473672593	1.053632090054
6	35260	28506.777630226985	1.145391490404
6	35265	28523.268849012741	0.889668896142
6	35275	28540.787981603207	1.13058033425
6	35285	28545.137632414099	1.120824897289
6	35290	28547.822568406946	0.946137635689
6	35300	28554.949141540128	1.020381867979
6	35312	28557.268587752311	1.757599301712
6	35315	28558.26195489808	1.022225492783
6	35375	28588.117939896309	3.116429011026
6	35380	28589.311178302598	0.868162675388
6	35405	28601.767536808488	0.81795864515
6	35410	28609.026093045663	1.036205089185
6	35435	28637.594119044222	1.04262243323
6	35462	28652.551297326211	1.129743153695
6	35470	28662.687984205576	0.967975357175
6	35480	28666.990070491529	2.765981899398
6	35490	28675.319540249943	2.472936952386
6	35502	28685.710318349052	1.15394727597
6	35510	28693.941167930578	1.049347292166
6	35535	28711.131097769714	6.029239727161
6	35540	28712.619347519244	0.858843674231
6	35560	28731.259988587094	1.121057005785
6	35595	28757.653231882338	2.780123306881
6	35602	28771.642702546541	0.801040919125
6	35632	28790.333927900827	2.82404980883
6	35635	28791.348175795487	5.516458980834
6	35640	28793.106981024132	0.848226379789
6	35687	28839.122341102314	2.418352151918
6	35715	28858.911489665923	9.229506547479
6	35725	28873.761772505351	1.048973870743
6	35740	28880.286618799315	3.207404475901
6	35745	28896.828743718491	1.086268576048
6	35755	28902.674374449628	5.334310235585
6	35785	28918.472779093183	3.642214929522
6	35790	28925.188201399244	0.935333454609
6	35810	28939.913812006406	0.870118086413
6	35815	28944.250756317925	1.188539306354
6	35820	28961.542966742982	0.874865334667
6	35825	28969.781957458656	1.003363698255
6	35855	28987.54089287931	1.760441266225
6	35867	28991.649638988319	0.893411417212
6	35880	29004.679920354792	0.927271075081
6	35885	29010.107504619386	1.039004171547
6	35910	29023.029140655191	0.928201546054
6	35945	29057.656538240763	1.022277115046
6	35955	29064.287616600545	1.162550495937
6	35980	29082.613784303773	1.025688679051
6	36015	29115.723223070124	1.592290744391
6	36022	29141.211390200079	1.093243614584
6	36032	29142.892766472862	0.862793217506
6	36052	29149.837722172615	2.2318165224
6	36055	29150.975954877333	1.395012892057
6	36090	29184.395782026848	1.760287223701
6	36095	29186.680641583793	0.91518973019
6	36125	29196.418897818831	0.876053125877
6	36135	29200.365225136448	0.932635255158
6	36140	29215.56181563413	0.836994015146
6	36172	29234.405635971474	1.392095541991
6	36192	29244.662707906265	1.101464419253
6	36200	29259.037115963948	0.819023643993
6	36210	29274.128011310597	1.129953739885
6	36215	29309.893248323906	1.197060785349
6	36220	29313.041520358559	0.931480533257
6	36225	29318.680091245255	1.013686034828
6	36235	29375.914882567377	0.974976816401
6	36245	29384.917955458791	2.824514859059
6	36260	29388.354193886299	2.697181361021
6	36280	29392.585153005594	2.922467518133
6	36292	29399.267852945872	1.151602670085
6	36300	29402.111951522959	0.951395745669
6	36315	29409.552855638747	4.707610234262
6	36327	29423.236700793015	1.052069713455
6	36362	29464.182062983479	1.157555344701
6	36415	29513.138618051705	1.058726445027
6	36445	29524.281702110307	1.030502724275
6	36455	29537.549710240429	0.887774659134
6	36505	29566.399144196376	1.548665028291
6	36517	29580.996452108121	1.057808342483
6	36527	29583.156497302934	1.404963730808
6	36530	29584.22059896896	2.158399142412
6	36540	29588.340120221094	1.026793431956
6	36550	29594.984862805979	4.98231705652
6	36555	29600.68774744675	0.969643801544
6	36560	29605.931648372839	1.018392687384
6	36587	29622.548321692679	0.813648930937
6	36597	29624.567762055098	0.913878574874
6	36609	29630.389749424649	1.199899970554
6	36615	29632.587102994067	2.722700793832
6	36627	29646.345289606868	1.010881883185
6	36630	29647.37124748741	1.709068500317
6	36640	29652.485236428192	0.920172466151
6	36645	29662.571094507581	1.053331660945
6	36650	29666.32595195907	1.1005061117
6	36655	29671.379858035203	0.852036562748
6	36662	29674.002492074192	0.818428446911
6	36665	29674.841123671167	1.467384076993
6	36690	29687.795525919123	8.978141614302
6	36715	29695.368349322429	2.419856812898
6	36740	29715.766686043799	1.827366697279
6	36752	29722.785461969493	1.131399107911
6	36760	29727.920745914018	0.941430126596
6	36782	29743.555352233763	1.408873184022
6	36860	29807.197296566417	0.964033639617
6	36875	29841.991658086064	1.026982297096
6	36900	29883.435633624374	1.018924541213
6	36915	29896.018613670632	3.691034385081
6	36920	29903.22404388938	1.009451515228
6	36950	29924.946852369783	1.105637174193
6	36955	29925.960070209551	0.889819842204
6	36980	29941.380332489923	5.042595670522
6	36985	29951.084405851655	0.860847955383
6	36995	29956.552979986382	1.057082027104
6	37000	29958.127708915101	0.887253757194
6	37005	29959.562501028919	1.068598358613

