version 2
run Second_exit_5-6-20191023-00:19:58-5200
attr configname Second_exit_5
attr datetime 20191023-00:19:58
attr experiment Second_exit_5
attr inifile omnetpp.ini
attr iterationvars ""
attr iterationvarsf ""
attr measurement ""
attr network ResponseTimeNetwork
attr processid 5200
attr repetition 6
attr replication #6
attr resultdir results
attr runnumber 6
attr seedset 6
param **.Source.interArrivalTime exponential(5s)
param **.jobPriority bernoulli(0.6)
param **.PS.serviceTimeU1 "uniform(0.8s, 1.2s)"
param **.PS.serviceTimeU2 "uniform(1.8s, 2.2s)"
param **.SS1.serviceTime exponential(1s)
param **.SS2.serviceTime exponential(1.2s)
param **.PS.exitProbability bernoulli(0.5)

vector 0 ResponseTimeNetwork.SS1 queueLength:vector ETV
attr interpolationmode sample-hold
attr title "queue length, vector"
vector 1 ResponseTimeNetwork.SS2 queueLength:vector ETV
attr interpolationmode sample-hold
attr title "queue length, vector"
vector 2 ResponseTimeNetwork.QueueU1 queueLength:vector ETV
attr interpolationmode sample-hold
attr title "queue length, vector"
vector 3 ResponseTimeNetwork.QueueU2 queueLength:vector ETV
attr interpolationmode sample-hold
attr title "queue length, vector"
vector 4 ResponseTimeNetwork.sink lifeTimeU1:vector ETV
attr interpolationmode none
attr title "lifetime of arrived jobs U1, vector"
attr unit s
vector 5 ResponseTimeNetwork.sink lifeTime:vector ETV
attr interpolationmode none
attr title "lifetime of arrived jobs, vector"
attr unit s
vector 6 ResponseTimeNetwork.sink lifeTimeU2:vector ETV
attr interpolationmode none
attr title "lifetime of arrived jobs U2, vector"
attr unit s
0	0	0	0
0	230	133.582643546048	1
0	234	133.910867327041	0
0	487	257.436575569388	1
0	489	258.005826806709	0
0	492	258.455857427966	1
0	494	259.201354205734	0
0	627	321.90747754311	1
0	629	322.535205134409	0
0	632	322.822684978953	1
0	634	323.359642269997	0
0	790	412.062068670269	1
0	791	412.422348163701	0
0	805	416.295025601612	1
0	806	418.034627322439	0
0	820	421.09059825936	1
0	821	421.473688843468	0
0	1115	589.232775638659	1
0	1116	589.504629540124	0
0	1120	590.644754836761	1
0	1121	590.886211881161	0
0	1450	760.311246378609	1
0	1451	761.059928260118	0
0	1500	772.311891121786	1
0	1509	777.829432312604	0
0	1849	936.159011689632	1
0	1856	938.309324310114	0
0	2225	1112.687689809319	1
0	2229	1113.541414208969	0
0	2482	1203.652630799224	1
0	2484	1203.867369511119	0
0	2520	1214.195452719103	1
0	2521	1214.933590153204	0
0	2745	1344.153742863219	1
0	2746	1344.336848808238	0
0	2770	1352.862726193838	1
0	2771	1353.343427194387	0
0	2790	1364.352984735116	1
0	2794	1365.76610447105	0
0	2962	1465.965513283275	1
0	2964	1466.391912119494	0
0	4325	2268.384551623203	1
0	4326	2270.107918399152	0
0	4920	2692.169508246532	1
0	4921	2692.224747425471	0
0	5530	3049.914730234506	1
0	5531	3053.303461691702	0
0	5535	3054.113730659301	1
0	5539	3058.009016517694	0
0	5550	3060.315395923345	1
0	5551	3060.441889936533	0
0	6170	3382.486943446642	1
0	6171	3386.214355059229	0
0	6275	3472.066700712364	1
0	6276	3472.330544315577	0
0	6880	3765.801544512554	1
0	6881	3766.270546357535	0
0	6885	3767.146352870125	1
0	6886	3767.435424854149	0
0	7135	3908.477829865569	1
0	7136	3908.815699122434	0
0	7144	3909.805484638324	1
0	7153	3911.729539845621	0
0	7161	3912.642424181717	1
0	7163	3913.013171161634	0
0	7345	3974.200678669562	1
0	7349	3974.262611284276	0
0	7505	4044.548819831915	1
0	7506	4044.85299515637	0
0	7515	4046.653700081878	1
0	7516	4046.994865541937	0
0	8015	4321.671943139216	1
0	8019	4322.730922013483	0
0	8475	4659.910628444623	1
0	8476	4660.786180523721	0
0	8602	4732.220001085043	1
0	8604	4732.324083557589	0
0	8610	4734.12370817795	1
0	8611	4734.545337959965	0
0	8775	4828.489609800402	1
0	8776	4828.726021279196	0
0	9577	5262.958552487489	1
0	9580	5264.15845557965	2
0	9581	5264.25759201519	1
0	9584	5265.190879774418	0
0	9587	5265.309870432911	1
0	9589	5265.604097000087	0
0	9592	5266.175983043516	1
0	9595	5267.122525294812	2
0	9596	5267.182989559011	1
0	9599	5267.82155334797	0
0	9617	5271.027221938935	1
0	9619	5271.423258599366	0
0	9835	5375.951707100457	1
0	9836	5376.522893721451	0
0	10145	5555.168484012727	1
0	10146	5555.181836374678	0
0	10155	5559.496577942758	1
0	10156	5559.497915934685	0
0	10197	5568.701113002576	1
0	10206	5572.737171027277	0
0	10642	5815.530300852229	1
0	10644	5815.860565132679	0
0	11162	6120.008474543339	1
0	11164	6120.564430314213	0
0	11334	6212.09344511211	1
0	11339	6213.652098230433	0
0	11515	6298.944595571067	1
0	11516	6299.665829455459	0
0	12022	6557.521306580668	1
0	12024	6557.581247075785	0
0	12090	6573.315810971129	1
0	12091	6573.396023588375	0
0	12330	6695.554716163894	1
0	12331	6696.259838835965	0
0	12668	6876.529364437123	1
0	12670	6876.76677598623	0
0	12675	6877.509026754161	1
0	12678	6878.312461004572	2
0	12680	6878.393825300454	1
0	12682	6878.940699255862	0
0	12696	6882.267940052113	1
0	12701	6883.948234822848	0
0	12745	6896.331170712579	1
0	12746	6897.585587351675	0
0	13070	7021.555259723376	1
0	13071	7023.319244171248	0
0	13530	7302.824247038743	1
0	13531	7303.699882444627	0
0	13537	7304.777789911981	1
0	13539	7305.349320051601	0
0	13542	7305.609855187944	1
0	13544	7306.29117333802	0
0	13726	7421.362408206221	1
0	13729	7422.181333019752	2
0	13731	7423.156845347735	1
0	13736	7423.876640918493	0
0	13742	7425.049035800882	1
0	13744	7425.0897440491	0
0	14312	7758.261070469494	1
0	14317	7759.13340523225	2
0	14319	7759.324817762714	1
0	14321	7759.662966790392	0
0	14455	7825.676360821584	1
0	14456	7826.263568106443	0
0	14775	7991.31807227817	1
0	14776	7992.335142504295	0
0	15034	8151.327099947155	1
0	15036	8151.988988045844	0
0	15039	8152.21425027781	1
0	15041	8152.220359165334	0
0	15110	8170.617691337555	1
0	15111	8171.998650581016	0
0	15675	8458.481850468142	1
0	15676	8458.672916777475	0
0	15685	8461.980070498711	1
0	15686	8462.320959920135	0
0	16535	8841.994198609541	1
0	16536	8842.296091092161	0
0	16540	8843.162046719312	1
0	16541	8844.011822955085	0
0	16649	8875.190389978914	1
0	16651	8875.622800639094	0
0	16659	8877.186043807334	1
0	16661	8877.627580750334	0
0	16664	8878.151433824311	1
0	16666	8878.20831801052	0
0	16744	8911.066190305552	1
0	16746	8911.771938862303	0
0	16749	8912.114310604627	1
0	16752	8913.304917504745	2
0	16756	8914.870698408149	1
0	16759	8915.59061644144	0
0	17125	9111.586558712605	1
0	17126	9114.046593120681	0
0	17180	9126.768528007722	1
0	17181	9127.066347748013	0
0	17387	9182.384570548652	1
0	17394	9183.611766707226	0
0	17417	9188.46199047404	1
0	17419	9188.849105583819	0
0	17990	9500.061173007205	1
0	17994	9501.144921599466	0
0	18292	9632.308799187727	1
0	18294	9633.048865217135	0
0	18937	9946.868689869437	1
0	18939	9947.137235775276	0
0	19243	10134.968505855929	1
0	19245	10134.976805158509	0
0	19263	10139.100722636748	1
0	19265	10139.456359125597	0
0	19997	10456.396160116756	1
0	19999	10456.673938118068	0
0	20330	10633.650484226895	1
0	20331	10634.457199162303	0
0	20345	10637.464554684667	1
0	20346	10638.867148047915	0
0	20645	10855.42546584042	1
0	20646	10856.710588114374	0
0	20650	10857.58961078398	1
0	20651	10857.847889225739	0
0	20942	10983.374693606226	1
0	20944	10983.585579226893	0
0	21310	11174.385470934526	1
0	21311	11174.495700508224	0
0	21377	11207.422204391273	1
0	21380	11208.363420992798	2
0	21381	11208.570227817381	1
0	21386	11208.803590288565	0
0	21389	11209.723049385408	1
0	21391	11210.255298188122	0
0	21399	11211.888677602568	1
0	21404	11212.735010840864	2
0	21406	11212.820706808262	1
0	21416	11214.824810340469	2
0	21418	11214.879433397603	1
0	21420	11215.873851724773	0
0	21423	11215.929228878887	1
0	21427	11216.765920605162	0
0	21787	11363.59738458183	1
0	21791	11363.84857186718	0
0	21812	11368.935823932405	1
0	21814	11368.999483459236	0
0	22127	11506.887648056222	1
0	22129	11507.135351262733	0
0	22136	11508.057858095186	1
0	22139	11509.123622650614	2
0	22141	11509.699787197235	1
0	22143	11510.132310411531	0
0	22156	11512.173001649936	1
0	22158	11512.516797902044	0
0	22161	11513.037742553612	1
0	22163	11513.33283445493	0
0	22166	11514.090111740919	1
0	22171	11515.422968435964	0
0	22203	11520.94123623302	1
0	22208	11521.937276218233	2
0	22211	11522.827650893626	3
0	22213	11523.694544948648	2
0	22215	11523.821390720907	1
0	22223	11524.919530284645	2
0	22228	11525.954218883773	3
0	22231	11527.025206347609	4
0	22233	11527.864574637199	3
0	22240	11528.580154158481	2
0	22243	11529.055194631273	3
0	22248	11530.373238501544	2
0	22250	11530.641092134618	1
0	22255	11531.667428197653	0
0	22820	11829.618731233556	1
0	22821	11830.294295159016	0
0	23614	12192.633662435702	1
0	23616	12193.201092138403	0
0	23864	12294.991476373684	1
0	23868	12295.7633226229	0
0	23956	12313.281579027749	1
0	23958	12313.950931562924	0
0	23972	12317.136408928648	1
0	23976	12321.020157671453	0
0	24462	12525.085155806503	1
0	24465	12526.072447885013	2
0	24471	12528.799738412483	1
0	24474	12528.884102237165	0
0	24550	12550.427692173248	1
0	24551	12551.715487827738	0
0	24555	12552.846520721638	1
0	24556	12552.962529133657	0
0	24560	12553.792505187193	1
0	24561	12554.421511347164	0
0	24577	12557.463291837313	1
0	24579	12557.66997556732	0
0	24774	12656.406838110584	1
0	24779	12657.620126606816	0
0	25689	13112.696845745704	1
0	25691	13112.951221899116	0
0	25697	13114.674024028647	1
0	25699	13114.804266430431	0
0	25717	13118.151090013086	1
0	25724	13120.010689614993	0
0	25730	13121.553599791503	1
0	25734	13122.945536002866	0
0	25740	13124.634934438347	1
0	25741	13124.723134155579	0
0	25747	13125.53920262764	1
0	25749	13126.041614796484	0
0	25755	13127.833327948775	1
0	25759	13128.565683275197	0
0	25777	13132.72380351637	1
0	25779	13133.727169858324	0
0	26215	13315.101328143991	1
0	26216	13316.80106620088	0
0	26317	13376.669563455268	1
0	26319	13376.950552939605	0
0	26339	13380.521810663066	1
0	26344	13381.90607365318	0
0	26830	13709.682443460753	1
0	26831	13710.130859062273	0
0	26846	13712.278256389044	1
0	26848	13713.088125556664	0
0	26854	13714.338711906329	1
0	26856	13714.845059645146	0
0	26861	13715.471642838616	1
0	26863	13716.298184839344	0
0	26869	13717.526236679695	1
0	26874	13719.233826018694	0
0	27287	13908.589762407364	1
0	27289	13908.607508207307	0
0	27310	13915.963033053538	1
0	27311	13916.290947873263	0
0	27320	13918.220153742308	1
0	27321	13920.855239700658	0
0	27335	13924.560410588234	1
0	27336	13927.517805128943	0
0	27780	14136.09205645297	1
0	27781	14136.162357550554	0
0	28362	14413.237438450239	1
0	28364	14413.422380742946	0
0	28405	14440.581385247794	1
0	28406	14440.901965757957	0
0	29699	15244.558135294077	1
0	29701	15244.62508873093	0
0	29785	15281.084548870103	1
0	29786	15281.224263043847	0
0	29797	15283.155054221727	1
0	29801	15284.144554123689	0
0	29805	15285.200790438649	1
0	29809	15286.010775615354	0
0	29815	15287.531926589487	1
0	29816	15290.172209093096	0
0	30010	15388.788085306572	1
0	30011	15388.845236544252	0
0	30407	15588.08242406725	1
0	30411	15588.932202815507	0
0	30445	15597.756711228986	1
0	30456	15598.835504065968	0
0	30675	15724.841216030709	1
0	30676	15726.367578994292	0
0	30975	15964.019686698479	1
0	30976	15965.361218655914	0
0	31032	15976.948229355366	1
0	31034	15977.07410017466	0
0	31205	16071.336798285597	1
0	31206	16071.401474933916	0
0	31445	16178.913286270374	1
0	31446	16180.161908120933	0
0	31450	16180.970432891968	1
0	31451	16181.134783340473	0
0	31750	16390.348952948558	1
0	31755	16391.499742850337	2
0	31756	16391.721855683687	1
0	31759	16391.844712704726	0
0	31866	16419.872049177024	1
0	31868	16420.553174123527	0
0	31871	16420.682002585526	1
0	31878	16422.051162297598	0
0	32389	16697.982959695632	1
0	32391	16698.719070137255	0
0	32507	16725.277846199686	1
0	32511	16726.778746606527	0
0	33170	17021.093395575957	1
0	33171	17021.794063659568	0
0	33175	17022.811409709786	1
0	33181	17024.458053215039	0
0	33203	17027.663469773908	1
0	33205	17028.112734840588	0
0	33213	17030.031425385834	1
0	33215	17030.536866199369	0
0	34026	17399.278992574598	1
0	34028	17400.253713335926	0
0	34031	17400.413440444256	1
0	34033	17401.39414390041	0
0	34036	17401.397422868601	1
0	34038	17401.431899204996	0
0	34422	17614.700969920057	1
0	34424	17614.978621605835	0
0	34474	17625.418745157981	1
0	34476	17625.501082068588	0
0	35630	18261.621786699332	1
0	35631	18261.920125269713	0
0	35707	18298.973505745316	1
0	35709	18299.099984073942	0
0	35712	18299.775606640847	1
0	35715	18300.94974906384	2
0	35716	18301.763265506689	1
0	35721	18304.295683374876	0
0	35777	18315.530188983999	1
0	35789	18320.091213424072	0
0	35805	18323.560974780592	1
0	35809	18323.638046388518	0
0	35836	18328.535336761228	1
0	35838	18328.983509687009	0
0	35857	18333.233943675975	1
0	35859	18334.103569725321	0
0	36367	18610.509793278881	1
0	36371	18611.846683976468	0
0	36855	18927.909454429396	1
0	36856	18928.105255915078	0
0	38662	19961.936220937975	1
0	38664	19962.55220728169	0
0	38717	19977.213007061524	1
0	38721	19979.028743535393	0
0	39162	20227.2685153182	1
0	39165	20228.37760687064	2
0	39171	20229.508226171069	1
0	39174	20229.637482020746	0
0	39192	20233.379276259828	1
0	39196	20234.82552471654	0
0	39200	20235.929075237824	1
0	39201	20237.883971064079	0
0	39212	20239.864760654986	1
0	39214	20240.573535676169	0
0	39217	20241.064698109225	1
0	39219	20241.476452150497	0
0	39335	20330.544894278946	1
0	39347	20333.092668357042	2
0	39349	20333.356213602939	1
0	39355	20335.038550245778	2
0	39356	20336.085494460584	1
0	39359	20336.146650987723	0
0	39377	20340.06563530122	1
0	39379	20340.065891838652	0
0	39389	20342.00783005464	1
0	39391	20342.612232836755	0
0	39420	20349.368953447557	1
0	39421	20349.89721959727	0
0	39705	20447.23810044948	1
0	39706	20448.10129490749	0
0	39964	20569.958710632839	1
0	39967	20571.009530477219	2
0	39969	20571.346403206224	1
0	39971	20571.851387826318	0
0	40117	20650.191833978691	1
0	40119	20650.649246377021	0
0	40195	20691.030110353775	1
0	40196	20691.152995921796	0
0	40712	20943.167286080606	1
0	40714	20943.179435693778	0
0	40735	20947.60321030015	1
0	40739	20948.550463820254	0
0	40885	21059.122939926318	1
0	40886	21059.903168167704	0
0	40910	21072.49434569236	1
0	40911	21072.836388549266	0
0	41037	21124.806351506225	1
0	41049	21127.267254399856	0
0	41182	21188.46016105813	1
0	41184	21188.749850226418	0
0	41420	21260.236755221085	1
0	41421	21261.884309817755	0
0	41430	21263.632027946875	1
0	41431	21264.260474279822	0
0	41435	21265.268824526222	1
0	41436	21265.701314082627	0
0	41685	21365.366472937586	1
0	41686	21366.425496237596	0
0	41857	21496.009647493183	1
0	41861	21497.318214187952	0
0	41870	21499.355327215506	1
0	41874	21500.718470037922	0
0	41877	21501.764711756262	1
0	41879	21502.162420899309	0
0	41887	21503.761145399141	1
0	41889	21503.86684453815	0
0	41894	21504.762857658605	1
0	41896	21505.790385067601	0
0	42435	21799.763570306154	1
0	42436	21799.784768266232	0
0	42845	22019.674878939153	1
0	42846	22020.973374817318	0
0	43015	22096.820672915113	1
0	43016	22097.10643754571	0
0	43415	22303.815346298006	1
0	43416	22304.463871983407	0
0	43440	22313.398384500839	1
0	43441	22314.118480845861	0
0	43645	22450.839904052672	1
0	43646	22451.058772697141	0
0	43835	22527.603855277923	1
0	43836	22529.31626299664	0
0	44589	23018.431358895177	1
0	44596	23021.094866799513	0
0	45160	23296.642365214274	1
0	45161	23297.271576651501	0
0	45197	23304.162604653778	1
0	45201	23305.395259148005	0
0	45839	23636.345818065521	1
0	45841	23637.236272686898	0
0	46052	23728.814991508438	1
0	46054	23729.609668619466	0
0	46192	23814.39725861355	1
0	46194	23815.485618032936	0
0	46490	23970.248935258859	1
0	46491	23970.333551498092	0
0	47000	24343.79694116327	1
0	47001	24344.056539841681	0
0	47010	24345.893220726806	1
0	47011	24347.292197949335	0
0	47110	24403.493499700622	1
0	47116	24405.279418880467	0
0	47120	24406.457759661575	1
0	47121	24407.303597856432	0
0	47365	24545.287113610285	1
0	47366	24545.362132056296	0
0	47716	24708.79901766855	1
0	47718	24709.414696537138	0
0	47812	24738.31369764616	1
0	47814	24738.340903401426	0
0	47915	24765.754509535569	1
0	47921	24766.97990019927	0
0	48317	24925.473481622844	1
0	48319	24926.120139547093	0
0	48322	24926.373229106369	1
0	48324	24927.020751279838	0
0	48329	24927.263887946534	1
0	48331	24927.276023067183	0
0	48610	25087.77966345514	1
0	48611	25088.213239289335	0
0	48630	25093.180994988153	1
0	48631	25093.262055934007	0
0	49340	25473.832736659434	1
0	49341	25475.616172906971	0
0	49345	25476.440180719113	1
0	49346	25477.820405578939	0
0	49350	25478.910050887475	1
0	49351	25478.978769860673	0
0	49430	25533.981258754058	1
0	49431	25534.777427060661	0
0	49440	25537.877508169063	1
0	49441	25539.570622442737	0
0	49565	25601.083297328021	1
0	49566	25602.894849235291	0
0	50040	25831.237414362449	1
0	50041	25832.231023813928	0
0	50087	25851.529332468152	1
0	50089	25851.741348093856	0
0	50432	25995.018999551527	1
0	50434	25995.148898084405	0
0	50515	26044.686449759437	1
0	50516	26045.405595723765	0
0	50790	26165.360027268208	1
0	50791	26166.533410084694	0
0	50930	26220.001177665949	1
0	50931	26220.603653915252	0
0	51295	26420.258392049804	1
0	51296	26420.360937476002	0
0	51302	26421.179278960295	1
0	51304	26421.693923578571	0
0	51397	26476.421238400615	1
0	51399	26476.855062506173	0
0	51420	26481.505744254696	1
0	51421	26481.588998688181	0
0	51458	26487.807039377448	1
0	51460	26487.889011850821	0
0	51496	26496.115837565793	1
0	51498	26496.208120623978	0
0	51687	26596.848789870176	1
0	51689	26596.915617181967	0
0	51772	26619.897839672006	1
0	51774	26620.236373517543	0
0	51777	26620.796043713372	1
0	51781	26622.142903986819	0
0	51857	26637.406789375882	1
0	51861	26639.629652376752	0
0	51945	26684.529914318636	1
0	51946	26685.192973393627	0
0	51950	26686.188165199809	1
0	51951	26686.698131577229	0
0	51990	26698.830711119162	1
0	51991	26698.895902986864	0
0	52110	26774.92142416371	1
0	52111	26774.970176040615	0
0	52115	26775.908981356259	1
0	52116	26776.756387456859	0
0	52137	26781.915382562724	1
0	52141	26784.084711768021	0
0	52510	27061.776411746743	1
0	52511	27062.315077964767	0
0	52577	27084.72774717889	1
0	52579	27084.908270892677	0
0	52975	27243.416935270109	1
0	52976	27243.648176059357	0
0	53200	27352.849317735905	1
0	53201	27353.901840109566	0
0	53205	27354.840904526787	1
0	53210	27356.410088246871	2
0	53211	27356.500548238231	1
0	53217	27357.653949050436	2
0	53221	27358.740396001656	1
0	53226	27358.992618308415	0
0	53229	27359.800429895893	1
0	53231	27359.93794264078	0
0	53452	27483.634052664916	1
0	53463	27484.876634596288	0
0	54042	27845.961485486667	1
0	54044	27845.972396989938	0
0	54472	28062.915160993966	1
0	54474	28063.676525520615	0
0	54489	28066.004127534213	1
0	54499	28069.470654696258	0
0	54510	28071.51975942223	1
0	54514	28071.742347701673	0
0	54847	28203.463583887067	1
0	54851	28203.810640305226	0
0	54862	28206.274584061166	1
0	54865	28207.433617957102	2
0	54866	28208.184719240273	1
0	54870	28209.022641285768	2
0	54871	28210.200954265592	1
0	54874	28210.341320626997	0
0	55470	28493.38989089474	1
0	55475	28494.573455874451	2
0	55476	28495.453544307499	1
0	55479	28495.821196410861	0
0	55492	28498.530333524755	1
0	55496	28499.968025469769	0
0	56444	28874.268258683311	1
0	56446	28874.459897053277	0
0	56449	28875.086706824063	1
0	56454	28875.91790798262	2
0	56456	28876.00590413023	1
0	56466	28879.357292211093	0
0	56470	28880.199437551517	1
0	56471	28880.485835035607	0
0	56837	29061.464816486082	1
0	56841	29063.235775679483	0
0	56849	29064.243507699802	1
0	56851	29065.118357074506	0
0	56854	29065.1218124567	1
0	56856	29065.564493264949	0
0	56861	29066.290758419636	1
0	56863	29067.062501833563	0
0	56871	29068.334630394302	1
0	56873	29069.078849647165	0
0	57102	29195.296322728133	1
0	57106	29196.439434391806	0
0	57115	29198.625461913912	1
0	57116	29198.665449842543	0
0	57161	29228.436067903158	1
0	57163	29229.038873408878	0
0	57537	29421.645277322596	1
0	57539	29421.816367999147	0
0	57687	29504.29783905127	1
0	57689	29504.320776059636	0
0	58057	29702.845210901193	1
0	58059	29703.123384914325	0
0	58062	29703.724580328364	1
0	58064	29704.289479230794	0
0	58067	29704.843724530201	1
0	58069	29705.001307404071	0
0	58247	29761.968366736859	1
0	58249	29762.818820717445	0
0	58455	29903.395485473922	1
0	58456	29905.491575496523	0
0	58460	29906.329443553714	1
0	58461	29906.559353595756	0
0	58465	29907.610198479209	1
0	58466	29908.29110522235	0
0	58545	29944.753617206462	1
0	58546	29945.045825876032	0
0	58694	29980.308566269476	1
0	58696	29981.32298771838	0
0	58699	29981.394128182635	1
0	58701	29982.229718981026	0
0	58704	29982.552750609175	1
0	58706	29982.9287966827	0
0	58709	29983.540537208051	1
0	58712	29984.380635662295	2
0	58714	29984.84062754299	1
0	58720	29986.662755736254	2
0	58724	29987.757471945738	1
0	58726	29987.769348986602	0
0	58731	29988.156291514685	1
0	58736	29989.48634586393	0
0	58739	29990.208012007786	1
0	58741	29990.234421272753	0
1	0	0	0
1	850	427.008576520993	1
1	851	428.948778058099	0
1	872	432.936257033864	1
1	874	433.840982900321	0
1	1004	530.506604682695	1
1	1006	531.40702504952	0
1	1720	897.426434379128	1
1	1721	897.465304148904	0
1	2300	1128.99818155688	1
1	2306	1131.035755679612	0
1	2310	1131.924972596713	1
1	2311	1132.619252128597	0
1	2335	1137.569176707511	1
1	2339	1137.720713037646	0
1	2605	1261.129315725409	1
1	2606	1261.264071979956	0
1	2610	1262.222635009722	1
1	2611	1262.309456730605	0
1	2615	1263.194858883851	1
1	2616	1265.833248079635	0
1	3007	1499.111029435606	1
1	3011	1499.758363420445	0
1	3014	1500.105959831835	1
1	3016	1500.164225889611	0
1	3030	1504.359108521143	1
1	3031	1504.389876785578	0
1	3682	1926.33642877878	1
1	3684	1926.349109160855	0
1	3977	2062.942245370646	1
1	3981	2064.585936634382	0
1	4132	2161.797137670402	1
1	4134	2161.886367704593	0
1	4139	2162.602105482106	1
1	4145	2164.646028831878	2
1	4146	2166.926631562483	1
1	4151	2168.294747855381	0
1	4155	2169.22454071609	1
1	4159	2170.097362537785	0
1	4162	2170.752154953104	1
1	4165	2171.57103602912	2
1	4175	2173.919084762701	3
1	4176	2174.488257865948	2
1	4179	2175.072926564633	1
1	4184	2175.757678773807	0
1	4655	2483.621524161174	1
1	4656	2484.505487921031	0
1	4662	2485.468271359091	1
1	4666	2486.699904713657	0
1	4670	2487.861715004005	1
1	4676	2494.800900100402	0
1	5795	3153.878070271952	1
1	5796	3155.3659005842	0
1	6115	3338.215305565226	1
1	6116	3339.035050906991	0
1	6830	3744.263217923217	1
1	6831	3744.594964942612	0
1	7224	3925.652065707611	1
1	7230	3927.537772820851	2
1	7231	3928.552468640379	1
1	7234	3929.504423350139	0
1	8662	4783.896716384317	1
1	8664	4784.406743950678	0
1	9062	4975.930919317329	1
1	9066	4977.280974646614	0
1	9375	5152.27087061843	1
1	9376	5152.827809240713	0
1	9650	5297.253582792291	1
1	9651	5298.354931451287	0
1	10370	5664.943860899771	1
1	10379	5667.336001185593	0
1	10500	5745.150073674033	1
1	10504	5745.702241910985	0
1	10520	5749.474110927814	1
1	10521	5750.318927583663	0
1	11572	6327.770267480876	1
1	11576	6329.755644935325	0
1	11867	6485.650121734876	1
1	11870	6486.787071771294	2
1	11871	6489.243952841793	1
1	11875	6490.142217359987	2
1	11879	6492.039146366905	1
1	11881	6492.369511902929	0
1	11884	6492.637758189959	1
1	11889	6493.652095111327	2
1	11891	6493.940339109403	1
1	11899	6496.092108563271	0
1	11902	6496.516845290696	1
1	11909	6498.378359490121	0
1	11912	6499.094606765291	1
1	11916	6500.620369563592	0
1	11925	6502.611968706889	1
1	11926	6503.081425984194	0
1	12210	6631.066096706639	1
1	12211	6631.180452453565	0
1	15707	8466.432564656919	1
1	15714	8468.152285572214	0
1	15722	8469.432319005511	1
1	15724	8469.648131475294	0
1	15887	8551.442377247154	1
1	15889	8551.48789723956	0
1	17257	9142.128240509705	1
1	17261	9143.50504896758	0
1	17280	9148.082026894237	1
1	17281	9148.64244359843	0
1	17745	9339.879130204038	1
1	17749	9340.472351172542	0
1	17915	9454.875710253988	1
1	17916	9455.28221786576	0
1	18050	9513.687729542125	1
1	18051	9515.020808346133	0
1	18792	9889.62856567932	1
1	18796	9891.041025355559	0
1	20700	10886.043302271891	1
1	20701	10886.973784038997	0
1	21479	11228.057276730268	1
1	21481	11228.316151668909	0
1	21505	11233.989759585384	1
1	21514	11237.045631891235	0
1	21895	11417.999964115245	1
1	21896	11419.637779112601	0
1	21900	11420.810991888189	1
1	21901	11420.829889419594	0
1	23067	11976.094491026456	1
1	23069	11976.21502698098	0
1	23445	12159.381675087059	1
1	23449	12159.775171897874	0
1	24615	12578.565190820131	1
1	24616	12579.137664511134	0
1	25505	13013.125597066937	1
1	25509	13013.862637047683	0
1	26112	13231.01427747336	1
1	26114	13231.27166576906	0
1	26500	13478.079653444163	1
1	26501	13478.165879375864	0
1	27652	14099.150425179024	1
1	27656	14099.929845371442	0
1	27745	14118.352583497956	1
1	27746	14120.446287753475	0
1	28030	14257.625359161069	1
1	28031	14257.67593045357	0
1	31852	16418.111132002767	1
1	31854	16418.115489691956	0
1	31910	16429.665355134713	1
1	31911	16430.431667353758	0
1	32220	16606.266705434394	1
1	32221	16608.891723524789	0
1	32227	16609.888510717741	1
1	32234	16610.821962722638	0
1	32532	16730.518054875756	1
1	32546	16734.637384907825	0
1	32645	16766.335115722652	1
1	32646	16768.141417976973	0
1	32652	16769.232507799604	1
1	32654	16769.732964233581	0
1	32717	16781.873583172738	1
1	32719	16782.317382508455	0
1	32722	16782.756025361653	1
1	32726	16783.580953276668	0
1	32940	16916.291792966469	1
1	32944	16917.131578157075	0
1	32957	16919.698419622031	1
1	32960	16920.73550235301	2
1	32961	16921.022521574208	1
1	32965	16921.964247446758	2
1	32966	16923.518494812745	1
1	32969	16923.546488870719	0
1	33480	17115.844801028386	1
1	33481	17116.882738947262	0
1	33510	17126.218764914773	1
1	33511	17126.885683625905	0
1	33825	17334.329043283833	1
1	33826	17334.841414500761	0
1	34105	17416.611330112471	1
1	34106	17418.428926564551	0
1	34495	17630.073942322584	1
1	34496	17630.286079028132	0
1	35240	18019.432766858646	1
1	35241	18020.229622795894	0
1	35250	18022.030170861162	1
1	35254	18023.213974452552	0
1	38147	19664.254268838971	1
1	38161	19668.652502857696	0
1	39470	20363.106598894116	1
1	39471	20366.312272163437	0
1	39475	20367.163302987491	1
1	39476	20367.181119409611	0
1	39617	20425.637732068436	1
1	39631	20431.345521398424	0
1	39645	20434.411367738223	1
1	39646	20434.422139177678	0
1	39652	20435.448932609634	1
1	39656	20436.455073232579	0
1	39750	20477.977659360541	1
1	39751	20478.517366317878	0
1	40515	20850.204925673949	1
1	40516	20852.191577939499	0
1	40520	20853.342450418319	1
1	40521	20853.359943405911	0
1	40527	20854.501024802494	1
1	40536	20858.257475397161	0
1	40542	20859.611370331484	1
1	40544	20859.76970021019	0
1	43580	22387.175098571119	1
1	43581	22387.908163563881	0
1	43780	22510.441932716106	1
1	43781	22511.821568257126	0
1	44677	23040.496241557087	1
1	44680	23041.478210385564	2
1	44681	23041.744516583378	1
1	44685	23042.617928710426	2
1	44689	23042.838310059702	1
1	44695	23044.486283719801	2
1	44699	23044.910602745908	1
1	44701	23044.943897903313	0
1	44707	23046.464437558351	1
1	44711	23046.800510899936	0
1	45010	23198.710084283261	1
1	45011	23199.552469956311	0
1	45017	23200.629208201165	1
1	45026	23204.385554442978	0
1	45365	23362.291122946583	1
1	45366	23364.125055431409	0
1	45792	23619.818167866908	1
1	45794	23620.144508188563	0
1	45800	23621.579726355478	1
1	45801	23622.476045299578	0
1	45910	23663.47745686549	1
1	45911	23665.832520191399	0
1	45962	23696.444636184054	1
1	45971	23699.642831780232	0
1	49065	25315.934756107946	1
1	49066	25316.093638608351	0
1	49075	25318.417711938477	1
1	49076	25320.918636203725	0
1	49467	25559.904571150002	1
1	49470	25560.899960750845	2
1	49471	25561.63957183907	1
1	49477	25562.562968143133	2
1	49479	25563.542508532352	1
1	49484	25563.672142221467	0
1	49880	25731.452206985929	1
1	49881	25731.591785516691	0
1	49885	25732.426983365238	1
1	49886	25732.832037752057	0
1	50377	25963.70968597316	1
1	50379	25963.837451710421	0
1	51722	26605.524236792477	1
1	51724	26605.924678805449	0
1	52547	27078.649945387098	1
1	52551	27079.84277073431	0
1	52615	27092.724595178731	1
1	52616	27092.781887214548	0
1	52850	27198.599578500722	1
1	52851	27198.788715124618	0
1	53890	27776.539256817333	1
1	53891	27776.557816205236	0
1	53895	27777.595324335868	1
1	53896	27779.987905432465	0
1	54335	27988.855246929657	1
1	54336	27989.387032496474	0
1	54960	28236.668073833111	1
1	54961	28237.012903661228	0
1	54965	28237.981315029546	1
1	54966	28238.903338762265	0
1	54997	28263.610569578033	1
1	55000	28264.559438515171	2
1	55001	28264.681155192149	1
1	55004	28264.880789823918	0
1	55375	28446.70294472024	1
1	55376	28446.963809611856	0
1	56260	28823.51380488182	1
1	56265	28824.666776590795	2
1	56266	28826.539982113945	1
1	56269	28826.689735389912	0
1	56352	28855.772317912794	1
1	56354	28856.248854967844	0
1	56375	28860.768151299554	1
1	56381	28861.674416634277	0
1	56389	28863.207632522398	1
1	56391	28863.478548491072	0
1	57265	29280.118591989114	1
1	57266	29281.331873093699	0
1	57275	29283.254044437935	1
1	57276	29284.511692999733	0
1	57280	29285.626666022894	1
1	57281	29285.721543471962	0
1	57830	29585.033836713173	1
1	57831	29586.912599730058	0
1	57835	29588.044754405352	1
1	57836	29588.933099164568	0
1	57845	29591.021178615313	1
1	57846	29591.067647330896	0
1	57855	29592.928269482464	1
1	57856	29593.170907364304	0
1	57860	29594.175018643199	1
1	57864	29595.225906443038	0
2	0	0	0
2	12	26.802114818854	1
2	13	26.848577658944	0
2	20	28.647833593921	1
2	21	28.826130245365	0
2	35	31.362763955668	1
2	38	32.184344789666	0
2	110	89.216818411918	1
2	111	89.666512791646	0
2	130	96.175271172797	1
2	131	96.911970477369	0
2	160	107.678826303176	1
2	161	107.944169634342	0
2	200	126.780741825654	1
2	201	127.111990442881	0
2	205	127.326007615502	1
2	206	128.026050267936	0
2	215	129.396634030289	1
2	217	130.017901144126	2
2	218	130.288261095133	1
2	221	131.347551191669	0
2	225	131.63738777551	1
2	226	132.399154505856	0
2	235	133.910867327041	1
2	237	134.059382529205	2
2	239	134.382971738482	3
2	240	134.72198395567	2
2	243	135.64849489104	1
2	247	136.146792089403	2
2	248	136.708164480757	1
2	251	137.689467402045	0
2	255	137.829192677735	1
2	256	138.77364753509	0
2	275	146.1098565156	1
2	276	146.970831009877	0
2	280	146.995647868076	1
2	281	148.10209368229	0
2	290	152.135131877709	1
2	291	152.488823972369	0
2	345	190.446198320262	1
2	347	190.652917868605	2
2	348	191.358641446716	1
2	352	191.717350027927	2
2	353	192.177230960465	1
2	357	192.664194564076	2
2	358	193.230788613538	1
2	361	194.080522884204	0
2	375	196.715891549032	1
2	376	197.526894803046	0
2	392	200.254664753551	1
2	394	200.560129126616	2
2	395	200.668232377972	1
2	398	201.717492356505	0
2	450	239.656343941698	1
2	451	240.424983380401	0
2	480	255.908337667447	1
2	482	256.214183865187	2
2	483	256.528756331176	1
2	486	257.436575569388	0
2	490	258.005826806709	1
2	491	258.455857427966	0
2	495	259.201354205734	1
2	496	259.587231191795	0
2	520	268.189420505154	1
2	521	268.516463307389	0
2	610	318.229555460211	1
2	612	318.57701449879	2
2	613	318.791040084304	1
2	616	319.917474418299	0
2	620	320.460819341448	1
2	621	320.770113308055	0
2	625	321.444625444494	1
2	626	321.90747754311	0
2	630	322.535205134409	1
2	631	322.822684978953	0
2	635	323.359642269997	1
2	636	323.953224885164	0
2	640	323.983762051565	1
2	641	324.881061039938	0
2	675	341.799562109308	1
2	676	342.36233462961	0
2	695	348.584361857125	1
2	697	349.223185660385	2
2	698	349.252725167766	1
2	701	350.278178036406	0
2	795	412.476249740749	1
2	796	413.44444759158	0
2	810	418.099404289091	1
2	811	419.000361824088	0
2	815	419.575960272909	1
2	816	420.132569542766	0
2	825	422.059937306969	1
2	826	422.565128906345	0
2	830	422.9503406664	1
2	833	423.436745841796	0
2	837	424.215719221311	1
2	838	424.33492725165	0
2	870	432.210984441698	1
2	871	432.936257033864	0
2	882	434.544476687345	1
2	883	435.027262366538	0
2	905	442.655515522419	1
2	906	443.538907517571	0
2	945	488.194774439714	1
2	946	488.784617776725	0
2	1002	530.089584888098	1
2	1003	530.506604682695	0
2	1070	569.03901634922	1
2	1071	569.450177749286	0
2	1085	572.9382471372	1
2	1086	573.487371553871	0
2	1105	587.135551494208	1
2	1106	587.302015032095	0
2	1110	587.441270516689	1
2	1111	588.123833785799	0
2	1125	590.97689666616	1
2	1126	591.799560455725	0
2	1142	596.677271941377	1
2	1143	597.317250125241	0
2	1165	602.453255583421	1
2	1167	602.522173718521	2
2	1170	602.769832377452	1
2	1173	603.853427329883	0
2	1185	606.556936814255	1
2	1186	607.317889877105	0
2	1217	616.017558007379	1
2	1219	616.442542849504	2
2	1220	616.671403400899	1
2	1223	617.550436612425	0
2	1230	619.499817905236	1
2	1231	619.552060125602	0
2	1245	622.940968213997	1
2	1246	623.70774750092	0
2	1265	630.537988393263	1
2	1266	631.309515814331	0
2	1270	632.086226914269	1
2	1271	632.306376338132	0
2	1275	632.456118205089	1
2	1276	633.16326073514	0
2	1325	687.990700917504	1
2	1326	688.048701529445	0
2	1375	728.58161519805	1
2	1378	729.567523011207	0
2	1395	732.744092772349	1
2	1396	733.329579341985	0
2	1405	735.405508587739	1
2	1406	736.161843622299	0
2	1420	753.242119711686	1
2	1422	753.64418555627	2
2	1423	753.809860413106	1
2	1426	754.780160893643	0
2	1455	761.065337906052	1
2	1456	762.049398721874	0
2	1480	767.859960976445	1
2	1481	768.489369198117	0
2	1490	769.386659002481	1
2	1491	770.190607480142	0
2	1495	770.652397111345	1
2	1496	771.35649861367	0
2	1510	777.829432312604	1
2	1511	778.321209440987	0
2	1515	778.336873519443	1
2	1516	779.517623627699	0
2	1525	783.189128904024	1
2	1526	783.856591343571	0
2	1530	784.373991493906	1
2	1531	784.89880279756	0
2	1600	834.913156291776	1
2	1601	835.488185353503	0
2	1630	847.232662461858	1
2	1631	848.156539364834	0
2	1635	848.4629291318	1
2	1636	849.241034451057	0
2	1665	869.283062749081	1
2	1666	869.326925876016	0
2	1730	899.510603150598	1
2	1731	899.658432023935	0
2	1740	901.680229216101	1
2	1741	901.719196955077	0
2	1750	902.789784633712	1
2	1751	903.80888726037	0
2	1760	906.401661064652	1
2	1761	907.35022189902	0
2	1765	908.195113532646	1
2	1766	908.22034189008	0
2	1795	925.068821467908	1
2	1796	925.387694436757	0
2	1805	928.227517757644	1
2	1806	928.269513930998	0
2	1810	928.549314913271	1
2	1811	929.153755624186	0
2	1817	929.739804177222	1
2	1818	930.189273528535	0
2	1827	932.10473429388	1
2	1828	932.185606293905	0
2	1839	933.918312274139	1
2	1840	934.09417667432	0
2	1844	934.963301965029	1
2	1845	935.070789384714	0
2	1860	938.336917089559	1
2	1863	939.19051464633	0
2	1870	940.175908966009	1
2	1871	941.027652019215	0
2	1880	942.93386709201	1
2	1881	943.493761528908	0
2	1885	944.102786131584	1
2	1886	944.435773856631	0
2	1895	947.093114450732	1
2	1896	948.086372893395	0
2	1905	949.397284374105	1
2	1906	950.467932920249	0
2	1915	952.047019966674	1
2	1916	952.420197819544	0
2	1935	964.33320088147	1
2	1936	964.764118033156	0
2	1965	973.198241778522	1
2	1966	973.809845441152	0
2	2015	1000.195896969199	1
2	2016	1000.498933917987	0
2	2035	1004.774654954769	1
2	2036	1004.776711779271	0
2	2045	1007.112125172797	1
2	2046	1007.33676572014	0
2	2060	1022.230938706249	1
2	2061	1023.153924253818	0
2	2095	1042.43292363658	1
2	2096	1042.602415595408	0
2	2105	1044.494430390862	1
2	2106	1045.027797914055	0
2	2215	1109.632715939703	1
2	2217	1110.241621527	2
2	2218	1110.780940799885	1
2	2221	1111.600838895984	0
2	2230	1113.541414208969	1
2	2231	1114.047967688783	0
2	2235	1114.066233689075	1
2	2238	1114.93988120998	0
2	2242	1115.100130422073	1
2	2245	1116.015891900516	0
2	2249	1116.393532701999	1
2	2250	1117.181170195478	0
2	2254	1117.310714043376	1
2	2255	1118.167055328513	0
2	2259	1118.388123703138	1
2	2260	1119.200884910623	0
2	2350	1140.447159512851	1
2	2351	1140.713882350207	0
2	2360	1142.354459049721	1
2	2361	1143.041080935982	0
2	2405	1162.515936602837	1
2	2406	1162.854263371961	0
2	2410	1163.987143074503	1
2	2411	1163.999153553029	0
2	2415	1164.724820392559	1
2	2416	1164.863327087076	0
2	2450	1196.799964684489	1
2	2452	1197.157895812828	2
2	2453	1197.576870512084	1
2	2458	1198.410790970416	0
2	2462	1198.566420773876	1
2	2463	1199.356493618858	0
2	2467	1199.459355845287	1
2	2468	1200.525804864296	0
2	2472	1200.832362226513	1
2	2473	1201.697126572167	0
2	2477	1202.495708019538	1
2	2478	1202.556950653677	0
2	2485	1203.867369511119	1
2	2488	1204.746779978422	0
2	2492	1205.025921413005	1
2	2493	1205.812366362528	0
2	2500	1207.236987266745	1
2	2501	1207.712781565783	0
2	2515	1212.514374566741	1
2	2516	1213.363758026916	0
2	2525	1215.414403191667	1
2	2526	1215.982098901896	0
2	2585	1256.403200541977	1
2	2590	1257.209767872721	0
2	2597	1258.523359726873	1
2	2598	1259.293311531816	0
2	2622	1266.430682821158	1
2	2623	1266.808119348224	0
2	2630	1267.83116473048	1
2	2631	1268.791088618684	0
2	2650	1302.276788377924	1
2	2651	1302.286404440011	0
2	2735	1341.614905314421	1
2	2736	1342.190218394045	0
2	2740	1343.059257827685	1
2	2741	1343.326114907004	0
2	2775	1353.833599634348	1
2	2776	1354.213485762768	0
2	2785	1362.773111007362	1
2	2786	1363.351375588335	0
2	2795	1365.76610447105	1
2	2796	1366.226306247173	0
2	2855	1405.894372793014	1
2	2856	1406.248730551396	0
2	2865	1407.640221619798	1
2	2866	1408.367259338532	0
2	2895	1422.808292758709	1
2	2896	1423.708441571625	0
2	2905	1425.498753845115	1
2	2906	1425.865229276302	0
2	2950	1462.892871971246	1
2	2952	1463.117688461988	2
2	2953	1463.806205634475	1
2	2957	1463.972063319763	2
2	2958	1464.973642946389	1
2	2961	1465.965513283275	0
2	2965	1466.391912119494	1
2	2967	1466.758878938382	2
2	2968	1466.995881048012	1
2	2971	1467.975364240426	0
2	3125	1584.14303367588	1
2	3126	1584.762748366615	0
2	3135	1586.880197645471	1
2	3136	1587.296540801821	0
2	3150	1597.291145121758	1
2	3151	1597.435442267143	0
2	3205	1680.753402543847	1
2	3206	1681.073916123155	0
2	3220	1688.76818811343	1
2	3221	1689.520323118613	0
2	3230	1691.06552898835	1
2	3231	1691.833852880013	0
2	3245	1697.560563528058	1
2	3246	1698.211819203403	0
2	3270	1715.185952755683	1
2	3271	1715.470600696811	0
2	3290	1735.3260336923	1
2	3291	1735.960395452624	0
2	3365	1783.913959488885	1
2	3366	1784.763878863333	0
2	3385	1788.175835807577	1
2	3389	1789.267794819055	2
2	3390	1789.315127312815	1
2	3395	1790.212939590639	0
2	3405	1792.138246985467	1
2	3406	1792.874930064245	0
2	3465	1835.491137388252	1
2	3466	1835.797404165953	0
2	3475	1838.371600783845	1
2	3476	1838.419761727655	0
2	3480	1839.108957981282	1
2	3481	1839.320929676851	0
2	3485	1839.480749163202	1
2	3486	1840.228301364833	0
2	3520	1850.848385791563	1
2	3521	1851.034509157155	0
2	3570	1878.830439954856	1
2	3572	1878.865998533364	2
2	3573	1879.638580265608	1
2	3576	1880.519205043152	0
2	3580	1881.423052688945	1
2	3581	1881.693015069108	0
2	3610	1903.158486804606	1
2	3611	1904.081537853304	0
2	3615	1904.807197269247	1
2	3616	1904.894931786723	0
2	3620	1905.656366735028	1
2	3621	1906.031664345536	0
2	3625	1906.21343161385	1
2	3626	1906.846726946935	0
2	3630	1907.748525435906	1
2	3631	1908.032869839139	0
2	3640	1909.105194908668	1
2	3641	1909.908144914761	0
2	3645	1910.6202328792	1
2	3646	1911.060688692733	0
2	3695	1928.868952433934	1
2	3697	1929.126215309161	2
2	3698	1929.804376218815	1
2	3701	1930.879275535394	0
2	3715	1938.527312153753	1
2	3717	1938.567319257931	2
2	3718	1939.150044109978	1
2	3721	1940.327392789189	0
2	3745	1946.11496597577	1
2	3746	1946.809143161546	0
2	3757	1948.653491454639	1
2	3758	1949.308904193422	0
2	3840	2023.377332499195	1
2	3841	2023.876954810393	0
2	3845	2024.088530882097	1
2	3846	2024.817246944343	0
2	3850	2025.640501811542	1
2	3851	2025.752140325752	0
2	3855	2026.658200261216	1
2	3856	2026.744801224374	0
2	3860	2027.399884683298	1
2	3861	2027.766799585965	0
2	3890	2041.495807588237	1
2	3891	2041.691757529424	0
2	3905	2044.216219460492	1
2	3906	2044.834366315895	0
2	3915	2045.952830455951	1
2	3916	2046.855835753692	0
2	3930	2049.961247620317	1
2	3931	2050.349361024127	0
2	3965	2060.158335496212	1
2	3966	2061.144624847484	0
2	3975	2062.127966175571	1
2	3976	2062.942245370646	0
2	3990	2066.499672557437	1
2	3991	2066.58202655275	0
2	4000	2068.483754213769	1
2	4001	2069.236398911232	0
2	4075	2122.741071725588	1
2	4076	2122.945202099313	0
2	4080	2122.974161828267	1
2	4081	2123.986114409533	0
2	4137	2161.984924444587	1
2	4138	2162.602105482106	0
2	4230	2196.559626430737	1
2	4231	2197.483698587645	0
2	4255	2217.151466215263	1
2	4256	2218.182097915332	0
2	4265	2220.332804297279	1
2	4266	2220.44948940114	0
2	4270	2221.514946341578	1
2	4271	2221.623064674855	0
2	4290	2260.29116660327	1
2	4292	2260.549260923421	2
2	4293	2260.754894340107	1
2	4296	2261.781770312203	0
2	4310	2264.608295461697	1
2	4311	2265.117239910949	0
2	4320	2266.471494791374	1
2	4321	2267.489044918139	0
2	4330	2270.350093088989	1
2	4331	2271.004801187616	0
2	4335	2271.341250944738	1
2	4337	2271.915723486326	2
2	4338	2272.001734803941	1
2	4341	2273.115286652788	0
2	4367	2279.334657867945	1
2	4368	2279.669223125233	0
2	4372	2279.985997709873	1
2	4373	2280.862292791578	0
2	4400	2297.826232124258	1
2	4401	2298.197238889216	0
2	4410	2299.556385208699	1
2	4411	2300.512604455157	0
2	4420	2302.120072181758	1
2	4422	2302.360034041592	2
2	4423	2302.818131740834	1
2	4426	2303.731141371164	0
2	4530	2389.11333768587	1
2	4531	2389.707352507849	0
2	4590	2436.294768249613	1
2	4591	2436.299154925445	0
2	4645	2481.129943721861	1
2	4646	2481.295825207027	0
2	4750	2535.462115525216	1
2	4753	2535.73613364227	0
2	4760	2536.828577771751	1
2	4761	2537.799530605095	0
2	4915	2690.82475503181	1
2	4916	2691.35932125674	0
2	4925	2692.474739434407	1
2	4927	2692.899592404712	2
2	4928	2693.307896784567	1
2	4932	2693.506099072544	2
2	4933	2694.299663081732	1
2	4936	2695.138919855062	0
2	4965	2736.992095898633	1
2	4966	2737.220806944136	0
2	5000	2775.599484627775	1
2	5001	2776.331447432149	0
2	5015	2784.394400813131	1
2	5016	2785.381605250922	0
2	5052	2797.175747197317	1
2	5053	2798.197421631296	0
2	5130	2861.20337010785	1
2	5131	2861.640533063639	0
2	5142	2864.244197798532	1
2	5143	2864.3802668482	0
2	5205	2886.400878100759	1
2	5206	2886.874463937177	0
2	5265	2928.389223168538	1
2	5266	2928.436111695718	0
2	5290	2934.002295781321	1
2	5291	2934.614075408075	0
2	5305	2936.981231618368	1
2	5306	2937.616725143796	0
2	5345	2952.886406551274	1
2	5348	2953.820072555052	0
2	5365	2959.017402190581	1
2	5366	2959.890058868603	0
2	5452	3023.144160576981	1
2	5453	3024.001456909617	0
2	5470	3029.320523371953	1
2	5471	3029.45538171662	0
2	5495	3042.657975355573	1
2	5496	3043.333243507271	0
2	5510	3045.488074033673	1
2	5513	3046.061642479586	0
2	5520	3047.938554516547	1
2	5521	3048.088319628375	0
2	5525	3048.316487195916	1
2	5526	3048.974708163707	0
2	5540	3058.009016517694	1
2	5541	3058.328064431915	0
2	5545	3058.36614528107	1
2	5546	3059.23382155701	0
2	5555	3060.667478096192	1
2	5557	3060.90214560085	2
2	5558	3061.506432776023	1
2	5562	3062.09593995352	2
2	5563	3062.700100220051	1
2	5567	3063.675384551815	2
2	5568	3063.793202730138	1
2	5572	3064.021569023901	2
2	5574	3064.361318860334	3
2	5575	3064.895616765283	2
2	5578	3065.939281279556	1
2	5582	3066.788736154364	2
2	5583	3066.850279526934	1
2	5586	3067.872997707371	0
2	5690	3120.090896869204	1
2	5691	3120.440984071927	0
2	5760	3146.22211358594	1
2	5763	3146.849544269689	0
2	5772	3148.161320302571	1
2	5773	3148.700671589006	0
2	5782	3149.93849571174	1
2	5783	3151.000094721098	0
2	5845	3182.940208192041	1
2	5846	3183.815877484484	0
2	5865	3193.780010492143	1
2	5866	3194.660352261834	0
2	5870	3195.199415476093	1
2	5871	3195.748909777872	0
2	5910	3213.243329035056	1
2	5911	3213.752826385658	0
2	5985	3253.452841804088	1
2	5986	3254.235594245725	0
2	6005	3260.332647341471	1
2	6006	3260.461562015876	0
2	6015	3263.917307488014	1
2	6016	3264.16897354699	0
2	6045	3293.989577815714	1
2	6046	3294.964533324802	0
2	6140	3375.497527102062	1
2	6141	3376.253262689412	0
2	6150	3378.386441154963	1
2	6151	3378.417995059845	0
2	6155	3379.524132246668	1
2	6156	3379.592948049569	0
2	6160	3379.702217064304	1
2	6161	3380.746163974406	0
2	6165	3381.371100064681	1
2	6166	3381.66640887296	0
2	6175	3386.495779703188	1
2	6176	3387.03915071439	0
2	6270	3470.075405703858	1
2	6271	3471.033489447418	0
2	6295	3484.868605938791	1
2	6296	3485.716188032952	0
2	6305	3486.966912757243	1
2	6306	3488.06453503522	0
2	6315	3489.358883976534	1
2	6317	3489.545930711677	2
2	6319	3489.850752041618	3
2	6320	3490.300109392889	2
2	6325	3491.272289589811	1
2	6328	3492.435081879906	0
2	6332	3492.758358176744	1
2	6333	3493.54786760278	0
2	6337	3494.125758404767	1
2	6338	3494.635734564363	0
2	6350	3497.063371873436	1
2	6351	3498.191570364054	0
2	6360	3499.561243044225	1
2	6363	3500.188463459282	0
2	6402	3511.685577686598	1
2	6403	3512.072462583172	0
2	6465	3549.542315680879	1
2	6466	3550.539189581647	0
2	6480	3553.190596195575	1
2	6481	3554.057738119032	0
2	6505	3562.866189148742	1
2	6506	3563.162941020404	0
2	6515	3564.735620148831	1
2	6516	3565.213724433629	0
2	6524	3566.158739353416	1
2	6525	3566.220959677173	0
2	6529	3566.397502097372	1
2	6530	3567.095143768842	0
2	6534	3567.673797130475	1
2	6535	3567.996787352393	0
2	6542	3569.057569437332	1
2	6543	3569.755107931419	0
2	6565	3581.705476318427	1
2	6566	3582.179100741598	0
2	6595	3600.691106864528	1
2	6596	3600.758967415528	0
2	6615	3605.377050928999	1
2	6616	3605.401895162879	0
2	6690	3678.546726806864	1
2	6691	3679.078112845611	0
2	6705	3685.045552851234	1
2	6706	3685.347724018668	0
2	6710	3686.470240682289	1
2	6711	3686.509690010411	0
2	6770	3711.321961846218	1
2	6771	3712.096696596889	0
2	6780	3713.379555959181	1
2	6781	3714.097728932883	0
2	6840	3745.884447752417	1
2	6841	3746.318933285025	0
2	6855	3753.269910775153	1
2	6856	3753.446253515292	0
2	6890	3768.168544983361	1
2	6891	3768.61349452977	0
2	6900	3770.895089683284	1
2	6901	3771.552670050599	0
2	6992	3815.02701360481	1
2	6993	3815.639702785659	0
2	7000	3816.864210482733	1
2	7002	3817.151197135073	2
2	7003	3817.655883767913	1
2	7007	3818.83402961406	2
2	7008	3818.85127102201	1
2	7012	3819.70127234058	2
2	7013	3819.902142416212	1
2	7016	3820.776004824779	0
2	7020	3821.323327289976	1
2	7021	3821.586009903057	0
2	7060	3859.288318306651	1
2	7061	3859.735079525494	0
2	7065	3859.941029535527	1
2	7066	3860.614426137776	0
2	7075	3862.472975784739	1
2	7077	3862.881479435907	2
2	7078	3863.00089228995	1
2	7081	3863.939251892398	0
2	7152	3911.621291974478	1
2	7154	3911.729539845621	2
2	7155	3911.778511604535	1
2	7160	3912.642424181717	0
2	7164	3913.013171161634	1
2	7166	3913.28659493197	2
2	7167	3913.621893623712	1
2	7173	3914.68600715022	2
2	7174	3914.765349444708	1
2	7180	3915.460867557221	2
2	7181	3915.59070395218	1
2	7185	3916.445117258962	2
2	7186	3916.658632880224	1
2	7190	3916.745790576239	2
2	7192	3916.83476532104	3
2	7193	3917.663931147436	2
2	7197	3917.790466852736	3
2	7198	3918.514823040886	2
2	7201	3919.386560758257	1
2	7205	3919.952251153761	2
2	7206	3920.396581540217	1
2	7209	3921.567219953758	0
2	7222	3925.438607291905	1
2	7223	3925.652065707611	0
2	7255	3934.942968194568	1
2	7256	3935.169949676295	0
2	7265	3936.852742534799	1
2	7266	3937.666434481394	0
2	7275	3939.984714257627	1
2	7276	3940.698491214982	0
2	7305	3964.915337376552	1
2	7306	3965.913283890298	0
2	7320	3969.405567576033	1
2	7321	3969.496527516091	0
2	7330	3970.864941823571	1
2	7332	3971.387875242241	2
2	7333	3971.40589491892	1
2	7336	3972.522405938705	0
2	7340	3973.330714654281	1
2	7341	3973.352251616487	0
2	7350	3974.262611284276	1
2	7352	3974.635374446982	2
2	7353	3975.151225526926	1
2	7356	3976.213356098455	0
2	7360	3976.368144107722	1
2	7361	3977.099259015281	0
2	7375	3980.911301316133	1
2	7376	3981.070744336559	0
2	7405	3991.680470530434	1
2	7407	3991.778159901906	2
2	7408	3992.357919657444	1
2	7413	3993.376284555466	0
2	7465	4024.408450569854	1
2	7466	4025.085660594158	0
2	7510	4045.427662392103	1
2	7511	4045.751424237121	0
2	7520	4047.774864862778	1
2	7521	4048.054324273983	0
2	7680	4158.250152212428	1
2	7681	4158.251761647521	0
2	7685	4158.56050905778	1
2	7686	4159.314621664232	0
2	7690	4159.884831732606	1
2	7691	4160.438819379287	0
2	7730	4179.649267547783	1
2	7733	4180.172094685057	0
2	7745	4183.04810880514	1
2	7746	4183.612338107886	0
2	7755	4185.195144178872	1
2	7756	4186.209011692374	0
2	7765	4187.62581298634	1
2	7766	4188.032592105406	0
2	7780	4190.214766259884	1
2	7781	4190.868145916983	0
2	7795	4194.993443466705	1
2	7796	4195.427847877466	0
2	7810	4200.011907861512	1
2	7811	4200.286619301185	0
2	7815	4200.473609823341	1
2	7816	4201.132825156905	0
2	7820	4201.652834649349	1
2	7821	4202.299107169125	0
2	7905	4262.089389937739	1
2	7907	4262.446081697563	2
2	7908	4262.633304319244	1
2	7911	4263.571111866079	0
2	7930	4271.869831436974	1
2	7933	4272.761740360285	0
2	7950	4303.432649438634	1
2	7951	4303.6331794386	0
2	7970	4307.534993648661	1
2	7973	4308.320543790117	0
2	8010	4319.780864404946	1
2	8011	4320.576549684187	0
2	8020	4322.730922013483	1
2	8022	4323.010644595047	2
2	8023	4323.422616112002	1
2	8026	4324.418182167367	0
2	8040	4327.723703935412	1
2	8041	4328.036434244124	0
2	8070	4349.603441576708	1
2	8072	4350.000488374571	2
2	8073	4350.285892806995	1
2	8076	4351.444843929402	0
2	8085	4353.044747196133	1
2	8086	4353.331814116659	0
2	8090	4353.959062007292	1
2	8093	4354.399542645505	0
2	8105	4357.327060813023	1
2	8107	4357.509068561433	2
2	8108	4357.757651108959	1
2	8111	4358.646690920078	0
2	8115	4358.737800634375	1
2	8116	4359.793347078644	0
2	8240	4489.041274483684	1
2	8241	4489.3730039425	0
2	8300	4536.731300259624	1
2	8301	4537.269221591676	0
2	8352	4575.629355983537	1
2	8353	4575.946561702571	0
2	8362	4577.32622585824	1
2	8363	4577.910341768848	0
2	8470	4658.054039888097	1
2	8471	4658.784331143476	0
2	8480	4660.951376551198	1
2	8481	4661.962693311305	0
2	8495	4665.319113142561	1
2	8496	4665.867967533796	0
2	8517	4687.056376911205	1
2	8518	4687.732792659312	0
2	8522	4688.208942830802	1
2	8525	4688.821513174962	0
2	8535	4691.602672098458	1
2	8536	4691.924965295218	0
2	8545	4701.871348187237	1
2	8546	4702.154359488555	0
2	8550	4702.886643302833	1
2	8551	4702.954999641602	0
2	8590	4728.88134796476	1
2	8592	4729.770641308467	2
2	8593	4729.90850089084	1
2	8598	4731.032022959214	0
2	8605	4732.324083557589	1
2	8606	4733.201619494647	0
2	8615	4734.787454004481	1
2	8616	4735.49351076086	0
2	8650	4781.397511056444	1
2	8653	4781.915554425034	0
2	8660	4783.255289398879	1
2	8661	4783.896716384317	0
2	8705	4808.999982337704	1
2	8706	4809.555813376298	0
2	8715	4811.210505645921	1
2	8716	4811.456509391004	0
2	8730	4818.850205157452	1
2	8731	4818.974351824586	0
2	8770	4826.908320394283	1
2	8771	4827.611591333181	0
2	8780	4829.3435475757	1
2	8781	4829.702486290491	0
2	8905	4907.3614726985	1
2	8906	4907.914425618489	0
2	8920	4918.559939578361	1
2	8921	4919.255597337344	0
2	8940	4922.349641498579	1
2	8941	4923.18039853498	0
2	8945	4923.376094701696	1
2	8946	4924.362134971094	0
2	8955	4926.07024287147	1
2	8956	4927.095676121573	0
2	8975	4940.593387021108	1
2	8976	4941.334741162506	0
2	9000	4955.839430297794	1
2	9002	4956.650256350064	2
2	9003	4956.829829124246	1
2	9006	4957.645805362217	0
2	9025	4968.813930323619	1
2	9026	4969.121674892386	0
2	9030	4969.612916325137	1
2	9033	4970.135572165144	0
2	9044	4972.117259827929	1
2	9045	4972.26486267679	0
2	9052	4973.742549293184	1
2	9053	4973.999145217692	0
2	9060	4975.478122646906	1
2	9061	4975.930919317329	0
2	9080	4980.055013819933	1
2	9081	4980.611349552896	0
2	9095	4983.63068244789	1
2	9096	4984.491359640488	0
2	9115	5002.192024413869	1
2	9116	5002.275008637105	0
2	9142	5010.494188962722	1
2	9143	5010.582479926282	0
2	9210	5073.773694634081	1
2	9211	5074.442678476546	0
2	9220	5076.702698970702	1
2	9221	5076.842466762796	0
2	9225	5077.09810096839	1
2	9226	5077.851738030598	0
2	9270	5104.748119276764	1
2	9271	5105.040415904102	0
2	9320	5139.945627742812	1
2	9322	5140.093132736769	2
2	9325	5140.576590958238	1
2	9328	5141.707356936392	0
2	9339	5143.085567419583	1
2	9340	5143.972922637314	0
2	9347	5145.380643827491	1
2	9350	5146.126203089673	0
2	9357	5147.363984159668	1
2	9360	5148.30936269993	0
2	9387	5154.938810836618	1
2	9388	5155.010539298176	0
2	9410	5159.31858623161	1
2	9411	5159.975375681228	0
2	9445	5170.581139067086	1
2	9446	5171.156672981313	0
2	9475	5186.318494227095	1
2	9476	5186.771093190201	0
2	9530	5240.16541962813	1
2	9531	5240.763338842651	0
2	9570	5261.213620402909	1
2	9572	5261.524589862944	2
2	9573	5261.921776197214	1
2	9576	5262.958552487489	0
2	9585	5265.190879774418	1
2	9586	5265.309870432911	0
2	9590	5265.604097000087	1
2	9591	5266.175983043516	0
2	9600	5267.82155334797	1
2	9601	5268.253009569147	0
2	9605	5268.267551018597	1
2	9607	5269.198133082483	2
2	9608	5269.247714063679	1
2	9613	5270.102304979195	0
2	9620	5271.423258599366	1
2	9621	5271.908767228168	0
2	9657	5298.592425487763	1
2	9658	5299.497095686383	0
2	9690	5318.172071001236	1
2	9691	5319.083197196045	0
2	9695	5319.316362594035	1
2	9696	5319.995731056885	0
2	9700	5321.085970524298	1
2	9701	5321.155746430096	0
2	9705	5321.217345289304	1
2	9707	5321.74548439866	2
2	9708	5322.329538024992	1
2	9712	5322.512122627183	2
2	9713	5323.38258882615	1
2	9716	5324.429464268156	0
2	9750	5341.484983506281	1
2	9752	5341.845034917325	2
2	9753	5341.988318951842	1
2	9757	5342.439659836502	2
2	9758	5342.875283787534	1
2	9763	5343.934923763335	0
2	9767	5344.571768025843	1
2	9768	5345.050684167486	0
2	9800	5363.823125729589	1
2	9801	5364.269243902238	0
2	9805	5364.580928497629	1
2	9806	5365.36106850029	0
2	9830	5374.760076748023	1
2	9831	5374.96592625087	0
2	9840	5376.781398453408	1
2	9841	5377.440601711282	0
2	9865	5386.700784504562	1
2	9866	5387.670844907123	0
2	9870	5388.061296988291	1
2	9871	5388.703854756425	0
2	9880	5391.871876693906	1
2	9881	5392.223131389341	0
2	9885	5393.252304619299	1
2	9886	5393.418324499002	0
2	9905	5417.355342433553	1
2	9906	5417.882443345628	0
2	9920	5420.473103188278	1
2	9921	5421.549848345581	0
2	10040	5503.552844486944	1
2	10041	5504.081781516945	0
2	10050	5505.589287005719	1
2	10051	5506.131481175752	0
2	10110	5546.75304673028	1
2	10111	5547.637790552861	0
2	10135	5552.800788347959	1
2	10136	5553.234230702365	0
2	10160	5560.400956693203	1
2	10161	5560.475019645605	0
2	10165	5560.941518321249	1
2	10166	5561.454371727358	0
2	10170	5562.176624273105	1
2	10171	5562.354994304113	0
2	10185	5565.911847430234	1
2	10187	5566.245001765863	2
2	10188	5566.324924523212	1
2	10193	5567.515715381797	0
2	10210	5573.537243829261	1
2	10211	5573.636585320372	0
2	10275	5615.328776813644	1
2	10276	5615.512151418561	0
2	10305	5630.041411830079	1
2	10306	5630.224533515091	0
2	10345	5649.627880209154	1
2	10346	5650.377238157459	0
2	10375	5665.720502385756	1
2	10376	5666.377213995505	0
2	10385	5667.780796984124	1
2	10388	5668.58989162787	0
2	10395	5669.762180068364	1
2	10396	5670.278486288405	0
2	10402	5670.810363155437	1
2	10403	5671.414376909911	0
2	10410	5672.773067751099	1
2	10411	5673.627515764974	0
2	10585	5789.899859950902	1
2	10586	5790.706434529547	0
2	10605	5807.069608739614	1
2	10606	5807.107719961388	0
2	10620	5811.396594316271	1
2	10621	5811.645059321953	0
2	10635	5813.865437658552	1
2	10636	5814.357107138206	0
2	10645	5815.860565132679	1
2	10647	5816.492487007087	2
2	10648	5816.695898642336	1
2	10651	5817.657543684487	0
2	10660	5819.570894005312	1
2	10661	5820.526137166319	0
2	10665	5820.971267944596	1
2	10666	5821.700030481664	0
2	10705	5846.212210259829	1
2	10706	5846.874163396665	0
2	10740	5873.280579747654	1
2	10741	5873.594086298255	0
2	10750	5876.972271542786	1
2	10751	5876.989792873718	0
2	10755	5877.080006776266	1
2	10756	5878.096373278283	0
2	10760	5878.142785149855	1
2	10762	5878.907232561376	2
2	10763	5878.983815082264	1
2	10766	5880.052975195189	0
2	10850	5927.141131746073	1
2	10851	5927.542397782256	0
2	10870	5942.98646601493	1
2	10871	5943.043786586268	0
2	10925	5974.786949110605	1
2	10926	5975.016741538444	0
2	10975	6013.138590187816	1
2	10976	6014.303835151493	0
2	11015	6034.129501133168	1
2	11016	6034.326847804712	0
2	11095	6086.066687719167	1
2	11096	6086.83393297135	0
2	11150	6117.360386513824	1
2	11151	6117.951101411807	0
2	11157	6118.336291219582	1
2	11158	6119.106808444413	0
2	11165	6120.564430314213	1
2	11167	6120.759745564593	2
2	11168	6120.962894081531	1
2	11171	6121.836839048399	0
2	11200	6136.698090921201	1
2	11201	6137.493313924751	0
2	11210	6139.631295290135	1
2	11211	6139.836795733723	0
2	11220	6176.160296269342	1
2	11221	6176.706454076088	0
2	11225	6176.790468175591	1
2	11226	6177.694874299626	0
2	11230	6178.073426304171	1
2	11231	6178.84828785074	0
2	11235	6179.335098385519	1
2	11238	6179.848387911758	0
2	11290	6201.741703445914	1
2	11291	6202.494433919224	0
2	11295	6202.964097164793	1
2	11296	6203.453540100227	0
2	11300	6203.726263857502	1
2	11301	6204.270546147576	0
2	11310	6207.8475301101	1
2	11312	6207.915417599828	2
2	11313	6208.413217865137	1
2	11317	6209.013378984209	2
2	11318	6209.213702820168	1
2	11322	6209.337417497543	2
2	11324	6209.463758500051	3
2	11325	6210.015315611028	2
2	11329	6210.391926130932	3
2	11330	6211.149574172423	2
2	11333	6212.09344511211	1
2	11336	6213.066604499166	0
2	11340	6213.652098230433	1
2	11341	6214.110762713124	0
2	11345	6214.634309190956	1
2	11346	6215.277882067692	0
2	11350	6215.944005080862	1
2	11351	6216.200099625458	0
2	11355	6216.352491579587	1
2	11356	6217.373442474772	0
2	11395	6227.487922374794	1
2	11398	6228.266450164919	0
2	11435	6240.831698217145	1
2	11437	6240.860190933349	2
2	11438	6240.863761262965	1
2	11441	6241.960604940724	0
2	11455	6260.330431149202	1
2	11456	6260.48903064811	0
2	11460	6261.070622130706	1
2	11461	6261.43433314049	0
2	11480	6271.261277798329	1
2	11482	6271.721999488072	2
2	11483	6272.008446599509	1
2	11487	6272.08258636815	2
2	11488	6273.013434713579	1
2	11491	6273.984681207	0
2	11500	6295.226670654697	1
2	11501	6296.074868247769	0
2	11505	6297.089619772222	1
2	11506	6297.263413419127	0
2	11510	6297.916187212399	1
2	11511	6298.131159814652	0
2	11520	6299.839579595098	1
2	11521	6300.70474220121	0
2	11600	6347.013890374123	1
2	11601	6347.667855895785	0
2	11620	6356.751247802354	1
2	11621	6357.29031950147	0
2	11625	6357.985721665399	1
2	11627	6357.999764218086	2
2	11628	6358.174408466975	1
2	11631	6359.129374005413	0
2	11635	6359.413861522444	1
2	11636	6360.180361301592	0
2	11640	6361.230441352949	1
2	11641	6361.350193204685	0
2	11690	6385.752583941234	1
2	11691	6385.839079286032	0
2	11715	6409.860142248456	1
2	11716	6410.356345613268	0
2	11740	6421.764336654268	1
2	11741	6422.776047141045	0
2	11750	6424.302121795315	1
2	11753	6424.827857583795	0
2	11762	6426.498571878904	1
2	11763	6426.765054622605	0
2	11960	6523.452295936052	1
2	11961	6523.944527988223	0
2	11987	6550.54207708772	1
2	11988	6550.626235045018	0
2	11992	6551.166441745439	1
2	11994	6551.436480100338	2
2	11995	6551.514065547185	1
2	11998	6552.344163826192	0
2	12002	6552.687450712173	1
2	12003	6553.494257807629	0
2	12007	6553.688404076012	1
2	12008	6554.308889455152	0
2	12012	6555.072197801185	1
2	12013	6555.451072087315	0
2	12017	6555.762701733683	1
2	12018	6556.634232260184	0
2	12025	6557.581247075785	1
2	12027	6558.391759100892	2
2	12028	6558.436972716255	1
2	12033	6559.320093744518	0
2	12037	6559.342502423795	1
2	12038	6560.378222603528	0
2	12042	6560.399819693902	1
2	12043	6561.373367995201	0
2	12060	6565.669818062322	1
2	12061	6566.342263613413	0
2	12070	6568.173173339988	1
2	12072	6568.442054067986	2
2	12074	6568.52421630327	3
2	12076	6568.637803905813	4
2	12077	6568.771643256843	3
2	12080	6569.969291328993	2
2	12083	6571.10207432786	1
2	12086	6572.178195363823	0
2	12095	6573.740696989415	1
2	12096	6574.564641097494	0
2	12105	6575.734387497634	1
2	12106	6576.485601971325	0
2	12145	6613.846192646625	1
2	12146	6614.34279260142	0
2	12172	6622.530727752058	1
2	12173	6622.719124747856	0
2	12177	6623.094070793381	1
2	12178	6623.834542326672	0
2	12182	6624.281435341553	1
2	12183	6624.641999408366	0
2	12187	6625.155753987103	1
2	12188	6625.820997359274	0
2	12197	6627.388261694527	1
2	12198	6627.806787527862	0
2	12230	6654.73180122771	1
2	12231	6654.979076921028	0
2	12265	6674.196623463727	1
2	12266	6675.102953099325	0
2	12280	6683.16557805734	1
2	12281	6683.294597516357	0
2	12295	6685.894422975537	1
2	12296	6686.913033179379	0
2	12305	6688.426448576818	1
2	12306	6688.940856349933	0
2	12325	6694.430953243538	1
2	12326	6694.655148358291	0
2	12335	6696.331988358843	1
2	12336	6697.122426762781	0
2	12340	6697.157706578268	1
2	12341	6698.006500666379	0
2	12415	6759.054255437842	1
2	12416	6759.65492952677	0
2	12430	6774.654765305951	1
2	12431	6774.909288252396	0
2	12445	6778.818044812814	1
2	12446	6778.818140661132	0
2	12450	6779.203627630353	1
2	12451	6779.875722091154	0
2	12515	6809.50359704447	1
2	12516	6810.515859943025	0
2	12577	6846.511949192227	1
2	12578	6847.356617976055	0
2	12610	6866.105515165616	1
2	12612	6866.17429537216	2
2	12614	6866.435167857571	3
2	12615	6866.610627616548	2
2	12619	6866.95217651901	3
2	12622	6867.486238988747	2
2	12626	6867.964162192566	3
2	12627	6868.512880021871	2
2	12633	6869.481363597667	3
2	12634	6869.515600725521	2
2	12638	6869.652388961838	3
2	12641	6870.60341177683	2
2	12645	6870.693033783482	3
2	12646	6871.6492597522	2
2	12650	6872.120466675761	3
2	12651	6872.538677022771	2
2	12654	6873.562269718737	1
2	12658	6873.982433132843	2
2	12659	6874.50668243596	1
2	12663	6874.510906876711	2
2	12664	6875.601469779738	1
2	12667	6876.529364437123	0
2	12671	6876.76677598623	1
2	12673	6877.385270636799	2
2	12674	6877.509026754161	1
2	12677	6878.312461004572	0
2	12681	6878.393825300454	1
2	12683	6878.940699255862	2
2	12684	6879.335456240529	1
2	12688	6879.986657427335	2
2	12689	6880.514459312966	1
2	12692	6881.32432238262	0
2	12702	6883.948234822848	1
2	12703	6884.114344373139	0
2	12707	6884.357257006928	1
2	12708	6885.166814735325	0
2	12720	6887.521517364463	1
2	12721	6888.099512063132	0
2	12740	6895.155522924466	1
2	12741	6895.287081032228	0
2	12750	6897.860810832747	1
2	12751	6898.534967117756	0
2	12760	6901.714784148349	1
2	12761	6901.775022959285	0
2	12765	6902.153582027126	1
2	12768	6902.618532813196	0
2	12772	6902.630255009989	1
2	12773	6903.667672468112	0
2	12777	6903.736571449462	1
2	12779	6903.923856785059	2
2	12780	6904.866972311814	1
2	12783	6905.8381157109	0
2	12787	6906.615781586509	1
2	12788	6906.862325511076	0
2	12795	6908.244038764968	1
2	12796	6908.936542258453	0
2	12805	6911.320534183484	1
2	12806	6911.967428317758	0
2	12822	6915.030416100153	1
2	12823	6915.702705511902	0
2	12845	6929.01696860172	1
2	12846	6929.580577495746	0
2	12867	6933.048436818192	1
2	12868	6933.872944516927	0
2	12877	6935.271475528339	1
2	12878	6935.895137764194	0
2	12885	6937.758602668357	1
2	12886	6938.079519775284	0
2	12905	6951.766569363807	1
2	12906	6951.908535566872	0
2	12930	6956.405182150655	1
2	12931	6957.317199346614	0
2	12942	6960.374582874898	1
2	12943	6961.113812121034	0
2	12950	6962.53130686421	1
2	12952	6962.727132872793	2
2	12953	6963.086517636601	1
2	12958	6964.041316763155	0
2	12990	6976.658877999094	1
2	12991	6976.740549004735	0
2	13045	7004.967823377619	1
2	13046	7005.592245623506	0
2	13065	7020.324507948291	1
2	13066	7020.684414311565	0
2	13075	7023.508302956247	1
2	13077	7024.012604043332	2
2	13078	7024.15851620998	1
2	13081	7024.990452336369	0
2	13095	7034.672828575057	1
2	13096	7035.110051804024	0
2	13100	7036.007324452524	1
2	13101	7036.098467448342	0
2	13135	7048.935367226189	1
2	13138	7049.99678463367	0
2	13145	7051.679397472946	1
2	13146	7052.164003424897	0
2	13222	7108.18352938344	1
2	13223	7108.289242901792	0
2	13240	7112.96696413571	1
2	13241	7113.596034868636	0
2	13340	7163.09241516408	1
2	13341	7163.73295575219	0
2	13390	7190.492605097737	1
2	13391	7190.820973888564	0
2	13445	7233.711564887585	1
2	13446	7234.184263389522	0
2	13475	7248.499523468864	1
2	13476	7248.675136526023	0
2	13535	7304.541612828262	1
2	13536	7304.777789911981	0
2	13540	7305.349320051601	1
2	13541	7305.609855187944	0
2	13545	7306.29117333802	1
2	13547	7306.354170510483	2
2	13548	7306.540617251563	1
2	13551	7307.659890887308	0
2	13590	7328.149656858099	1
2	13591	7329.034175232016	0
2	13615	7342.84467624608	1
2	13616	7343.223128374081	0
2	13700	7417.213568900494	1
2	13701	7417.417141520493	0
2	13705	7417.555828398572	1
2	13708	7418.392078414914	0
2	13712	7418.633053770541	1
2	13713	7419.272452860866	0
2	13717	7419.403389163569	1
2	13721	7420.132275784087	2
2	13722	7420.403096484468	1
2	13725	7421.362408206221	0
2	13732	7423.156845347735	1
2	13733	7423.299034436215	0
2	13737	7423.876640918493	1
2	13738	7424.133766730111	0
2	13745	7425.0897440491	1
2	13747	7425.355019091842	2
2	13748	7425.849760497716	1
2	13751	7426.865725497883	0
2	13765	7447.379243883493	1
2	13766	7448.207391320579	0
2	13830	7499.267936892612	1
2	13831	7499.557889684391	0
2	13835	7499.646558175098	1
2	13836	7500.580589868788	0
2	13870	7511.005449898261	1
2	13871	7511.883956266225	0
2	13900	7519.238015731324	1
2	13901	7519.462967868515	0
2	14032	7632.184034957171	1
2	14033	7632.767252556772	0
2	14037	7633.290049820985	1
2	14038	7633.950469658502	0
2	14120	7669.350587121026	1
2	14121	7669.730624690779	0
2	14130	7671.38384577822	1
2	14131	7671.675151742648	0
2	14140	7672.732009580435	1
2	14141	7673.657287748556	0
2	14155	7678.216772679569	1
2	14156	7678.969648747909	0
2	14230	7725.73714539387	1
2	14231	7725.936624208899	0
2	14245	7738.793714041559	1
2	14246	7739.048536426727	0
2	14267	7743.274033505444	1
2	14268	7743.380841568701	0
2	14295	7754.07183886274	1
2	14297	7754.888293713374	2
2	14298	7755.057156917738	1
2	14301	7756.017399811099	0
2	14305	7756.872912953153	1
2	14306	7757.149421589921	0
2	14310	7757.264171653805	1
2	14311	7758.261070469494	0
2	14320	7759.324817762714	1
2	14322	7759.662966790392	2
2	14323	7760.191077215604	1
2	14327	7760.854855428295	2
2	14328	7761.177941986367	1
2	14331	7762.301934123047	0
2	14340	7765.893736214263	1
2	14341	7766.322687709572	0
2	14360	7779.697140574682	1
2	14361	7780.498965725828	0
2	14365	7780.975327295148	1
2	14366	7781.508439422831	0
2	14385	7787.251542095856	1
2	14386	7787.504848047187	0
2	14450	7824.131784007393	1
2	14451	7824.717442351533	0
2	14460	7826.42358227105	1
2	14461	7827.301773781944	0
2	14477	7852.097081703711	1
2	14478	7852.57969307671	0
2	14485	7854.032114898659	1
2	14486	7854.60090783606	0
2	14490	7855.067302215388	1
2	14491	7855.474159284539	0
2	14495	7856.063353393115	1
2	14496	7856.602893563963	0
2	14502	7856.990256940617	1
2	14503	7857.532383907165	0
2	14567	7904.635252042843	1
2	14568	7905.009687126547	0
2	14572	7905.026141834799	1
2	14574	7905.373058816242	2
2	14575	7905.940453928176	1
2	14578	7907.109036127504	0
2	14585	7908.25930282334	1
2	14586	7909.111369113558	0
2	14730	7981.705430140607	1
2	14733	7982.520714730723	0
2	14740	7983.600973931053	1
2	14741	7984.580710331398	0
2	14750	7985.803603245129	1
2	14751	7986.269671382221	0
2	14757	7986.756754458179	1
2	14758	7987.277406419186	0
2	14765	7988.313326255429	1
2	14766	7989.424699559832	0
2	14770	7989.66429960851	1
2	14771	7990.465366314283	0
2	14780	7993.423929695022	1
2	14781	7993.50007923959	0
2	14795	8009.000586633665	1
2	14796	8009.258504696707	0
2	14905	8071.235382524828	1
2	14906	8071.560482633973	0
2	14930	8088.108654761448	1
2	14933	8088.424063090501	0
2	14980	8141.161618938726	1
2	14982	8141.37501836269	2
2	14983	8141.631595211	1
2	14986	8142.734738118936	0
2	14990	8142.817453976535	1
2	14991	8143.578290019546	0
2	14995	8143.677954852484	1
2	14996	8144.391343940318	0
2	15000	8144.43751158139	1
2	15001	8145.577958043654	0
2	15005	8145.720394832831	1
2	15006	8146.416526126478	0
2	15010	8146.487750385118	1
2	15011	8147.360980640154	0
2	15015	8147.390697522403	1
2	15017	8148.254308459864	2
2	15018	8148.268038620602	1
2	15022	8148.647744707822	2
2	15023	8149.302041810088	1
2	15027	8149.341642771124	2
2	15028	8150.252270722751	1
2	15032	8150.943348193046	2
2	15033	8151.327099947155	1
2	15037	8151.988988045844	2
2	15038	8152.21425027781	1
2	15042	8152.220359165334	2
2	15044	8152.499364392121	3
2	15045	8153.268281306595	2
2	15048	8154.45149868586	1
2	15051	8155.338130409819	0
2	15055	8155.4511930958	1
2	15058	8156.246670770076	0
2	15065	8157.348120581523	1
2	15066	8158.217091503636	0
2	15090	8165.264020092206	1
2	15091	8165.795684783421	0
2	15105	8169.012921224186	1
2	15106	8169.746805611025	0
2	15160	8197.376206749367	1
2	15161	8198.525517064734	0
2	15185	8245.137367743399	1
2	15186	8246.295695190927	0
2	15205	8256.387061504631	1
2	15206	8256.682050788791	0
2	15220	8259.275704805889	1
2	15221	8260.324255624423	0
2	15290	8292.486481708601	1
2	15291	8292.787981735061	0
2	15295	8293.430353243098	1
2	15296	8293.928026526033	0
2	15315	8313.881233732718	1
2	15316	8313.996711298298	0
2	15360	8346.11362551291	1
2	15361	8346.845357747229	0
2	15365	8346.904325593428	1
2	15366	8348.018635499517	0
2	15370	8348.080641199105	1
2	15371	8348.890400454162	0
2	15425	8364.593427068863	1
2	15426	8365.726695490034	0
2	15432	8366.576035490255	1
2	15433	8366.664909239823	0
2	15437	8366.813381889065	1
2	15438	8367.498757294716	0
2	15445	8368.823923158647	1
2	15446	8369.716327398979	0
2	15490	8384.467700421106	1
2	15491	8384.871811806152	0
2	15540	8407.452945535912	1
2	15541	8408.437971142558	0
2	15585	8430.054296815899	1
2	15586	8430.729292711207	0
2	15610	8441.290545189596	1
2	15611	8441.536319561497	0
2	15635	8449.709601013237	1
2	15636	8449.952758562619	0
2	15640	8450.034590706169	1
2	15643	8451.137683022728	0
2	15655	8453.180044302486	1
2	15658	8454.170688576306	0
2	15665	8456.157452569335	1
2	15666	8456.4249644877	0
2	15670	8456.559677536476	1
2	15671	8457.506260832826	0
2	15690	8462.652870446456	1
2	15691	8463.132594467026	0
2	15705	8465.808503046315	1
2	15706	8466.432564656919	0
2	15720	8469.07454690161	1
2	15721	8469.432319005511	0
2	15750	8482.209477986035	1
2	15751	8482.496710232998	0
2	15865	8547.372557049697	1
2	15866	8547.62813377311	0
2	15877	8548.47144857978	1
2	15878	8549.436872614599	0
2	15885	8550.807432349272	1
2	15886	8551.442377247154	0
2	16050	8628.644558559802	1
2	16051	8628.896056572375	0
2	16115	8684.004750236471	1
2	16116	8684.08197556727	0
2	16135	8687.547327045452	1
2	16136	8688.515604257678	0
2	16147	8689.867606109111	1
2	16149	8690.086406731632	2
2	16150	8690.239850416967	1
2	16153	8691.424591391535	0
2	16165	8693.351968418398	1
2	16168	8694.436439289526	0
2	16175	8696.324904911527	1
2	16177	8696.477743398195	2
2	16178	8696.824850883336	1
2	16181	8697.975225910173	0
2	16205	8711.4431768914	1
2	16206	8711.599200741489	0
2	16215	8715.10811794451	1
2	16216	8715.233819820383	0
2	16245	8737.720405481849	1
2	16246	8737.929565601159	0
2	16250	8738.199957908116	1
2	16251	8738.981180234641	0
2	16255	8739.092307547794	1
2	16257	8739.93467068614	2
2	16258	8740.166901406102	1
2	16263	8741.130435313113	0
2	16270	8743.143969240103	1
2	16271	8743.178077919983	0
2	16280	8744.134895415118	1
2	16281	8745.081331296839	0
2	16305	8755.483497909259	1
2	16306	8756.318295350179	0
2	16370	8782.852428954262	1
2	16371	8783.815227301668	0
2	16375	8784.36089814803	1
2	16376	8784.690961832523	0
2	16385	8786.640359457976	1
2	16387	8786.937386868525	2
2	16388	8787.068553149364	1
2	16393	8788.12869897982	0
2	16397	8788.598720330289	1
2	16398	8789.111634418405	0
2	16404	8789.348133412152	1
2	16405	8790.064981580469	0
2	16412	8791.495803175886	1
2	16413	8792.189258771985	0
2	16420	8793.126083777978	1
2	16422	8793.560917501851	2
2	16423	8794.186894965301	1
2	16426	8795.287980994991	0
2	16435	8797.807705681681	1
2	16436	8798.241276628232	0
2	16500	8822.91810537821	1
2	16501	8823.098758150796	0
2	16545	8844.285978988548	1
2	16546	8845.143113431482	0
2	16550	8846.259321833392	1
2	16551	8846.329900547264	0
2	16555	8846.546565747446	1
2	16556	8847.137126225008	0
2	16610	8866.966148887604	1
2	16612	8867.255780329485	2
2	16613	8867.339954234103	1
2	16616	8868.415366296752	0
2	16620	8868.57970684939	1
2	16621	8869.415001110269	0
2	16625	8869.964230871887	1
2	16626	8870.452875198426	0
2	16635	8872.199494161621	1
2	16638	8873.202415350853	0
2	16642	8873.245108944837	1
2	16643	8874.26088088139	0
2	16647	8875.086979811984	1
2	16648	8875.190389978914	0
2	16652	8875.622800639094	1
2	16654	8875.812980885414	2
2	16655	8876.014216409838	1
2	16658	8877.186043807334	0
2	16662	8877.627580750334	1
2	16663	8878.151433824311	0
2	16667	8878.20831801052	1
2	16669	8878.309612117219	2
2	16670	8879.121010893519	1
2	16673	8880.261393565993	0
2	16677	8880.362592415458	1
2	16678	8881.376823039568	0
2	16684	8882.214611907509	1
2	16685	8882.453104847047	0
2	16689	8882.52679044237	1
2	16690	8883.373313967354	0
2	16700	8885.954618802951	1
2	16701	8886.431825953844	0
2	16715	8890.943644284263	1
2	16716	8891.500005625259	0
2	16730	8907.847509984136	1
2	16731	8908.956410618419	0
2	16735	8909.308769033736	1
2	16736	8910.093004640112	0
2	16740	8910.156804487469	1
2	16743	8911.066190305552	0
2	16747	8911.771938862303	1
2	16748	8912.114310604627	0
2	16760	8915.59061644144	1
2	16761	8915.934386753309	0
2	16765	8916.520934365843	1
2	16766	8916.766844991333	0
2	16805	8951.604145584052	1
2	16806	8952.124501804746	0
2	16810	8952.379611220739	1
2	16811	8953.012346140686	0
2	16845	8980.141625888958	1
2	16846	8980.471799178365	0
2	16850	8981.523762463253	1
2	16851	8981.580434425584	0
2	16870	8992.1128542305	1
2	16873	8992.864429922	0
2	16915	9003.66761370351	1
2	16918	9004.414017058038	0
2	16925	9005.633829096577	1
2	16926	9006.253569348682	0
2	16975	9022.713175804665	1
2	16976	9022.97720951503	0
2	17025	9060.790378226814	1
2	17026	9061.72537135812	0
2	17060	9083.402637305554	1
2	17061	9084.183260341686	0
2	17130	9114.648425530084	1
2	17131	9115.158987840066	0
2	17135	9116.119959786905	1
2	17136	9116.313957950739	0
2	17140	9116.452240066895	1
2	17142	9116.567964321497	2
2	17143	9117.395953689689	1
2	17147	9117.402449787199	2
2	17150	9118.427017100049	1
2	17154	9119.182953728452	2
2	17155	9119.394776290176	1
2	17158	9120.397098684856	0
2	17170	9124.317664143407	1
2	17171	9124.554400293348	0
2	17185	9127.293584406135	1
2	17188	9128.02998889775	0
2	17200	9131.178678733435	1
2	17201	9131.34240703797	0
2	17210	9132.756135822728	1
2	17211	9133.048507835065	0
2	17222	9134.312991375618	1
2	17224	9134.778779660082	2
2	17225	9135.24174610451	1
2	17230	9136.346905527824	0
2	17237	9137.411876768519	1
2	17238	9138.180162261707	0
2	17247	9139.936494511424	1
2	17248	9140.131647539326	0
2	17255	9141.656915075431	1
2	17256	9142.128240509705	0
2	17345	9172.175770226903	1
2	17346	9173.01503915822	0
2	17350	9173.329867553214	1
2	17351	9173.961604675072	0
2	17375	9179.848639333802	1
2	17376	9180.346013450871	0
2	17380	9180.4649425045	1
2	17381	9181.20174554099	0
2	17390	9183.062666361416	1
2	17391	9183.23104025765	0
2	17395	9183.611766707226	1
2	17397	9184.155338224876	2
2	17398	9184.371109045545	1
2	17402	9184.745937129606	2
2	17405	9185.320040287232	1
2	17408	9186.264129836546	0
2	17412	9187.277935786449	1
2	17413	9187.43690107443	0
2	17420	9188.849105583819	1
2	17422	9189.134019155593	2
2	17423	9189.548984278335	1
2	17428	9190.715347128796	0
2	17432	9191.407371709734	1
2	17433	9191.771404291751	0
2	17437	9191.939572976814	1
2	17438	9192.795621903489	0
2	17445	9194.048453417124	1
2	17446	9194.856212752281	0
2	17450	9195.583944630538	1
2	17451	9195.828644405833	0
2	17455	9196.611554011532	1
2	17456	9197.018373360081	0
2	17465	9198.150155996026	1
2	17466	9198.698375043335	0
2	17510	9222.536550006936	1
2	17511	9222.669695126474	0
2	17532	9233.478235909949	1
2	17533	9234.144404700567	0
2	17540	9235.655276840577	1
2	17541	9236.21773381306	0
2	17590	9270.739267118384	1
2	17593	9271.708791237585	0
2	17597	9271.918552253948	1
2	17600	9272.887254315782	0
2	17604	9273.311604723807	1
2	17605	9273.935555526036	0
2	17609	9274.161101451597	1
2	17610	9274.852771568651	0
2	17640	9283.125154178365	1
2	17642	9283.411814900679	2
2	17643	9283.678823129086	1
2	17648	9284.851401933095	0
2	17655	9285.985086113476	1
2	17656	9287.026674950867	0
2	17690	9320.125801320009	1
2	17691	9320.868960081684	0
2	17695	9321.696339067347	1
2	17696	9321.839974009051	0
2	17730	9335.310974920529	1
2	17731	9336.112834968003	0
2	17775	9361.176094920869	1
2	17776	9361.285795635974	0
2	17785	9362.308117702348	1
2	17786	9363.309992004336	0
2	17805	9372.120409093607	1
2	17806	9372.736091492178	0
2	17810	9373.011062985531	1
2	17811	9373.625407724774	0
2	17815	9373.681358610163	1
2	17816	9374.695344064611	0
2	17860	9441.009549428483	1
2	17861	9441.122901054895	0
2	17865	9441.383099198044	1
2	17867	9441.759796588438	2
2	17868	9441.945732179614	1
2	17871	9442.836769628389	0
2	17875	9443.356666240002	1
2	17876	9443.853273948332	0
2	17940	9462.130413010796	1
2	17941	9462.446426988704	0
2	17985	9499.045420787102	1
2	17986	9499.1269823572	0
2	17995	9501.144921599466	1
2	17999	9501.274874890889	2
2	18000	9501.576618835106	1
2	18005	9502.671533502694	0
2	18070	9519.199462016746	1
2	18072	9519.633392641309	2
2	18073	9520.129507515466	1
2	18076	9521.196422442122	0
2	18080	9521.923715465731	1
2	18081	9522.045544227006	0
2	18100	9543.124995239048	1
2	18101	9543.221634529066	0
2	18115	9565.417685588869	1
2	18117	9565.671840763101	2
2	18118	9565.962034625899	1
2	18121	9567.025475077763	0
2	18150	9580.321657914908	1
2	18151	9580.954192640744	0
2	18155	9581.240252977029	1
2	18156	9582.098373098224	0
2	18160	9582.735693220177	1
2	18161	9583.06973546531	0
2	18165	9583.412051421985	1
2	18166	9583.887787250448	0
2	18170	9584.325621125362	1
2	18172	9584.560665743091	2
2	18175	9585.002770780884	1
2	18178	9585.836833121646	0
2	18182	9586.533044141156	1
2	18183	9586.942190123834	0
2	18255	9625.096221161712	1
2	18256	9625.646711862255	0
2	18260	9625.928691694068	1
2	18261	9626.798735611867	0
2	18267	9627.486975671734	1
2	18268	9627.916286573913	0
2	18275	9629.200299566053	1
2	18276	9629.675511043034	0
2	18285	9630.632992817042	1
2	18286	9631.504842923656	0
2	18295	9633.048865217135	1
2	18296	9633.203415973	0
2	18300	9633.815653620112	1
2	18301	9634.147844036836	0
2	18305	9634.165524609681	1
2	18308	9635.160639105253	0
2	18345	9647.751461509274	1
2	18346	9648.414644759666	0
2	18390	9661.71841352571	1
2	18391	9662.185251786262	0
2	18435	9682.525741425128	1
2	18436	9683.291850953625	0
2	18520	9728.201457373761	1
2	18521	9728.216410690235	0
2	18527	9728.614293042492	1
2	18528	9729.087192592086	0
2	18532	9729.127136632865	1
2	18533	9730.013370365152	0
2	18540	9731.161969999031	1
2	18541	9732.150304373229	0
2	18575	9745.855645285786	1
2	18576	9746.905782524957	0
2	18645	9802.767577777278	1
2	18647	9803.395329445829	2
2	18648	9803.53087614224	1
2	18651	9804.554361121158	0
2	18655	9804.893003141976	1
2	18656	9805.548487055569	0
2	18660	9806.041800352639	1
2	18661	9806.713052456721	0
2	18665	9807.372365872617	1
2	18666	9807.612152700953	0
2	18670	9808.149728889225	1
2	18671	9808.699240281608	0
2	18675	9808.792832487065	1
2	18676	9809.589522319462	0
2	18760	9881.841229751008	1
2	18761	9882.444090012381	0
2	18790	9889.606649744682	1
2	18791	9889.62856567932	0
2	18835	9902.150515279293	1
2	18836	9903.121426942993	0
2	18880	9931.029136625785	1
2	18881	9931.783145248273	0
2	18910	9941.900539591888	1
2	18911	9942.034312290325	0
2	18920	9943.356028039549	1
2	18921	9944.098375234008	0
2	18925	9944.267740052251	1
2	18926	9945.026446402166	0
2	18930	9945.771366882527	1
2	18931	9946.053041827213	0
2	18940	9947.137235775276	1
2	18943	9947.813829901814	0
2	18947	9948.030490718538	1
2	18948	9948.989167286455	0
2	19010	10003.786681768379	1
2	19011	10004.239210556013	0
2	19020	10006.050301457373	1
2	19021	10006.337692779427	0
2	19100	10055.328002082484	1
2	19102	10055.785625937091	2
2	19103	10056.199954768852	1
2	19106	10057.095980227948	0
2	19110	10057.256748164091	1
2	19111	10058.150448465091	0
2	19115	10058.872695808734	1
2	19116	10059.251929783099	0
2	19205	10128.544009093558	1
2	19210	10129.261147821321	0
2	19216	10129.675089668721	1
2	19217	10130.233283744379	0
2	19226	10131.9585347917	1
2	19227	10132.132130296341	0
2	19234	10134.022996575827	1
2	19235	10134.064402196556	0
2	19246	10134.976805158509	1
2	19248	10135.469176730331	2
2	19249	10136.006448902935	1
2	19254	10137.034256343357	0
2	19258	10137.30798757213	1
2	19259	10138.041730082873	0
2	19266	10139.456359125597	1
2	19268	10139.820824788508	2
2	19269	10140.143271548767	1
2	19272	10140.993541684188	0
2	19276	10141.102075364998	1
2	19277	10141.852285706718	0
2	19281	10142.039396044864	1
2	19282	10142.859985263926	0
2	19370	10191.045670667111	1
2	19373	10191.714384522489	0
2	19382	10193.673540835917	1
2	19383	10193.70908935239	0
[...]
6	45920	23667.910065598069	5.342161017039
6	45925	23670.517627406327	11.13336908034
6	45935	23676.299910904196	2.035446963361
6	45965	23697.39600272056	1.051333700737
6	45975	23700.460244080919	9.434245988225
6	45992	23703.230175148278	7.779592259851
6	46032	23715.486943671025	0.942841634182
6	46057	23729.960800631079	2.011928172934
6	46095	23749.464782208037	0.800716066174
6	46110	23755.11704958492	1.05206456529
6	46117	23757.626606377288	1.057975475769
6	46135	23772.071526876694	1.001541963499
6	46140	23778.838198782727	0.969859690778
6	46145	23780.193164531573	1.049659804534
6	46150	23781.238075556176	1.009939835407
6	46232	23822.817314558862	5.869052651737
6	46235	23823.990516157648	7.09407148239
6	46245	23829.119811101407	1.900181832607
6	46294	23856.5785628061	5.708759843371
6	46300	23858.474963638858	6.981181439048
6	46342	23896.614983798798	1.124692371767
6	46372	23904.130868098567	8.249769529007
6	46385	23908.091636899348	1.527364262253
6	46400	23912.933312767754	12.038779952941
6	46475	23949.977382132191	2.049222107373
6	46565	23994.730017694535	9.973271073124
6	46575	24001.603308281135	4.662289907965
6	46580	24019.793909035255	1.004292788077
6	46605	24044.671179424814	3.384298167244
6	46645	24068.801543873113	1.47607143702
6	46655	24083.439078847737	1.094912270363
6	46700	24100.661087636834	8.222137640784
6	46712	24105.464812009018	0.984466259927
6	46715	24106.452830767054	3.779180984088
6	46752	24131.248363329129	2.660983146528
6	46787	24159.92635490535	1.243588690028
6	46825	24174.089650972315	7.221270164712
6	46862	24190.289218882216	1.028884201126
6	46867	24191.402614984033	1.129997206303
6	46882	24236.098576139256	1.056672911718
6	46895	24239.614131441006	3.693854150911
6	46910	24270.358409591427	1.123495179228
6	46917	24272.028205919362	0.903997878265
6	46960	24311.859810717439	0.935257125087
6	46975	24327.645210230564	1.054898210056
6	47030	24356.874848093646	1.034773082845
6	47055	24366.975295480798	7.192656973663
6	47094	24399.314829166038	1.001526261866
6	47104	24401.478002867372	2.779910140904
6	47115	24404.972361666342	1.007491641585
6	47150	24415.269954709002	4.067732216474
6	47180	24433.978028090314	2.339087655115
6	47195	24441.174312368638	5.025863130263
6	47220	24449.275786455574	5.987508037308
6	47227	24456.315366748691	0.84285091646
6	47270	24478.497861055402	1.373259706802
6	47275	24488.291090805906	0.882891376689
6	47285	24496.57787315386	2.032278308054
6	47300	24510.417487118183	1.844008229601
6	47315	24528.861296339138	0.964264593646
6	47329	24534.368768249784	1.17752483869
6	47332	24535.389856429451	2.162666856031
6	47357	24543.201479097738	14.108073155678
6	47382	24556.807312382628	1.153076155949
6	47390	24564.166610313668	0.967403955664
6	47422	24588.66422777906	0.952869040892
6	47425	24589.519294711239	1.38387270183
6	47440	24593.77992134264	1.302476501461
6	47457	24599.426242982957	8.143919802177
6	47475	24605.002485492208	6.379399735983
6	47542	24627.89397035363	2.06554733097
6	47555	24632.945020181377	1.810796090177
6	47570	24640.707541478219	5.914194910704
6	47590	24648.263772403479	0.895034267008
6	47597	24669.614088669281	1.010826977342
6	47610	24674.132697236337	5.177786186125
6	47721	24709.890664927696	11.096384029139
6	47736	24712.996366103866	6.638076296877
6	47759	24718.065018296742	7.523616492502
6	47765	24720.027326302824	12.877227098818
6	47830	24742.286438413125	6.450756365532
6	47902	24762.44167681378	1.93373944915
6	47947	24772.045376964567	2.159351172953
6	47972	24782.174765987723	7.638123643453
6	47997	24789.915070777497	8.140382339321
6	48027	24795.783458537081	2.639889996295
6	48045	24803.915612387928	2.705959782935
6	48050	24808.338283679532	1.183016975503
6	48085	24838.438678154893	1.135178689659
6	48110	24855.263492089345	4.987245392097
6	48172	24868.076471096756	4.492130795971
6	48177	24869.148544373283	1.801480421107
6	48190	24886.42822788329	1.030812799558
6	48212	24894.290336813405	3.999717794635
6	48245	24902.703963072404	3.323211968083
6	48267	24908.936616798803	13.096577776287
6	48284	24912.949647320006	1.128715490177
6	48405	24946.52635012825	7.436869486684
6	48440	24964.67713121675	3.509999566926
6	48505	25011.327223855405	0.996297006123
6	48515	25016.462750847824	2.213816724856
6	48525	25020.285018320925	2.592428840488
6	48535	25027.329137167062	0.985074963514
6	48555	25041.920864400188	1.050670345221
6	48565	25051.373364603355	1.029134895094
6	48577	25069.23915023653	1.16670355387
6	48590	25075.883818886388	1.090443426371
6	48600	25084.292394690374	1.143468755204
6	48655	25107.261235443301	0.85252239937
6	48730	25174.215302137689	3.968176638303
6	48765	25186.81280289252	5.806512147271
6	48777	25191.423485602584	1.815628126523
6	48820	25216.941759235768	5.912477587199
6	48927	25266.728541118735	4.716975198423
6	48937	25269.384495449828	0.994873980619
6	48942	25270.350731328892	1.927570204761
6	48950	25272.533659146185	1.267823157773
6	48982	25284.148931909618	0.892118926719
6	48990	25286.183713623495	6.232021722644
6	49012	25298.634065440933	1.175399682112
6	49015	25299.66714775868	1.31757040343
6	49040	25307.502186199387	4.553285022052
6	49082	25321.732185931392	10.62641768796
6	49085	25322.540560185704	7.779287853335
6	49095	25327.365681479233	2.742298581975
6	49135	25365.151730836548	0.932338587102
6	49167	25378.156883964562	4.241862621438
6	49200	25401.080044204936	0.88068520138
6	49215	25404.42845163329	2.322031292162
6	49245	25417.298579860558	1.018258113042
6	49285	25432.654273910901	1.683387328606
6	49305	25450.372982597591	4.375405033434
6	49375	25487.740646003526	0.923026186507
6	49417	25530.940698524004	1.007056149561
6	49491	25564.698295174783	6.019611932689
6	49515	25570.604330068512	12.688995597065
6	49525	25573.655444983537	14.45678250652
6	49530	25575.682259004668	1.00518799061
6	49592	25611.595789510798	1.519567227065
6	49607	25614.77743006532	2.118346617651
6	49615	25616.683923729759	1.24246565458
6	49620	25618.715993828	5.632350014058
6	49667	25645.004383778196	17.759688809032
6	49705	25662.709332989468	7.824033667171
6	49742	25670.740738293061	1.617542142852
6	49762	25678.92395108966	4.8250094893
6	49775	25685.40594973058	7.019205159913
6	49832	25717.232913709888	4.006250744607
6	49855	25725.591527321259	2.420787384684
6	49869	25728.279616363251	7.723925532929
6	49892	25733.648328250489	4.513689596959
6	49897	25734.625785119581	1.379384338332
6	49920	25741.916119940492	14.610204550921
6	49930	25747.880998005899	2.709741924578
6	49940	25765.807337345896	0.877282458637
6	49977	25784.699649738428	1.558220802455
6	49980	25785.835449594633	4.79724805995
6	49990	25792.016353329964	4.469340780692
6	50060	25838.92247190629	1.072757148184
6	50125	25860.046799575572	9.492127503593
6	50147	25870.894757426839	1.746591918345
6	50150	25871.902153588023	1.422971560122
6	50162	25885.838101424514	3.63193957596
6	50165	25886.709319257135	1.511115745806
6	50190	25902.400553095233	9.462111299538
6	50227	25921.258255604572	0.864345186669
6	50247	25925.38447027831	4.654785229828
6	50275	25941.903282655973	4.950758196678
6	50285	25944.39940239514	4.30022517895
6	50387	25965.45889685814	17.902250009236
6	50390	25966.501106545224	5.724190605126
6	50415	25991.433849343821	2.808191981072
6	50439	25995.881715003505	1.298265764113
6	50457	26000.147678230852	1.198456519063
6	50465	26002.344221882944	4.25973041476
6	50530	26051.019017035525	0.810292113293
6	50537	26054.593151764121	1.036737849843
6	50586	26064.138351953673	7.060287056771
6	50610	26070.07035950524	11.207718542044
6	50630	26075.836678007893	16.194837131904
6	50640	26081.332426477236	2.436147270132
6	50667	26093.909314439063	4.207427021359
6	50700	26104.523033766253	7.366117925237
6	50725	26115.136569502136	3.621097986829
6	50740	26121.398559438813	2.13435084586
6	50760	26153.044049613187	6.003490309719
6	50830	26184.585073244198	1.189962580428
6	50925	26218.145385564592	9.854237743179
6	50955	26229.082088093911	3.850951579513
6	51025	26264.716794388482	10.490704171686
6	51037	26267.869612302892	1.17423762416
6	51065	26278.853244030434	1.028122307826
6	51080	26292.480283498039	1.705969942361
6	51110	26306.055463406147	6.008765002447
6	51145	26335.153458817034	8.276112815653
6	51169	26362.967458697268	5.017540306977
6	51195	26370.123679166933	1.075822353922
6	51200	26373.701958852069	1.124661528319
6	51210	26380.502656197986	2.720983996742
6	51247	26394.649519751631	2.024678108791
6	51265	26399.561506319043	3.187829709181
6	51365	26454.69240949456	13.282684210452
6	51370	26457.215768873257	1.132958063297
6	51404	26477.369689410939	3.850259853342
6	51501	26497.283585422004	14.171526598552
6	51512	26500.238564133162	14.624740773582
6	51535	26508.530470043358	14.973240897161
6	51560	26514.949150832534	5.409440704998
6	51572	26519.676034828159	0.839472643565
6	51622	26568.285744159097	0.85294860797
6	51630	26570.917821270517	3.480690968586
6	51642	26578.204855367543	2.599208813732
6	51645	26579.210291326793	1.254379319103
6	51660	26590.101784236391	0.901164186839
6	51727	26606.618251099868	2.833870900769
6	51737	26608.748454654461	12.147728752971
6	51750	26613.218358029403	11.370892417777
6	51757	26616.883515518978	0.853431381844
6	51807	26627.053670904472	4.088746266499
6	51847	26635.446454859678	4.113166050713
6	51860	26638.399803903832	8.255209069717
6	51914	26672.994948969198	1.135768525209
6	51922	26674.825629145628	1.982263366304
6	51927	26675.807208886346	1.56678341069
6	52045	26733.976693025479	3.546639592058
6	52062	26751.823609201309	1.113779870979
6	52092	26759.885765833033	3.148607325181
6	52140	26782.723793247209	2.773195869103
6	52177	26808.427827648697	2.821214759909
6	52187	26810.553736392007	1.414559139611
6	52215	26818.655262025986	1.529049427977
6	52220	26823.879741909445	0.821387745999
6	52232	26832.356662190976	1.660011698839
6	52242	26835.952849309054	5.633493064074
6	52245	26836.82959385654	1.368716587265
6	52270	26845.828039263165	3.769321715245
6	52290	26872.799103202843	2.633970141029
6	52310	26883.771095207295	1.1012035436
6	52330	26891.961912726068	4.306329799337
6	52345	26895.732696946695	0.992473290861
6	52355	26919.920835356767	0.811962064728
6	52365	26938.908905000013	1.018941207789
6	52385	26947.462996911017	0.936140237935
6	52407	26981.825110714829	3.215827706944
6	52435	26995.13892623632	3.820169491389
6	52465	27025.191618286296	0.981333795097
6	52470	27045.405807053165	1.073212072346
6	52475	27049.32420274548	0.977664811537
6	52550	27079.603521173022	1.327650734854
6	52557	27080.926444368783	7.232837852326
6	52664	27101.919865378561	24.866698729129
6	52672	27103.899734141129	15.873559636341
6	52700	27122.468329932895	2.799818223118
6	52705	27132.86095424096	0.855472003017
6	52740	27147.805880297774	6.610944145458
6	52747	27149.629979116418	1.008250735793
6	52770	27170.646276845688	2.92230174751
6	52800	27179.831560477103	6.147882901906
6	52855	27199.832678639073	8.199285823253
6	52872	27203.947918807009	1.521693361317
6	52887	27210.020956995555	25.620775218722
6	52934	27228.685607112826	4.28834260246
6	53014	27256.644458187098	1.271180536631
6	53022	27258.58001723793	3.079416932007
6	53040	27264.741648134618	3.146371425409
6	53052	27272.206829914547	1.186580761801
6	53109	27311.179289308616	1.221120571118
6	53139	27316.783825188796	1.775420460006
6	53144	27317.89616786215	2.849876227186
6	53152	27319.772663836568	10.475461731905
6	53165	27325.943499833987	0.833305476606
6	53274	27378.395293840791	2.362541579483
6	53292	27382.259860555294	9.636915124909
6	53310	27387.306410700819	1.279044724496
6	53322	27400.487749558662	1.878144969896
6	53330	27404.624291275328	1.089863091428
6	53350	27413.71114997515	6.641505809506
6	53385	27453.461762273418	1.176041919366
6	53392	27457.58346209642	0.879753006063
6	53407	27471.66774596857	1.081600406207
6	53494	27491.42841411786	19.491937755046
6	53500	27493.646901827434	9.702964727389
6	53537	27530.760917449995	1.898403067247
6	53577	27571.709096035418	0.876761861332
6	53605	27590.023727806189	1.195115298336
6	53672	27611.446892441841	5.666951481274
6	53677	27612.557219032789	7.856203290791
6	53715	27629.0371475217	5.07304693447
6	53725	27635.586264916376	3.940396502928
6	53754	27682.344416185981	0.848220777325
6	53775	27702.84631943147	0.996081788279
6	53785	27705.750677419236	5.669032198652
6	53790	27707.780127581531	1.061142632272
6	53802	27719.903589197593	1.183759623164
6	53810	27725.161632850389	0.929804617167
6	53830	27739.317129947008	5.757093667969
6	53845	27745.280187037514	0.906091405733
6	53867	27763.170072300027	0.985008597746
6	53902	27780.882081803861	5.938046645814
6	53905	27782.038032106399	7.58911593477
6	53917	27784.519136432303	1.827925955135
6	53950	27792.316747657694	5.690995790789
6	54010	27829.982953612646	1.033308726549
6	54029	27842.873516526356	0.83143588379
6	54049	27846.889780875112	4.136751893653
6	54055	27849.057162162571	2.406859162275
6	54075	27857.775778719393	1.054193320312
6	54090	27860.846434592393	2.957808684371
6	54109	27866.425556878517	2.333144853399
6	54175	27900.77651391499	0.889560425095
6	54180	27906.305758433878	0.902875611931
6	54245	27942.118428201716	13.265806134051
6	54260	27949.462500711481	9.881273955668
6	54317	27971.006860626694	3.929972402053
6	54320	27971.937960766275	2.043519939084
6	54342	27990.240997124753	5.132291662565
6	54345	27991.321646254986	3.434314691733
6	54350	27998.375495746202	0.830100251455
6	54365	28004.01461252084	3.120697302744
6	54400	28048.032619508472	1.329111703856
6	54443	28055.600328667661	6.244657657585
6	54547	28078.910272818923	25.789823409324
6	54587	28110.811813514706	5.494065264099
6	54600	28114.251826264831	4.888281586085
6	54605	28116.470583948564	1.121705672983
6	54727	28144.651780016501	15.582431955762
6	54760	28160.562621664188	4.815316561317
6	54785	28172.838648426424	8.310074292087
6	54795	28175.465594173315	2.131930811343
6	54805	28184.722398501838	0.811554078758
6	54907	28222.529234271526	1.037312175072
6	54944	28232.606617931398	5.148868923729
6	54970	28240.070937485326	11.161587987987
6	54975	28241.793855740168	13.857985252988
6	54980	28254.608288278464	1.13986328207
6	54985	28259.945977211041	0.855218999088
6	55007	28265.686940144696	4.083363078114
6	55014	28266.7370852387	4.995013654592
6	55020	28268.896095445887	5.872275349559
6	55047	28274.797501872439	8.891341714499
6	55055	28276.530233623233	1.085690447829
6	55070	28286.223693197804	2.732647360957
6	55082	28298.681583370426	0.955032972246
6	55152	28317.945567157153	11.868904938283
6	55165	28338.898255880062	0.882107932493
6	55177	28342.811422308559	2.078135383204
6	55185	28346.571869924046	5.927185603985
6	55215	28368.555768121602	1.143904151954
6	55250	28384.952694097984	0.937163146492
6	55267	28395.293764344679	1.36241329711
6	55272	28396.198684226611	1.837750495812
6	55287	28399.087529593223	2.979156515474
6	55295	28401.364995561523	2.154721992566
6	55322	28417.631426223721	1.271014014908
6	55325	28418.722842091303	3.169430041965
6	55342	28423.576726741274	0.910411265772
6	55347	28424.596863010735	1.683756945864
6	55355	28426.994045114281	7.489766862257
6	55365	28443.693545776722	1.061838088743
6	55382	28447.815505481719	3.053664531945
6	55392	28450.66601816009	5.004280717997
6	55395	28451.667331895821	1.262291103782
6	55437	28484.208685696429	1.086143162567
6	55464	28491.546740977354	1.470831182414
6	55525	28510.002241489549	1.185431944299
6	55577	28530.15368877141	2.354425820916
6	55597	28534.408928177362	9.968339269512
6	55642	28558.297221126934	1.192393468557
6	55655	28568.925183617023	1.080919457879
6	55672	28586.118353429198	1.199942491204
6	55675	28587.266925668012	2.31515744842
6	55685	28592.124870403638	0.928371541947
6	55700	28619.403729946665	2.762277910028
6	55715	28637.683312887376	4.624817476298
6	55762	28662.149400621068	1.099984169472
6	55775	28666.32471641282	12.72458785503
6	55785	28673.913702914483	3.218091898316
6	55802	28679.456937184366	1.060058991052
6	55820	28688.488380580711	0.919766480103
6	55847	28701.155348700736	9.570609778177
6	55850	28701.984538638857	1.556555966271
6	55875	28708.468649037212	5.923128440439
6	55920	28725.417766224052	4.300533554003
6	55970	28742.607628947571	15.353244965928
6	55989	28746.62112389155	2.882614870886
6	55995	28748.577930953114	2.488546465098
6	56064	28776.161677632378	7.230870782677
6	56112	28786.448452544842	10.854109616713
6	56130	28790.230659872737	2.951562513144
6	56164	28796.954306949123	5.258233299428
6	56199	28810.421796445667	3.181884602529
6	56207	28812.452030551366	3.103924033819
6	56250	28821.383183312163	7.425657483649
6	56276	28827.721357514294	9.700272274313
6	56286	28829.711558087221	7.456943404443
6	56292	28832.091866840566	5.147197045599
6	56320	28840.976025501685	17.269340963428
6	56339	28852.563659907815	3.068670182117
6	56345	28854.435017668766	4.239709175354
6	56359	28856.952283343758	1.219693424879
6	56369	28858.951968849256	4.129997781571
6	56406	28866.425597639589	5.480427501725
6	56409	28867.26061872991	6.122871708054
6	56414	28868.091877267623	17.386467023662
6	56419	28869.283139498645	10.523445748753
6	56459	28876.788832063715	9.371148346148
6	56542	28896.916949289462	1.199149747845
6	56562	28901.249883416966	25.918937497076
6	56580	28912.46027933372	0.89966046568
6	56602	28925.81815155035	0.920667922962
6	56605	28926.730559357424	1.304862545719
6	56662	28957.577514292878	10.360024017742
6	56677	28965.493439586396	3.294498825841
6	56692	28968.30724452029	3.154605094448
6	56717	28980.409439861868	1.102558581531
6	56720	28981.55773612177	1.743079599849
6	56725	28986.459881015417	1.089012026414
6	56752	29019.403743153501	1.15475231465
6	56760	29021.247661898389	4.614965502943
6	56785	29032.187529066718	3.83266011237
6	56797	29038.686288182436	1.032499789912
6	56840	29062.523658835228	2.718422505379
6	56912	29077.58412546417	13.732107355374
6	56940	29087.666762031822	21.787169045855
6	57020	29137.536890792052	8.945073371591
6	57030	29148.677074616622	2.045424218487
6	57035	29150.354701706997	1.017347068992
6	57075	29185.93146178046	2.225983249626
6	57105	29196.417536186798	2.368556216942
6	57179	29232.299251297605	8.884450342506
6	57192	29235.383087090985	10.977255811566
6	57200	29238.3383561181	10.965823828606
6	57220	29260.415302796027	2.94899944714
6	57245	29267.10680219001	6.52873029423
6	57287	29286.815385867357	7.511675349601
6	57317	29293.105653802007	15.707811421833
6	57355	29305.444351139841	12.295420742954
6	57367	29309.169720191385	0.863573719747
6	57375	29312.368208783955	6.518710609497
6	57397	29342.739875185369	0.87447481025
6	57412	29347.180012452032	1.934390956745
6	57485	29368.378100419732	26.311541622797
6	57495	29370.911634019799	4.801369828266
6	57520	29413.377529171466	8.296283245181
6	57572	29428.95862127904	10.0803389201
6	57600	29458.083400657318	0.937230283208
6	57614	29469.990569429845	2.560146200069
6	57655	29488.715362003218	4.069009676091
6	57660	29490.220378917849	0.829088590015
6	57694	29505.33878653326	3.850783332462
6	57867	29596.046100130631	0.927479476575
6	57877	29597.799921977194	14.530271895908
6	57885	29599.749539009198	16.63166683733
6	57895	29602.421381761186	1.230907008752
6	57927	29618.68417705335	4.014193539847
6	58010	29681.689481629968	0.861063516326
6	58015	29689.363914993089	1.155346794613
6	58040	29699.538006654609	1.315407908944
6	58110	29717.396911847746	1.17894467644
6	58164	29740.746786905949	5.14930999057
6	58187	29745.540253545187	5.592067036917
6	58237	29759.633097365718	1.160604143981
6	58252	29762.963431321025	2.31173770791
6	58294	29782.154025910479	1.195044748121
6	58297	29783.266384001506	6.476837066017
6	58300	29784.204016453085	2.30568966918
6	58350	29807.140143933403	0.831898800191
6	58375	29820.309732075358	2.922342412559
6	58380	29837.606749344702	1.078488893155
6	58415	29865.152031488683	0.948296092078
6	58425	29874.407486987007	0.862212943099
6	58495	29916.634695662379	2.036298324077
6	58572	29950.330428043955	5.053114967292
6	58592	29954.356551941959	12.529430733384
6	58622	29963.84747799832	4.52885252397
6	58672	29976.363069779251	11.074544587348
6	58717	29985.506334764708	6.417402428555

