version 2
run Second_exit_8-12-20191114-11:42:47-8958
attr configname Second_exit_8
attr datetime 20191114-11:42:47
attr experiment Second_exit_8
attr inifile omnetpp.ini
attr iterationvars ""
attr iterationvarsf ""
attr measurement ""
attr network ResponseTimeNetwork
attr processid 8958
attr repetition 12
attr replication #12
attr resultdir results
attr runnumber 12
attr seedset 12
param **.Source.interArrivalTime exponential(5s)
param **.jobPriority bernoulli(0.6)
param **.PS.serviceTimeU1 "uniform(0.8s, 1.2s)"
param **.PS.serviceTimeU2 "uniform(1.8s, 2.2s)"
param **.SS1.serviceTime exponential(1s)
param **.SS2.serviceTime exponential(1.2s)
param **.PS.exitProbability bernoulli(0.8)

vector 0 ResponseTimeNetwork.QueueU1 queueLength:vector ETV
attr interpolationmode sample-hold
attr title "queue length, vector"
vector 1 ResponseTimeNetwork.sink lifeTimeU2:vector ETV
attr interpolationmode none
attr title "lifetime of arrived jobs U2, vector"
attr unit s
vector 2 ResponseTimeNetwork.sink totalServiceTimeU2:vector ETV
attr interpolationmode none
attr title "the total time spent  by arrived jobs U2, vector"
attr unit s
vector 3 ResponseTimeNetwork.sink lifeTime:vector ETV
attr interpolationmode none
attr title "lifetime of arrived jobs, vector"
attr unit s
vector 4 ResponseTimeNetwork.sink totalServiceTime:vector ETV
attr interpolationmode none
attr title "the total time spent  by arrived jobs, vector"
attr unit s
vector 5 ResponseTimeNetwork.QueueU2 queueLength:vector ETV
attr interpolationmode sample-hold
attr title "queue length, vector"
vector 6 ResponseTimeNetwork.SS2 queueLength:vector ETV
attr interpolationmode sample-hold
attr title "queue length, vector"
vector 7 ResponseTimeNetwork.sink lifeTimeU1:vector ETV
attr interpolationmode none
attr title "lifetime of arrived jobs U1, vector"
attr unit s
vector 8 ResponseTimeNetwork.sink totalServiceTimeU1:vector ETV
attr interpolationmode none
attr title "the total time spent  by arrived jobs U1, vector"
attr unit s
vector 9 ResponseTimeNetwork.SS1 queueLength:vector ETV
attr interpolationmode sample-hold
attr title "queue length, vector"
0	46367	10000.700279153952	0
0	46374	10002.30631528661	1
0	46375	10002.876431162165	0
0	46382	10004.411855861481	1
0	46383	10004.838604146311	0
0	46390	10006.14093928476	1
0	46391	10006.544240048597	0
0	46398	10007.704537553023	1
0	46399	10008.480579752638	0
0	46410	10010.361280098179	1
0	46411	10010.577850121609	0
0	46415	10011.533403300965	1
0	46416	10011.680822569854	0
0	46428	10014.034871802614	1
0	46429	10014.275596919634	0
0	46433	10014.848612233607	1
0	46436	10015.468404514414	0
0	46442	10016.082483255208	1
0	46443	10016.484807383061	0
0	46450	10017.969894543781	1
0	46451	10018.384240617674	0
0	46460	10019.775376541839	1
0	46465	10020.246785969358	0
0	46477	10022.848429608069	1
0	46478	10023.192061441463	0
0	46484	10023.990033657208	1
0	46486	10023.996074617522	2
0	46487	10024.242480234687	1
0	46491	10024.701215095688	2
0	46492	10025.144142589231	1
0	46498	10025.927646370168	2
0	46499	10026.104278252345	1
0	46502	10027.266388177384	0
0	46506	10027.446953156166	1
0	46507	10028.40138100756	0
0	46514	10029.987257721238	1
0	46515	10030.175235213224	0
0	46521	10031.17097685911	1
0	46522	10031.277066566121	0
0	46526	10031.28022772034	1
0	46527	10032.313669582341	0
0	46534	10033.542520340253	1
0	46536	10033.578018067768	2
0	46538	10033.617900005073	3
0	46539	10034.139373650473	2
0	46546	10035.282775574156	1
0	46550	10035.561060739812	2
0	46552	10036.344160493211	3
0	46553	10036.383191921354	2
0	46557	10037.147668473427	3
0	46558	10037.326545030602	2
0	46561	10038.26464847976	1
0	46565	10038.995870086769	2
0	46566	10039.070758582164	1
0	46570	10039.159838219576	2
0	46571	10040.13926027564	1
0	46574	10040.987087610901	0
0	46578	10041.257088830578	1
0	46580	10041.445016084507	2
0	46583	10042.162142701798	1
0	46587	10042.517775393237	2
0	46588	10043.327115956765	1
0	46591	10044.391402511277	0
0	46601	10046.598545509844	1
0	46603	10046.749615637415	2
0	46606	10047.50671976337	1
0	46609	10048.39163514504	0
0	46647	10056.112029389508	1
0	46648	10057.225308966337	0
0	46652	10058.220527615929	1
0	46653	10058.243880631941	0
0	46657	10058.328606242986	1
0	46660	10059.409618714804	0
0	46669	10061.143595438525	1
0	46670	10061.348239769486	0
0	46674	10061.433944217013	1
0	46675	10062.395077881196	0
0	46679	10062.453805226975	1
0	46680	10063.230820282621	0
0	46684	10063.299380420723	1
0	46685	10064.063317674843	0
0	46689	10064.402516431574	1
0	46690	10065.240505717115	0
0	46699	10066.280053535573	1
0	46700	10066.941307546084	0
0	46714	10069.517011501743	1
0	46715	10070.289199722816	0
0	46724	10071.316394947819	1
0	46725	10072.296561020404	0
0	46756	10078.20727160672	1
0	46757	10078.266537475191	0
0	46766	10079.689835451132	1
0	46767	10080.293584658183	0
0	46847	10096.675661695217	1
0	46848	10096.900706842798	0
0	46852	10097.278132672535	1
0	46857	10097.729047808866	0
0	46861	10098.173059032939	1
0	46862	10098.903676410089	0
0	46872	10101.449481895725	1
0	46873	10101.745768527476	0
0	46880	10103.591422341576	1
0	46881	10103.709857991965	0
0	46885	10103.886852889899	1
0	46890	10104.624026486719	0
0	46894	10105.270794481576	1
0	46895	10105.75193253213	0
0	46899	10105.91646873693	1
0	46900	10106.566763288317	0
0	46904	10106.983935830015	1
0	46905	10107.650933540309	0
0	46909	10108.313643558447	1
0	46910	10108.493076911172	0
0	46920	10110.761265108753	1
0	46921	10111.233426768588	0
0	46933	10113.010187704189	1
0	46935	10113.785843425292	2
0	46936	10114.065542299649	1
0	46939	10115.241538295592	0
0	46943	10116.112596108066	1
0	46944	10116.404090027208	0
0	46948	10117.203474403081	1
0	46949	10117.445710474602	0
0	46953	10117.635376913922	1
0	46955	10117.997973918421	2
0	46956	10118.63619530953	1
0	46959	10119.669761708914	0
0	46963	10119.893427824701	1
0	46964	10120.845841733715	0
0	46968	10120.97405023229	1
0	46970	10121.193720009869	2
0	46971	10121.962698548822	1
0	46974	10123.073423271323	0
0	46981	10125.132307265346	1
0	46982	10125.14636965075	0
0	46986	10125.532260925572	1
0	46987	10126.216976942843	0
0	46994	10127.412856503785	1
0	46997	10128.25916359208	0
0	47001	10128.293615763895	1
0	47002	10129.06023376591	0
0	47009	10130.277462668338	1
0	47010	10130.947730976971	0
0	47014	10131.612412643205	1
0	47015	10131.92400021858	0
0	47019	10132.252216036236	1
0	47020	10132.760263114492	0
0	47034	10134.804494076232	1
0	47036	10135.374181395663	2
0	47037	10135.850337138748	1
0	47043	10136.307680951747	2
0	47044	10136.982451979606	1
0	47049	10138.067820948432	0
0	47053	10138.516972312287	1
0	47054	10139.043474276992	0
0	47063	10140.153200336696	1
0	47065	10140.301282511619	2
0	47067	10140.704996330771	3
0	47068	10140.878874589293	2
0	47071	10141.958259067754	1
0	47075	10142.218450668919	2
0	47076	10143.143741320981	1
0	47080	10143.477743967395	2
0	47083	10144.326607891428	1
0	47086	10145.400088459882	0
0	47093	10146.860725359285	1
0	47094	10147.370299520786	0
0	47098	10147.811300781112	1
0	47102	10148.132962307498	2
0	47103	10148.375296144909	1
0	47106	10149.181493510003	0
0	47110	10149.586806870825	1
0	47111	10150.321269670664	0
0	47115	10151.048714303258	1
0	47116	10151.215773308626	0
0	47123	10152.238575108715	1
0	47124	10153.256326704355	0
0	47128	10153.279281855586	1
0	47130	10153.481878824821	2
0	47131	10154.126443868013	1
0	47135	10154.427665448223	2
0	47137	10154.58013798496	3
0	47138	10155.017669044318	2
0	47142	10155.495307473497	3
0	47143	10155.985382183431	2
0	47147	10156.487081689597	3
0	47148	10156.949775945651	2
0	47151	10158.071619731537	1
0	47154	10158.95298022551	0
0	47158	10159.464288331915	1
0	47159	10159.988865498803	0
0	47163	10160.177064454059	1
0	47165	10160.711385276757	2
0	47166	10160.892255238793	1
0	47169	10161.695745489444	0
0	47250	10181.306879342679	1
0	47253	10181.76523573443	0
0	47259	10182.018962930518	1
0	47260	10182.778533174821	0
0	47266	10183.604258423939	1
0	47269	10183.905300756895	0
0	47273	10183.950243555723	1
0	47277	10184.626325464924	2
0	47278	10185.045837535595	1
0	47282	10185.19278053359	2
0	47285	10186.244611709637	1
0	47288	10187.204624357799	0
0	47292	10187.655391706196	1
0	47294	10188.086734016936	2
0	47295	10188.116855655031	1
0	47299	10188.231088607309	2
0	47300	10189.013373796807	1
0	47303	10190.022178353069	0
0	47307	10190.462742037047	1
0	47309	10190.736113865059	2
0	47310	10191.198912391511	1
0	47314	10191.686046911506	2
0	47316	10191.726869219822	3
0	47317	10192.22794078456	2
0	47321	10192.697334926394	3
0	47322	10193.398550578745	2
0	47325	10194.202951529602	1
0	47329	10194.867421041181	2
0	47330	10195.393847742657	1
0	47333	10196.294964756797	0
0	47337	10196.960924225856	1
0	47338	10197.442891336306	0
0	47345	10198.715733881431	1
0	47346	10199.583087424262	0
0	47350	10199.919351457678	1
0	47352	10200.094275097275	2
0	47354	10200.462383844286	3
0	47355	10200.65260746207	2
0	47360	10201.497570246252	1
0	47364	10201.671808283148	2
0	47368	10202.063874672657	3
0	47369	10202.487809685132	2
0	47373	10203.194717385656	3
0	47375	10203.553344980114	4
0	47376	10203.671591373047	3
0	47380	10204.356856699342	4
0	47381	10204.667963713946	3
0	47385	10204.89633415406	4
0	47386	10205.757503362259	3
0	47390	10206.407469090774	4
0	47391	10206.568390228672	3
0	47395	10207.379975666873	4
0	47396	10207.404029419439	3
0	47399	10208.375111494565	2
0	47403	10209.425768699637	3
0	47404	10209.505985952427	2
0	47409	10210.339549995565	1
0	47413	10210.403730935569	2
0	47414	10211.2326758025	1
0	47418	10212.050708650158	2
0	47419	10212.229835919642	1
0	47423	10212.333152620418	2
0	47425	10213.132959253955	3
0	47426	10213.369535174013	2
0	47429	10214.288512555488	1
0	47432	10215.44754321545	0
0	47438	10216.103552906246	1
0	47441	10216.642397443369	0
0	47445	10216.680807166969	1
0	47446	10217.443046382047	0
0	47458	10219.831569189847	1
0	47459	10220.529143952742	0
0	47466	10221.723921687212	1
0	47468	10222.274269812281	2
0	47469	10222.284898838844	1
0	47472	10223.428360048938	0
0	47481	10224.805157248483	1
0	47484	10225.433203687403	0
0	47493	10226.569942179135	1
0	47494	10227.418968972076	0
0	47503	10228.554566857501	1
0	47504	10229.126967168484	0
0	47513	10230.241484549938	1
0	47514	10230.951357165795	0
0	47523	10232.318239632458	1
0	47524	10232.874173619949	0
0	47546	10237.101122360961	1
0	47549	10237.721326808517	0
0	47558	10238.854143344835	1
0	47559	10239.889880668537	0
0	47568	10241.464409045831	1
0	47569	10241.601905076091	0
0	47578	10242.953976437148	1
0	47579	10243.591178982217	0
0	47591	10245.571214414183	1
0	47592	10246.683899978154	0
0	47598	10247.439126078129	1
0	47599	10247.51754315484	0
0	47603	10247.820172935806	1
0	47605	10248.041452127711	2
0	47606	10248.357091989626	1
0	47610	10248.594382201784	2
0	47613	10249.440468703282	1
0	47616	10250.597649509066	0
0	47620	10251.300207403721	1
0	47623	10251.700777715423	0
0	47632	10253.081728188443	1
0	47634	10253.543690055376	2
0	47636	10253.772357957667	3
0	47637	10254.021391946056	2
0	47640	10254.851471538727	1
0	47645	10255.808316537996	0
0	47654	10256.88773059204	1
0	47656	10257.606442809209	2
0	47657	10257.667344987837	1
0	47663	10258.515813664226	2
0	47664	10258.52201886324	1
0	47668	10259.279904832754	2
0	47669	10259.646833536008	1
0	47673	10259.840257763187	2
0	47674	10260.840966101622	1
0	47678	10261.188737703396	2
0	47679	10261.884643460324	1
0	47683	10262.124562928625	2
0	47684	10262.911190803701	1
0	47688	10263.234171597885	2
0	47690	10263.529163261204	3
0	47691	10264.094683281684	2
0	47694	10265.214875254014	1
0	47697	10266.088993462899	0
0	47701	10266.271582817053	1
0	47703	10266.330360493425	2
0	47704	10267.048023578503	1
0	47707	10267.861528031134	0
0	47711	10268.174965621296	1
0	47713	10268.602059462101	2
0	47714	10268.949487634447	1
0	47718	10269.575252119954	2
0	47719	10269.847646652606	1
0	47724	10270.659872507375	0
0	47728	10270.872187985321	1
0	47730	10271.520944879657	2
0	47731	10271.738783244953	1
0	47734	10272.867594382052	0
0	47738	10273.218610143827	1
0	47741	10273.760189156026	0
0	47745	10274.242955668843	1
0	47746	10274.885354937684	0
0	47750	10275.176760135447	1
0	47751	10275.898403276853	0
0	47755	10276.561820316642	1
0	47756	10276.96039538968	0
0	47766	10278.759082964908	1
0	47769	10279.57597441876	0
0	47775	10280.616918586613	1
0	47776	10280.715089229473	0
0	47783	10281.805117716541	1
0	47785	10281.989634786373	2
0	47786	10282.77122320838	1
0	47789	10283.827208567203	0
0	47793	10284.173153410599	1
0	47794	10284.988477256407	0
0	47801	10286.067399285175	1
0	47802	10286.741947373447	0
0	47806	10287.281604444859	1
0	47807	10287.687848748711	0
0	47816	10289.34887434886	1
0	47817	10289.826376728599	0
0	47823	10290.080466133308	1
0	47825	10290.181139181023	2
0	47826	10290.953332203326	1
0	47830	10291.194803741392	2
0	47831	10291.952976931424	1
0	47834	10292.788842198231	0
0	47841	10293.771043709018	1
0	47842	10294.804666822288	0
0	47848	10295.766713472343	1
0	47849	10295.986427600846	0
0	47856	10297.292638960907	1
0	47858	10297.711795131875	2
0	47859	10297.726383702715	1
0	47862	10298.85555727666	0
0	47868	10299.338596790108	1
0	47869	10299.969120818262	0
0	47873	10300.388534927875	1
0	47874	10300.77670589674	0
0	47878	10301.406201294219	1
0	47879	10301.598439576642	0
0	47883	10301.708027929602	1
0	47885	10301.974859559909	2
0	47886	10302.672624190037	1
0	47889	10303.730873660722	0
0	47912	10309.483185298078	1
0	47913	10309.85782990379	0
0	47919	10310.181980593617	1
0	47920	10310.831271104493	0
0	47934	10313.348779107386	1
0	47936	10313.516195535354	2
0	47941	10314.188056547266	1
0	47945	10314.620046250306	2
0	47950	10315.370976374463	1
0	47954	10315.378149301389	2
0	47957	10316.341669650913	1
0	47960	10317.451086546645	0
0	47964	10318.19631432218	1
0	47965	10318.467235816714	0
0	47969	10318.719698040851	1
0	47970	10319.498735787139	0
0	47974	10319.746491291067	1
0	47975	10320.55351432569	0
0	47979	10321.016588082219	1
0	47980	10321.458720410873	0
0	47984	10322.218182915572	1
0	47985	10322.373862485473	0
0	47989	10322.434125348578	1
0	47991	10322.5923898148	2
0	47992	10323.236288363651	1
0	47995	10324.101328147181	0
0	47999	10324.907151596849	1
0	48001	10324.970750236193	2
0	48002	10324.981027600147	1
0	48005	10325.925679633837	0
0	48009	10326.543695307723	1
0	48010	10327.077239045478	0
0	48014	10327.243106089868	1
0	48015	10327.882758541569	0
0	48019	10328.907009352451	1
0	48020	10329.07873010838	0
0	48024	10329.130287721155	1
0	48026	10329.41907785071	2
0	48027	10329.892326637987	1
0	48031	10329.95269722415	2
0	48033	10330.028846731081	3
0	48034	10330.87944795515	2
0	48038	10331.832460514418	3
0	48039	10331.837416615873	2
0	48043	10332.019384744383	3
0	48044	10332.990701913531	2
0	48048	10333.316439908206	3
0	48049	10334.143714715703	2
0	48052	10335.298922319687	1
0	48056	10335.631153690462	2
0	48058	10335.901949291767	3
0	48059	10336.172425418138	2
0	48063	10336.424496387076	3
0	48064	10337.103082499723	2
0	48068	10337.709768618172	3
0	48069	10338.146602318506	2
0	48073	10338.663427741359	3
0	48076	10339.030910030729	2
0	48080	10339.492474048638	3
0	48081	10340.032275744597	2
0	48085	10340.607685691338	3
0	48087	10340.69273651332	4
0	48088	10341.213084825105	3
0	48091	10342.180515887844	2
0	48094	10343.104662714782	1
0	48097	10344.177119415044	0
0	48109	10346.002380195267	1
0	48111	10346.75652652257	2
0	48112	10347.027361472858	1
0	48118	10347.537418901306	2
0	48119	10347.998450885875	1
0	48123	10348.621686490429	2
0	48124	10348.905186154855	1
0	48129	10349.74446209974	0
0	48133	10350.182011099423	1
0	48134	10350.604241029987	0
0	48141	10351.998354438834	1
0	48142	10352.704611293481	0
0	48148	10353.205976697227	1
0	48149	10353.853203138777	0
0	48153	10354.803162753494	1
0	48154	10354.822174251799	0
0	48164	10357.490250999731	1
0	48165	10358.032138753098	0
0	48173	10358.696299382156	1
0	48175	10358.727217988807	2
0	48176	10358.845693723273	1
0	48179	10359.765597208471	0
0	48183	10360.239560665222	1
0	48185	10360.64405078827	2
0	48186	10360.740412923575	1
0	48190	10361.247984515144	2
0	48191	10361.879203587652	1
0	48195	10362.734106519683	2
0	48196	10362.83130287749	1
0	48200	10362.877309361844	2
0	48201	10363.643195319336	1
0	48205	10363.757739237631	2
0	48206	10364.80558850297	1
0	48210	10364.971866790743	2
0	48211	10365.667842010755	1
0	48215	10365.763010337864	2
0	48216	10366.572089387078	1
0	48220	10367.23462463192	2
0	48223	10367.620067427561	1
0	48226	10368.572401507266	0
0	48239	10372.438727816467	1
0	48240	10372.550204191423	0
0	48244	10373.068517400112	1
0	48247	10373.709233974359	0
0	48251	10374.588675728665	1
0	48252	10374.784559855863	0
0	48256	10375.387914535858	1
0	48258	10375.729864603024	2
0	48259	10375.802214735347	1
0	48264	10376.859083217635	0
0	48268	10377.672017068008	1
0	48269	10377.942434608164	0
0	48278	10379.438162329108	1
0	48279	10380.007120585786	0
0	48285	10380.742685645031	1
0	48286	10381.00022275175	0
0	48290	10381.669358922182	1
0	48291	10382.002151986277	0
0	48295	10382.03784728779	1
0	48296	10382.873088828912	0
0	48303	10384.598373093231	1
0	48304	10384.92782924247	0
0	48311	10386.095063647658	1
0	48314	10386.75384583964	0
0	48323	10388.153906418339	1
0	48325	10388.502808376908	2
0	48326	10388.543561778004	1
0	48331	10389.629000754068	0
0	48335	10389.652911841304	1
0	48336	10390.519172463352	0
0	48340	10390.78735149942	1
0	48341	10391.541095020594	0
0	48348	10392.743216778297	1
0	48350	10393.081191316008	2
0	48351	10393.762616984332	1
0	48354	10394.887008793158	0
0	48366	10397.085791200853	1
0	48367	10397.682751845447	0
0	48390	10402.948074563261	1
0	48391	10403.041640583213	0
0	48395	10403.247940880511	1
0	48398	10403.977046513717	0
0	48402	10404.41819899648	1
0	48405	10404.943263132937	0
0	48409	10405.881831645135	1
0	48410	10405.953148662179	0
0	48414	10405.991676498494	1
0	48417	10406.810638797536	0
0	48424	10407.964645389569	1
0	48426	10408.030858514289	2
0	48427	10408.651184129129	1
0	48432	10409.75151082526	0
0	48439	10411.175151704973	1
0	48441	10411.315529081315	2
0	48444	10411.69118140365	1
0	48447	10412.582568543283	0
0	48461	10414.578331539275	1
0	48462	10415.383488662326	0
0	48479	10418.547795052977	1
0	48482	10419.271466249386	0
0	48514	10425.558628573235	1
0	48523	10426.357142461435	0
0	48540	10429.65930087324	1
0	48541	10430.239080069557	0
0	48550	10431.456980272472	1
0	48552	10431.475908057193	2
0	48553	10432.32685439919	1
0	48559	10433.234692629113	2
0	48562	10433.358060878579	1
0	48567	10434.482359775965	0
0	48571	10435.325016809762	1
0	48572	10435.63806957879	0
0	48579	10436.680310055741	1
0	48580	10437.47161124383	0
0	48584	10437.772543314361	1
0	48587	10438.512572850351	0
0	48594	10440.431190342675	1
0	48595	10440.72489981248	0
0	48602	10442.256568583237	1
0	48604	10442.266219475413	2
0	48605	10442.711846183491	1
0	48608	10443.630816641421	0
0	48614	10444.011769294212	1
0	48617	10444.5782280171	0
0	48624	10446.343469653163	1
0	48625	10446.634911643033	0
0	48634	10448.036048490859	1
0	48635	10448.453118756478	0
0	48655	10452.367001483573	1
0	48658	10453.345637667616	0
0	48665	10455.030753586083	1
0	48667	10455.071586494557	2
0	48668	10455.223354203877	1
0	48673	10456.231573815429	0
0	48677	10456.799355936145	1
0	48678	10457.051259972965	0
0	48693	10460.000730566481	1
0	48694	10461.034949966492	0
0	48707	10462.014024793493	1
0	48708	10462.922545155575	0
0	48717	10464.28839343242	1
0	48719	10464.492151700882	2
0	48720	10464.875928763458	1
0	48725	10465.752286535007	0
0	48729	10466.074973119944	1
0	48730	10466.557775869378	0
0	48734	10466.877441204081	1
0	48736	10466.932041697489	2
0	48740	10467.408256713626	3
0	48741	10467.637594536943	2
0	48744	10468.717189845042	1
0	48748	10469.013471724011	2
0	48750	10469.113078659871	3
0	48751	10469.855383044919	2
0	48755	10470.33373874118	3
0	48756	10470.686877794163	2
0	48760	10471.047994526575	3
0	48761	10471.60520073778	2
0	48765	10471.979662287676	3
0	48766	10472.414463838255	2
0	48770	10472.880603193984	3
0	48771	10473.416973807262	2
0	48775	10474.269945253883	3
0	48776	10474.338601318253	2
0	48779	10475.367078996887	1
0	48783	10475.830159187705	2
0	48784	10476.340857688123	1
0	48787	10477.172423010477	0
0	48793	10477.530138626778	1
0	48794	10477.977069309046	0
0	48798	10478.244411108187	1
0	48800	10478.268894455674	2
0	48802	10478.472505312072	3
0	48803	10478.872469020234	2
0	48807	10478.949849250746	3
0	48809	10479.763413107041	4
0	48810	10479.95584610586	3
0	48814	10480.233110769875	4
0	48816	10480.302942277415	5
0	48817	10481.05516294145	4
0	48820	10481.938229573024	3
0	48825	10483.009210447566	2
0	48828	10483.915189869766	1
0	48832	10484.917957559932	2
0	48833	10484.978011513379	1
0	48836	10486.090750774619	0
0	48840	10486.671815010603	1
0	48842	10487.214209464927	2
0	48843	10487.288294486021	1
0	48849	10488.32211185125	2
0	48850	10488.440035739699	1
0	48854	10488.599425953314	2
0	48855	10489.341391719384	1
0	48859	10489.771477319234	2
0	48861	10489.832577992398	3
0	48862	10490.535543189077	2
0	48866	10491.108241942363	3
0	48867	10491.501366605396	2
0	48871	10491.887345824622	3
0	48872	10492.541399449735	2
0	48876	10493.003593709511	3
0	48878	10493.454215276396	4
0	48879	10493.73103406855	3
0	48882	10494.678719166732	2
0	48886	10495.02785300043	3
0	48887	10495.490865768558	2
0	48891	10496.251953046134	3
0	48892	10496.500036768029	2
0	48896	10496.875142140064	3
0	48897	10497.467675366411	2
0	48901	10497.756284259076	3
0	48902	10498.455395677006	2
0	48905	10499.27136070027	1
0	48909	10499.579920239643	2
0	48910	10500.149016137766	1
0	48914	10500.387111737578	2
0	48916	10500.864637146494	3
0	48917	10501.040327525391	2
0	48923	10501.149608854379	3
0	48925	10501.978993665227	4
0	48926	10502.048663559156	3
0	48930	10502.10597943835	4
0	48931	10503.148336687936	3
0	48935	10503.157926441102	4
0	48938	10504.222110017641	3
0	48942	10504.415543646846	4
0	48944	10504.679049400681	5
0	48945	10505.374327170635	4
0	48948	10506.551722145332	3
0	48951	10507.487973456988	2
0	48955	10508.24036824973	3
0	48956	10508.333645143425	2
0	48959	10509.232014860092	1
0	48962	10510.148435200816	0
0	48969	10511.820447253416	1
0	48970	10512.157369263815	0
0	48974	10512.709612800542	1
0	48977	10512.995488990257	0
0	48981	10513.822533361787	1
0	48982	10514.036903210702	0
0	48989	10515.246568643962	1
0	48991	10516.191317324646	2
0	48992	10516.199874015312	1
0	48996	10516.562394372036	2
0	49000	10516.801052023589	3
0	49002	10517.109554009261	4
0	49003	10517.241345129322	3
0	49007	10517.868229567276	4
0	49008	10518.104587649714	3
0	49012	10518.401606321529	4
0	49014	10518.473154872209	5
0	49016	10518.753901389858	6
0	49017	10518.961913551084	5
0	49021	10519.183545950292	6
0	49023	10519.25246610042	7
0	49025	10519.59280844268	8
0	49026	10519.815387725431	7
0	49030	10519.896704824265	8
0	49031	10520.743363066829	7
0	49036	10521.910342922966	6
0	49039	10522.715514705024	5
0	49043	10522.953314315488	6
0	49045	10523.149469338283	7
0	49046	10523.759496328674	6
0	49049	10524.583214683432	5
0	49053	10525.273585802614	6
0	49054	10525.496748408463	5
0	49058	10526.203773932223	6
0	49059	10526.6257023324	5
0	49065	10527.008654947867	6
0	49067	10527.163979456279	7
0	49069	10527.297361301921	8
0	49070	10527.737959841613	7
0	49074	10527.770168116293	8
0	49075	10528.714987326667	7
0	49079	10529.344312930171	8
0	49080	10529.80953146552	7
0	49084	10530.269851247618	8
0	49085	10530.933239736476	7
0	49089	10530.993990169759	8
0	49091	10531.645482773476	9
0	49092	10531.843850925353	8
0	49096	10532.266857425909	9
0	49097	10532.965973159645	8
0	49101	10533.455053694291	9
0	49102	10534.12794282322	8
0	49105	10534.945133429553	7
0	49109	10536.062546099343	8
0	49110	10536.069738620773	7
0	49114	10536.411554061485	8
0	49115	10537.027783513695	7
0	49119	10537.566741774583	8
0	49120	10537.859235792302	7
0	49124	10538.120881327208	8
0	49125	10538.795385229469	7
0	49129	10539.493490323909	8
0	49130	10539.677994238746	7
0	49133	10540.483322932453	6
0	49136	10541.472278087747	5
0	49140	10541.803793890135	6
0	49142	10541.875099870967	7
0	49143	10542.367538849425	6
0	49146	10543.525586891614	5
0	49150	10543.686263884294	6
0	49152	10544.646021748914	7
0	49153	10544.699388885379	6
0	49157	10544.830942266914	7
0	49158	10545.548509087574	6
0	49161	10546.725891976685	5
0	49165	10547.581012554961	6
0	49166	10547.669579568107	5
0	49170	10547.780638905589	6
0	49171	10548.684488400884	5
0	49174	10549.838532134399	4
0	49178	10550.024459462775	5
0	49180	10550.229102283122	6
0	49181	10550.654288117841	5
0	49185	10551.407875960285	6
0	49186	10551.709647137739	5
0	49189	10552.752274360109	4
0	49192	10553.742885779098	3
0	49196	10553.939245644742	4
0	49198	10554.537100854205	5
0	49199	10554.689349473149	4
0	49202	10555.831460823466	3
0	49206	10556.031976270052	4
0	49207	10556.799863944271	3
0	49210	10557.671268842717	2
0	49213	10558.827214775023	1
0	49217	10559.302554276003	2
0	49218	10559.930190569975	1
0	49222	10560.637130117089	2
0	49224	10560.656717045858	3
0	49225	10561.036200938069	2
0	49229	10561.22821898978	3
0	49230	10561.845643459328	2
0	49234	10562.379833559864	3
0	49236	10562.413947124018	4
0	49237	10562.857657435697	3
0	49241	10563.330910307025	4
0	49242	10563.679937280596	3
0	49246	10564.380570400279	4
0	49247	10564.564464384944	3
0	49251	10565.358118673829	4
0	49252	10565.652603270647	3
0	49256	10566.220521233334	4
0	49257	10566.61353631222	3
0	49261	10566.969909903399	4
0	49263	10567.270838215338	5
0	49264	10567.672491271303	4
0	49268	10568.255380994216	5
0	49269	10568.603886703283	4
0	49272	10569.444785681341	3
0	49276	10570.016727311693	4
0	49277	10570.262728904162	3
0	49280	10571.411511764184	2
0	49283	10572.435935867738	1
0	49287	10573.600739153006	2
0	49288	10573.633160397477	1
0	49291	10574.521813049607	0
0	49304	10577.568374136924	1
0	49306	10578.04923364992	2
0	49307	10578.33983923427	1
0	49311	10578.479199173079	2
0	49313	10578.861985079011	3
0	49315	10579.057487112847	4
0	49318	10579.418284256078	3
0	49322	10579.526089903514	4
0	49323	10580.275351601813	3
0	49327	10580.392475071626	4
0	49329	10580.860212007824	5
0	49331	10580.955062304626	6
0	49332	10581.123567480847	5
0	49336	10581.703554465616	6
0	49337	10582.101780998774	5
0	49342	10583.213139881168	4
0	49346	10583.416587903114	5
0	49348	10583.419735238621	6
0	49349	10584.403999199134	5
0	49353	10584.475840920711	6
0	49354	10585.222887954277	5
0	49358	10585.255186378196	6
0	49359	10586.138740985536	5
0	49362	10586.941946983499	4
0	49366	10587.461412215763	5
0	49368	10587.609827836476	6
0	49370	10587.761599108885	7
0	49371	10587.96620273122	6
0	49375	10588.085993698034	7
0	49376	10588.899900577938	6
0	49379	10589.971134513965	5
0	49382	10590.963164226314	4
0	49385	10592.071705232071	3
0	49388	10593.203550554043	2
0	49392	10593.487842249089	3
0	49393	10594.045702015398	2
0	49397	10594.065850948446	3
0	49399	10594.660385207461	4
0	49400	10595.082793706352	3
0	49403	10595.889590599178	2
0	49407	10596.117378071183	3
0	49409	10596.52434838528	4
0	49411	10596.936247336517	5
0	49412	10597.040145592554	4
0	49417	10598.094752599741	3
0	49421	10598.512791709265	4
0	49423	10598.59675627542	5
0	49424	10599.166665103915	4
0	49427	10600.132627851865	3
0	49431	10600.574132905217	4
0	49432	10601.148660199507	3
0	49435	10602.050016934681	2
0	49439	10603.147742701188	3
0	49440	10603.206713271956	2
0	49444	10603.924714033711	3
0	49445	10604.036687045055	2
0	49449	10604.526589500166	3
0	49451	10605.031532763927	4
0	49452	10605.192466289713	3
0	49456	10606.063659221712	4
0	49457	10606.292098791222	3
0	49460	10607.238450997393	2
0	49464	10607.472557244531	3
0	49466	10607.974874319032	4
0	49468	10608.242859573033	5
0	49469	10608.410683308705	4
0	49473	10608.583171399718	5
0	49474	10609.292881195504	4
0	49478	10609.726373563722	5
0	49479	10610.240574842669	4
0	49483	10610.258549484823	5
0	49484	10611.372045850079	4
0	49488	10611.569720569481	5
0	49489	10612.332178919367	4
0	49493	10613.101462896295	5
0	49494	10613.422056880105	4
0	49498	10614.425774947954	5
0	49499	10614.50729882808	4
0	49503	10615.026646264625	5
0	49505	10615.082914440998	6
0	49506	10615.31437493132	5
0	49509	10616.429493799038	4
0	49512	10617.355111864093	3
0	49516	10618.135890835575	4
0	49517	10618.350218315772	3
0	49520	10619.404509714968	2
0	49523	10620.553524517245	1
0	49528	10621.658751792065	0
0	49532	10621.860129195714	1
0	49533	10622.721363380621	0
0	49542	10624.72537668677	1
0	49543	10624.895730561832	0
0	49547	10625.126363446099	1
0	49548	10625.717710114898	0
0	49552	10626.064534377546	1
0	49553	10626.606464515975	0
0	49557	10627.240390466915	1
0	49558	10627.457622903655	0
0	49562	10628.151427614154	1
0	49563	10628.289704052615	0
0	49569	10629.33681362869	1
0	49570	10629.390607420332	0
0	49574	10630.11044065703	1
0	49575	10630.271652070782	0
0	49579	10630.786626976827	1
0	49580	10631.428152194223	0
0	49584	10631.649448120365	1
0	49586	10631.670601506689	2
0	49588	10631.742546383706	3
0	49589	10632.344929490308	2
0	49592	10633.510189275979	1
0	49596	10633.657364063364	2
0	49598	10633.940469639442	3
0	49600	10634.055769883839	4
0	49602	10634.412771394318	5
0	49603	10634.51805691279	4
0	49608	10635.708499727934	3
0	49612	10636.357907275117	4
0	49613	10636.822354534711	3
0	49617	10637.525095412211	4
0	49618	10637.778544666502	3
0	49622	10638.425945606857	4
0	49624	10638.479562870404	5
0	49625	10638.957761427178	4
0	49629	10639.665977350794	5
0	49630	10640.111703980132	4
0	49634	10640.672664516761	5
0	49636	10640.684705633985	6
0	49637	10641.004606353841	5
0	49641	10641.152777635329	6
0	49642	10642.05110832525	5
0	49645	10642.939470218192	4
0	49649	10643.009861746687	5
0	49650	10643.774041956267	4
0	49654	10644.347550676914	5
0	49655	10644.659086694452	4
0	49658	10645.475504241022	3
0	49662	10646.228043363859	4
0	49663	10646.590612929943	3
0	49667	10646.680771271258	4
0	49668	10647.49855185987	3
0	49672	10647.784510553451	4
0	49674	10647.999015466054	5
0	49675	10648.406591697387	4
0	49678	10649.550496854238	3
0	49681	10650.377033848014	2
0	49684	10651.499446151942	1
0	49687	10652.497836852517	0
0	49702	10655.696566868374	1
0	49703	10656.355862300261	0
0	49707	10657.063751993498	1
0	49708	10657.176140110358	0
0	49712	10657.199089020921	1
0	49714	10657.509250921384	2
0	49716	10657.648559085837	3
0	49720	10658.219983592241	4
0	49721	10658.245948629151	3
0	49725	10658.648012579433	4
0	49727	10658.830688113369	5
0	49728	10659.208496442507	4
0	49731	10660.352599495067	3
0	49735	10660.480830375531	4
0	49737	10661.064894910699	5
0	49738	10661.455650977581	4
0	49743	10662.351586797531	3
0	49747	10662.789810966938	4
0	49748	10663.335032428778	3
0	49751	10664.27077839931	2
0	49755	10665.181920859811	3
0	49756	10665.436743742949	2
0	49760	10665.943778676865	3
0	49763	10666.25589464081	2
0	49766	10667.063810386486	1
0	49770	10667.493370704432	2
0	49772	10667.575253412025	3
0	49774	10667.583893165587	4
0	49775	10668.251454963605	3
0	49778	10669.077339508734	2
0	49782	10669.436925697429	3
0	49784	10669.454353931635	4
0	49785	10669.911349318154	3
0	49788	10670.718239191711	2
0	49792	10671.159110812923	3
0	49793	10671.689969904233	2
0	49796	10672.532111852501	1
0	49800	10672.593444519432	2
0	49804	10672.973316300341	3
0	49805	10673.576901398205	2
0	49809	10673.941297041505	3
0	49810	10674.416526357435	2
0	49813	10675.451545855567	1
0	49817	10675.526365789686	2
0	49818	10676.289753980819	1
0	49822	10676.575458541969	2
0	49824	10676.666102464243	3
0	49825	10677.264663337335	2
0	49829	10677.372471585961	3
0	49830	10678.358807643667	2
0	49834	10678.405463665617	3
0	49835	10679.294543725602	2
0	49838	10680.265122678853	1
0	49842	10681.100718073512	2
0	49843	10681.345180667634	1
0	49847	10681.479869270231	2
0	49849	10681.894101483363	3
0	49850	10682.526154750003	2
0	49853	10683.558024366176	1
0	49856	10684.420900900359	0
0	49860	10684.650124433229	1
0	49864	10685.238300844652	2
0	49865	10685.313411946664	1
0	49869	10685.403942112684	2
0	49870	10686.35104464346	1
0	49873	10687.524127205251	0
0	49877	10687.704968052005	1
0	49878	10688.619892791355	0
0	49885	10690.368720847077	1
0	49886	10690.684783466788	0
0	49890	10691.054115177531	1
0	49893	10691.882083971588	0
0	49897	10692.375957944948	1
0	49898	10692.860987010388	0
0	49902	10693.074702260995	1
0	49904	10693.083760083095	2
0	49905	10693.8059477614	1
0	49909	10693.809946949007	2
0	49911	10694.135717566559	3
0	49912	10694.98684723589	2
0	49915	10695.941562097588	1
0	49918	10696.820366880739	0
0	49925	10698.131210115711	1
0	49927	10698.17620969051	2
0	49928	10698.855931049747	1
0	49932	10699.100993581803	2
0	49934	10699.271512718719	3
0	49937	10699.833852100161	2
0	49940	10700.952208532834	1
0	49944	10701.482326772933	2
0	49945	10701.855067998053	1
0	49949	10702.162738767452	2
0	49950	10702.958683634804	1
0	49954	10703.219104048219	2
0	49956	10703.739417716831	3
0	49957	10703.770996326183	2
0	49961	10704.734394891354	3
0	49962	10704.869267966573	2
0	49968	10705.774484774905	3
0	49969	10705.817702670463	2
0	49973	10705.933833407957	3
0	49974	10706.776084353097	2
0	49977	10707.693622309223	1
0	49981	10708.046743012087	2
0	49982	10708.82124888289	1
0	49985	10709.886599296864	0
0	49989	10710.06170547597	1
0	49990	10710.796511736859	0
0	49994	10711.355494504482	1
0	49995	10711.787807566647	0
0	49999	10712.650621952672	1
0	50000	10712.820699980084	0
0	50004	10713.77362852949	1
0	50006	10713.91335649427	2
0	50007	10713.970969004903	1
0	50010	10714.926417964485	0
0	50022	10717.289882725316	1
0	50025	10718.064685593893	0
0	50031	10718.609368692695	1
0	50032	10719.098552754217	0
0	50036	10719.856542640964	1
0	50037	10720.26228294398	0
0	50041	10720.713847939441	1
0	50042	10721.25261910369	0
0	50046	10721.760810988406	1
0	50047	10722.130972750926	0
0	50051	10722.294646457592	1
0	50053	10722.299919945238	2
0	50054	10723.231428392859	1
0	50057	10724.040803820988	0
0	50061	10724.500712672813	1
0	50063	10724.982516975685	2
0	50064	10725.119396839825	1
0	50068	10725.141662808921	2
0	50069	10726.056549866845	1
0	50073	10726.534073519538	2
0	50074	10727.17711663076	1
0	50078	10727.508913070488	2
0	50079	10728.194184460093	1
0	50083	10728.458660720682	2
0	50084	10729.286471565229	1
0	50087	10730.240697851752	0
0	50094	10731.420821027957	1
0	50095	10732.287637605214	0
0	50105	10734.865088201227	1
0	50108	10735.434741254778	0
0	50117	10737.048632426752	1
0	50118	10737.621692522777	0
0	50181	10750.961944741699	1
0	50182	10751.481172175682	0
0	50282	10772.488362139789	1
0	50285	10772.851573049627	0
0	50297	10775.45430877865	1
0	50299	10775.914808308479	2
0	50300	10775.981080890983	1
0	50303	10776.973095282703	0
0	50324	10781.10503840303	1
0	50325	10781.259366200189	0
0	50337	10783.940182870131	1
0	50341	10784.733007003675	2
0	50342	10784.739880208182	1
0	50345	10785.677466000873	0
0	50349	10785.88924792554	1
0	50350	10786.796642753925	0
0	50357	10788.526280572407	1
0	50358	10788.641153707239	0
0	50365	10789.617886289914	1
0	50368	10790.614621775015	0
0	50372	10790.855303368204	1
0	50373	10791.595128166279	0
0	50377	10792.087796737114	1
0	50378	10792.69635020045	0
0	50382	10793.034231600897	1
0	50385	10793.863114671012	0
0	50406	10797.50191293783	1
0	50408	10797.535558400628	2
0	50409	10797.925664503754	1
0	50415	10798.647657863608	2
0	50416	10799.098446951968	1
0	50419	10800.022523627405	0
0	50431	10802.523228584832	1
0	50432	10803.05214392354	0
0	50436	10803.263354046075	1
0	50438	10803.275157851841	2
0	50441	10803.913565705784	1
0	50444	10804.797868303091	0
0	50448	10804.911640425416	1
0	50449	10805.655330137883	0
0	50461	10808.276949089785	1
0	50462	10808.288819071998	0
0	50466	10808.677715803408	1
0	50467	10809.117542385378	0
0	50479	10811.547781430408	1
0	50482	10812.078043126756	0
0	50491	10813.794713458026	1
0	50492	10814.337084333481	0
0	50501	10815.337098239618	1
0	50502	10816.100968385556	0
0	50509	10817.210651749028	1
0	50512	10818.253204324537	0
0	50519	10819.893355782329	1
0	50520	10820.175290506122	0
0	50527	10821.555426397467	1
0	50528	10822.091908074518	0
0	50542	10824.354900376103	1
0	50543	10825.398016074462	0
0	50562	10829.116410469565	1
0	50563	10829.147945610224	0
0	50567	10829.831351304616	1
0	50568	10830.180021645571	0
0	50574	10830.664612716966	1
0	50575	10831.127270246553	0
0	50579	10832.063882987699	1
0	50580	10832.21060083413	0
0	50584	10832.762492042943	1
0	50585	10833.304889860353	0
0	50592	10834.379194856874	1
0	50593	10835.139121144986	0
0	50600	10836.680398001884	1
0	50601	10837.153284416417	0
0	50608	10838.607469133289	1
0	50609	10839.076778538315	0
0	50613	10839.701625120749	1
0	50614	10840.216030018753	0
0	50618	10840.544754816232	1
0	50619	10841.309114609449	0
0	50631	10843.60740533957	1
0	50632	10844.168410572014	0
0	50636	10844.342380825462	1
0	50640	10844.874854036225	2
0	50643	10845.334743694752	1
0	50647	10845.403102200528	2
0	50648	10846.289524745546	1
0	50651	10847.207105851896	0
0	50655	10847.717127562495	1
0	50656	10848.358407651052	0
0	50660	10848.360235459011	1
0	50662	10848.692337077939	2
0	50663	10849.173148538243	1
0	50667	10849.654639193434	2
0	50669	10849.670983696601	3
0	50670	10850.183518761653	2
0	50674	10851.034669969005	3
0	50675	10851.232655846398	2
0	50679	10851.236510261118	3
0	50680	10852.188905542973	2
0	50683	10853.246980664949	1
0	50686	10854.245130202058	0
0	50690	10854.258765328759	1
0	50692	10854.656319961999	2
0	50693	10855.228300188366	1
0	50697	10855.764422290334	2
0	50698	10856.239915222093	1
0	50702	10856.680829608037	2
0	50703	10857.38381685752	1
0	50706	10858.540963687632	0
0	50713	10859.745177896567	1
0	50714	10860.531587338332	0
0	50733	10863.982895580122	1
0	50734	10864.205475965678	0
0	50746	10866.94836637987	1
0	50747	10867.264157632436	0
0	50763	10869.491298838202	1
0	50764	10869.993858389907	0
0	50771	10871.592725584544	1
0	50772	10872.027346215841	0
0	50797	10877.583573168824	1
0	50798	10877.981158390714	0
0	50811	10879.784708347893	1
0	50814	10880.318174500184	0
0	50823	10882.153759268612	1
0	50824	10882.384949037226	0
0	50831	10883.713026800061	1
0	50832	10884.173678282814	0
0	50894	10899.015698430943	1
0	50897	10899.239695562123	0
0	50913	10901.48075729503	1
0	50916	10902.153739585428	0
0	50927	10903.600415031253	1
0	50930	10904.466531491818	0
0	50944	10907.188599630739	1
0	50945	10907.514808823334	0
0	50955	10909.486018643194	1
0	50962	10910.383672711046	0
0	50968	10910.695643935612	1
0	50969	10911.488599918948	0
0	50975	10912.106778299398	1
0	50976	10912.327116286082	0
0	50982	10912.590938477126	1
0	50983	10913.14396809859	0
0	50990	10914.769553911742	1
0	50991	10914.930459617803	0
0	51003	10918.14922393364	1
0	51004	10918.241272856833	0
0	51008	10918.604757369396	1
0	51009	10919.083908316845	0
0	51020	10920.196574674494	1
0	51022	10920.373323258718	2
0	51023	10921.151335486283	1
0	51026	10922.22012703249	0
0	51030	10922.655816894617	1
0	51031	10923.031474753821	0
0	51040	10924.62410557355	1
0	51042	10924.909578554665	2
0	51043	10924.972248124403	1
0	51048	10925.974729735849	0
0	51063	10929.349611169738	1
0	51064	10930.253117475544	0
0	51076	10932.695107830172	1
0	51078	10932.908278215883	2
0	51079	10933.177162102961	1
0	51082	10934.249418265258	0
0	51089	10935.92323635176	1
0	51090	10935.995138835699	0
0	51099	10937.40324245689	1
0	51102	10937.926207439766	0
0	51106	10938.020791768748	1
0	51109	10939.019572331828	0
0	51124	10942.676490887573	1
0	51128	10942.953434383169	2
0	51129	10943.11785897154	1
0	51132	10944.274442908891	0
0	51146	10946.958929246559	1
0	51147	10947.293603942986	0
0	51166	10950.803749516532	1
0	51167	10951.461413349375	0
0	51171	10951.980208348216	1
0	51172	10952.608154076781	0
0	51176	10952.669813615113	1
0	51179	10953.732712588623	0
0	51189	10956.243047773311	1
0	51190	10956.585867720447	0
0	51194	10956.648988184938	1
0	51195	10957.392931877426	0
0	51199	10957.698504154679	1
0	51205	10958.518109925436	2
0	51206	10958.525464323792	1
0	51212	10958.71326946776	2
0	51213	10959.470049872599	1
0	51216	10960.380162947509	0
0	51220	10960.592786719612	1
0	51222	10960.617525162699	2
0	51223	10961.338085781201	1
0	51226	10962.381783397845	0
0	51230	10962.454203706481	1
0	51232	10962.576318414061	2
0	51233	10963.536172223999	1
0	51236	10964.653888097848	0
0	51243	10966.301555238849	1
0	51244	10966.870791970077	0
0	51248	10966.912082319303	1
0	51250	10967.264520998953	2
0	51251	10967.911915390636	1
0	51256	10969.015300710569	0
0	51260	10969.175015245315	1
0	51263	10969.88714287139	0
0	51267	10970.008671592016	1
0	51268	10971.032649788516	0
0	51300	10977.470789013639	1
0	51301	10977.743373251963	0
0	51317	10980.598973386699	1
0	51318	10980.720278219856	0
0	51325	10981.846111302061	1
0	51329	10982.894569335691	2
0	51330	10982.98873346781	1
0	51335	10983.817652691506	0
0	51339	10984.410188093258	1
0	51341	10984.508869464807	2
0	51342	10984.985298535392	1
0	51345	10985.800230118238	0
0	51349	10986.065683870923	1
0	51351	10986.42567614382	2
0	51352	10986.995162190289	1
0	51356	10987.401794925015	2
0	51357	10988.038676959161	1
0	51360	10988.984802744422	0
0	51375	10992.238495172716	1
0	51376	10992.747070977534	0
0	51385	10994.606756767556	1
0	51386	10994.779705691686	0
0	51465	11012.07076533088	1
0	51468	11012.646154645993	0
0	51482	11015.388620171406	1
0	51483	11015.440260085812	0
0	51490	11016.672987177675	1
0	51493	11017.678702783281	0
0	51502	11019.449215834196	1
0	51505	11019.812074130377	0
0	51514	11021.140973680129	1
0	51517	11021.991727215307	0
0	51524	11023.064754964551	1
0	51525	11023.709369168313	0
0	51532	11024.928709563871	1
0	51533	11025.671704875467	0
0	51540	11026.600360622916	1
0	51541	11027.519859639158	0
0	51545	11027.62366494392	1
0	51546	11028.431445899488	0
0	51554	11028.828151790009	1
0	51555	11029.487382905999	0
0	51559	11029.67021591182	1
0	51560	11030.352922716899	0
0	51564	11030.948691057476	1
0	51565	11031.209723838208	0
0	51569	11031.443287669801	1
0	51570	11032.265502175012	0
0	51574	11032.40727901132	1
0	51575	11033.141627872152	0
0	51579	11033.780641199786	1
0	51580	11034.053214545989	0
0	51587	11035.265647490074	1
0	51588	11036.29952150143	0
0	51595	11037.232946432621	1
0	51598	11038.329106895228	0
0	51621	11043.626350698166	1
0	51622	11044.676890013061	0
0	51629	11045.728468042715	1
0	51632	11046.755820444759	0
0	51643	11048.547771300806	1
0	51646	11048.8959931283	0
0	51704	11062.297887291335	1
0	51705	11062.355364585734	0
0	51709	11063.454187432569	1
0	51712	11063.537822988975	0
0	51716	11063.717556229247	1
0	51717	11064.363115726384	0
0	51723	11064.693949003514	1
0	51725	11065.13049495254	2
0	51726	11065.473880607328	1
0	51732	11065.818949664108	2
0	51735	11066.275272136527	1
0	51738	11067.253322046316	0
0	51742	11067.343816543322	1
0	51744	11067.719367432041	2
0	51745	11068.449629348489	1
0	51748	11069.43198806231	0
0	51755	11071.027374927707	1
0	51756	11071.450977855242	0
0	51760	11071.982614583482	1
0	51761	11072.331623816184	0
0	51765	11072.509979102734	1
0	51766	11073.515977081164	0
0	51773	11074.771180181734	1
0	51774	11075.323423849764	0
0	51812	11084.55635596461	1
0	51813	11084.720165645676	0
0	51826	11086.014615571697	1
0	51827	11086.729147524173	0
0	51841	11089.556006308306	1
0	51844	11089.931794241323	0
0	51853	11091.285640669516	1
0	51854	11092.040449388019	0
0	51871	11095.915267439755	1
0	51872	11096.370437392844	0
0	51891	11099.877398294361	1
0	51892	11100.313127478463	0
0	51899	11101.30979406803	1
0	51904	11102.330649230321	0
0	51940	11111.270792787724	1
0	51941	11111.285333619889	0
0	51974	11116.297523583841	1
0	51977	11117.358215552726	0
0	51986	11118.760607982664	1
0	51987	11119.467232156516	0
0	52004	11122.421165778557	1
0	52005	11123.277965747164	0
0	52012	11124.251887834579	1
0	52015	11125.165756117338	0
0	52056	11133.361660285755	1
0	52057	11133.362492802152	0
0	52066	11134.598518321893	1
0	52068	11134.761224499437	2
0	52069	11135.396346280882	1
0	52073	11135.462278795062	2
0	52074	11136.524900668738	1
0	52078	11137.021743878619	2
0	52080	11137.493007358354	3
0	52081	11137.711209262041	2
0	52084	11138.777777216741	1
0	52088	11138.807117387078	2
0	52089	11139.750169640285	1
0	52093	11140.354893513072	2
0	52094	11140.933046449413	1
0	52097	11141.877027378389	0
0	52103	11142.061579929922	1
0	52105	11142.087294601758	2
0	52106	11142.76439025483	1
0	52109	11143.725980735448	0
0	52113	11144.560441598068	1
0	52114	11144.897471048002	0
0	52126	11146.894886216415	1
0	52128	11147.244162152019	2
0	52132	11147.75190779565	3
0	52133	11147.843701083278	2
0	52139	11148.034908132528	3
0	52142	11148.935564831523	2
0	52146	11149.168065644954	3
0	52147	11149.780585376983	2
0	52150	11150.944049496548	1
0	52154	11151.985146431282	2
0	52155	11152.050744774816	1
0	52159	11152.531586683271	2
0	52160	11153.094003036962	1
0	52163	11154.168223514379	0
0	52167	11154.286065828843	1
0	52169	11154.985677891424	2
0	52170	11155.024554883567	1
0	52174	11155.465786342515	2
0	52175	11155.836649937713	1
0	52178	11156.784689005995	0
0	52182	11157.43359931816	1
0	52183	11157.866760866782	0
0	52190	11159.028201320749	1
0	52191	11159.946770904465	0
0	52195	11160.50160156081	1
0	52199	11160.715490061328	2
0	52200	11160.958951297747	1
0	52203	11161.864288597526	0
0	52207	11162.726447782659	1
0	52208	11162.797504644068	0
0	52212	11162.863316854854	1
0	52214	11162.97343267486	2
0	52215	11163.598080541259	1
0	52218	11164.70341463198	0
0	52222	11165.331737008988	1
0	52223	11165.715625685053	0
0	52230	11166.837131446987	1
0	52231	11167.854355879193	0
0	52240	11169.2294317206	1
0	52241	11169.91801690056	0
0	52253	11172.673401315699	1
0	52254	11173.24424391414	0
0	52266	11175.406960562152	1
0	52267	11176.09608984028	0
0	52278	11177.047325831534	1
0	52279	11178.109335124837	0
0	52286	11179.261549194266	1
0	52288	11179.279440962828	2
0	52291	11179.985631362135	1
0	52294	11180.987794943685	0
0	52306	11183.425217699394	1
0	52308	11184.102515289141	2
0	52309	11184.198222780387	1
0	52314	11185.354351558602	0
0	52318	11186.244836836084	1
0	52319	11186.508325879807	0
0	52326	11188.008078409316	1
0	52327	11188.417765996391	0
0	52331	11189.112846943345	1
0	52332	11189.519056091337	0
0	52336	11189.792818101892	1
0	52338	11190.00742445668	2
0	52339	11190.43771967792	1
0	52342	11191.274036897505	0
0	52346	11191.795477900257	1
0	52347	11192.265391215654	0
0	52351	11192.565562524819	1
0	52352	11193.229294863781	0
0	52362	11195.407036909847	1
0	52363	11196.247310752207	0
0	52369	11196.545321229905	1
0	52370	11197.363810698287	0
0	52377	11199.103916222178	1
0	52378	11199.49277826582	0
0	52382	11200.204650834338	1
0	52383	11200.552960873925	0
0	52387	11200.658453656587	1
0	52388	11201.514718922199	0
0	52392	11201.901280683593	1
0	52393	11202.450254011777	0
0	52403	11204.706984658983	1
0	52405	11204.921690892014	2
0	52406	11205.448239493341	1
0	52411	11206.622304967482	0
0	52418	11208.063340271487	1
0	52420	11208.322589575737	2
0	52421	11208.498407615878	1
0	52424	11209.505858073075	0
0	52428	11209.848436664201	1
0	52431	11210.69342693339	0
0	52435	11211.593523022536	1
0	52436	11211.739311227732	0
0	52440	11211.876543135512	1
0	52441	11212.699952985969	0
0	52451	11215.19571221263	1
0	52454	11215.556076576158	0
0	52466	11218.108509016934	1
0	52470	11218.64061271426	2
0	52471	11218.918606213263	1
0	52476	11219.848769289131	0
0	52480	11220.127871056223	1
0	52481	11220.933808856985	0
0	52485	11221.360187080387	1
0	52486	11221.936281506779	0
0	52490	11222.025976364319	1
0	52492	11222.821389295012	2
0	52493	11222.829875230944	1
0	52497	11223.56705525655	2
0	52498	11223.673331706288	1
0	52504	11224.44366912033	2
0	52505	11224.60156324689	1
0	52508	11225.645217864743	0
0	52515	11227.076134386928	1
0	52516	11227.43524803572	0
0	52520	11227.897238108829	1
0	52521	11228.576886122084	0
0	52525	11228.79494820312	1
0	52526	11229.410064452297	0
0	52533	11230.298777576498	1
0	52535	11230.455437465708	2
0	52536	11231.271092908333	1
0	52541	11232.280618982918	0
0	52545	11232.403025454655	1
0	52548	11233.195761864229	0
0	52552	11233.361781060249	1
0	52553	11234.224609909735	0
0	52565	11236.813154903288	1
0	52567	11237.086566068285	2
0	52569	11237.293633716321	3
0	52570	11237.618460693925	2
0	52573	11238.641346775431	1
0	52577	11238.737723885548	2
0	52578	11239.671471404068	1
0	52584	11240.357418845318	2
0	52585	11240.595072085567	1
0	52588	11241.785670809325	0
0	52592	11241.99956621171	1
0	52597	11242.738619561836	0
0	52619	11247.886572363684	1
0	52620	11248.190011356741	0
0	52632	11251.133115395556	1
0	52633	11251.236845316987	0
0	52643	11254.001673078851	1
0	52644	11254.150620173353	0
0	52651	11255.424930613469	1
0	52654	11256.470386193476	0
0	52660	11257.3722031739	1
0	52661	11257.509832656446	0
0	52701	11265.64120854618	1
0	52702	11266.105153711015	0
0	52725	11271.511654082568	1
0	52728	11271.754750571368	0
0	52732	11272.023591224476	1
0	52735	11272.765780044874	0
0	52739	11273.188920327942	1
0	52741	11273.361118112298	2
0	52742	11273.573388659829	1
0	52748	11274.238814143675	2
0	52749	11274.567927627234	1
0	52754	11275.49288953968	0
0	52775	11279.100301504305	1
0	52776	11279.570600109517	0
0	52780	11280.054689204567	1
0	52783	11280.622748798381	0
0	52789	11281.43442986085	1
0	52790	11281.661032633919	0
0	52797	11282.689280620683	1
0	52798	11283.476302383064	0
0	53000	11327.817894749062	1
0	53001	11328.091061210972	0
0	53008	11329.639290395231	1
0	53009	11329.955788378105	0
0	53016	11330.85973519838	1
0	53017	11331.97772731191	0
0	53026	11333.215020556	1
0	53027	11334.028469697819	0
0	53038	11336.227824466425	1
0	53039	11336.320689975159	0
0	53054	11340.212785165775	1
0	53055	11340.260877869619	0
0	53069	11342.766535188671	1
0	53070	11342.906962047579	0
0	53090	11345.219522527624	1
0	53091	11346.132928256007	0
0	53116	11349.347356238952	1
0	53117	11349.983726658919	0
0	53134	11352.807595512901	1
0	53138	11353.019007979206	2
0	53139	11353.923097129041	1
0	53142	11354.819664282879	0
0	53146	11354.875536380037	1
0	53147	11355.695726979865	0
0	53151	11355.817782679851	1
0	53153	11356.80313030029	2
0	53154	11356.856263422096	1
0	53158	11357.111747940256	2
0	53160	11357.593422801776	3
0	53161	11357.678495348865	2
0	53165	11358.270646668546	3
0	53166	11358.495106352089	2
0	53169	11359.474562589886	1
0	53173	11360.216823643071	2
0	53174	11360.459503095193	1
0	53178	11360.786556640888	2
0	53179	11361.497394272933	1
0	53182	11362.499566024883	0
0	53186	11363.252673971167	1
0	53187	11363.385112356549	0
0	53194	11364.956101526916	1
0	53195	11365.362554620733	0
0	53202	11367.372116269779	1
0	53203	11367.714426439316	0
0	53209	11368.202509881695	1
0	53211	11368.875240718288	2
0	53212	11368.906243341197	1
0	53216	11369.285015075215	2
0	53217	11369.945070578125	1
0	53221	11370.758621279053	2
0	53222	11371.069646076546	1
0	53226	11372.124629571892	2
0	53227	11372.233976812628	1
0	53230	11373.043738562022	0
0	53234	11373.099656385265	1
0	53235	11373.934341460806	0
0	53239	11373.936013103368	1
0	53241	11373.997053199191	2
0	53243	11374.413406252262	3
0	53245	11374.658506073202	4
0	53246	11375.116969319028	3
0	53250	11375.227471291964	4
0	53251	11376.01301950837	3
0	53254	11376.846011013691	2
0	53258	11377.835395953105	3
0	53259	11377.837468316746	2
0	53262	11378.884667195813	1
0	53266	11379.050800694348	2
0	53267	11379.696628331919	1
0	53270	11380.497581780762	0
0	53274	11380.902745962347	1
0	53275	11381.589312119842	0
0	53279	11382.074317378361	1
0	53280	11382.521386477132	0
0	53284	11383.290943568925	1
0	53285	11383.551778107383	0
0	53289	11383.725368205238	1
0	53292	11384.439921350558	0
0	53296	11385.180991250606	1
0	53299	11385.53270280153	0
0	53306	11386.513697840597	1
0	53308	11386.818364345583	2
0	53309	11387.481768599679	1
0	53312	11388.336654593856	0
0	53316	11388.386797224686	1
0	53317	11389.160047633075	0
0	53321	11389.235468639746	1
0	53324	11389.992311111153	0
0	53328	11390.233042688285	1
0	53329	11391.165444034398	0
0	53333	11391.196492964076	1
0	53334	11392.313571071592	0
0	53340	11393.057610382175	1
0	53341	11393.211556791109	0
0	53345	11393.434853029288	1
0	53346	11394.06349990793	0
0	53350	11394.314033949167	1
0	53352	11394.996857448908	2
0	53353	11395.070980746359	1
0	53357	11395.0953748635	2
0	53358	11396.03870226812	1
0	53362	11396.041990046303	2
0	53363	11397.103785631027	1
0	53367	11397.612424475882	2
0	53368	11398.257116574295	1
0	53371	11399.276121155698	0
0	53378	11400.908546839522	1
0	53380	11401.271546851043	2
0	53381	11401.443565750089	1
0	53386	11402.586101653208	0
0	53393	11403.756017706864	1
0	53394	11404.64300120125	0
0	53401	11405.502754991892	1
0	53402	11406.442433270406	0
0	53475	11421.743407648556	1
0	53476	11422.113461602912	0
0	53486	11424.376538407715	1
0	53487	11425.388242755984	0
0	53500	11426.263243618426	1
0	53503	11427.317344274992	0
0	53510	11428.842927297014	1
0	53515	11429.143621939109	0
0	53555	11436.102970799518	1
0	53557	11436.50199789968	2
0	53558	11436.674058135939	1
0	53561	11437.834951480632	0
0	53577	11439.929098779357	1
0	53580	11440.782537972895	0
0	53586	11441.631192379923	1
0	53587	11441.683676058208	0
0	53591	11442.093897284271	1
0	53592	11442.665059398176	0
0	53596	11442.719063919874	1
0	53597	11443.611325839316	0
0	53601	11444.523164539299	1
0	53602	11444.640911572488	0
0	53609	11445.622500576341	1
0	53610	11446.421158714375	0
0	53619	11447.733605186577	1
0	53620	11448.139249351683	0
0	53632	11450.228119480035	1
0	53633	11451.061396277944	0
0	53649	11453.774601144339	1
0	53650	11453.817078833996	0
0	53654	11453.874611270582	1
0	53657	11454.650808155226	0
0	53666	11455.923810778519	1
0	53668	11456.315590303257	2
0	53669	11456.509198863214	1
0	53672	11457.652422497856	0
0	53676	11457.732087962646	1
0	53680	11458.30656287354	2
0	53681	11458.496847364927	1
0	53685	11458.5821991572	2
0	53686	11459.34621920834	1
0	53690	11459.471503823609	2
0	53691	11460.343095033957	1
0	53695	11461.476823775755	2
0	53696	11461.508741283479	1
0	53699	11462.700921880982	0
0	53706	11463.564038731232	1
0	53708	11463.866506351745	2
0	53709	11464.401995633884	1
0	53714	11465.495765771593	0
0	53718	11465.605795200599	1
0	53721	11466.33555063714	0
0	53725	11466.397077521489	1
0	53728	11467.446077681116	0
0	53735	11469.180905532992	1
0	53737	11469.274081937435	2
0	53738	11469.348064116079	1
0	53742	11470.008924270955	2
0	53743	11470.179617321554	1
0	53748	11471.001317663274	0
0	53755	11472.574592147842	1
0	53759	11472.801669807578	2
0	53760	11472.920551880139	1
0	53764	11473.01893577861	2
0	53766	11473.333629957034	3
0	53767	11473.838898446194	2
0	53773	11474.269878255882	3
0	53774	11474.770018809444	2
0	53778	11474.996124537676	3
0	53779	11475.637532897263	2
0	53783	11476.076382431965	3
0	53786	11476.689730471063	2
0	53789	11477.54036726157	1
0	53793	11477.730768023059	2
0	53794	11478.735216755763	1
0	53798	11479.069041462445	2
0	53799	11479.889642392535	1
0	53803	11480.714888405747	2
0	53806	11481.054854729276	1
0	53810	11481.161215561801	2
0	53811	11482.186622235708	1
0	53814	11483.38650486755	0
0	53818	11483.571139057173	1
0	53819	11484.35877161349	0
0	53823	11485.237408796919	1
0	53824	11485.507216011703	0
0	53828	11486.137131756392	1
0	53829	11486.52334451393	0
0	53833	11486.656931509086	1
0	53834	11487.66429621863	0
0	53838	11488.320710995639	1
0	53839	11488.633498430315	0
0	53849	11490.594009308743	1
0	53851	11491.092273089375	2
0	53852	11491.534214570343	1
0	53855	11492.622220506489	0
0	53862	11493.602868330406	1
0	53864	11494.046908814715	2
0	53866	11494.266050691885	3
0	53868	11494.454289723791	4
0	53869	11494.577359491463	3
0	53872	11495.75586807613	2
0	53882	11496.294014876208	3
0	53885	11496.699984381783	2
0	53889	11497.714843160179	3
0	53890	11497.767427920892	2
0	53894	11498.148162737376	3
0	53896	11498.37537725741	4
0	53897	11498.913124790571	3
0	53901	11499.244128604554	4
0	53902	11499.826856313988	3
0	53906	11499.911372344657	4
0	53907	11500.824976808268	3
0	53910	11501.688591889168	2
0	53914	11502.146342598313	3
0	53917	11502.596178404397	2
0	53920	11503.469988021875	1
0	53923	11504.507750426946	0
0	53927	11504.528250865755	1
0	53929	11504.949676550141	2
0	53930	11505.393508065833	1
0	53933	11506.343625980305	0
0	53940	11507.790171170019	1
0	53941	11508.054351331449	0
0	53945	11508.260681142605	1
0	53947	11508.419290872297	2
0	53948	11509.116236774686	1
0	53951	11510.276296582415	0
0	53955	11510.290262791238	1
0	53958	11511.468528406478	0
0	53962	11511.792428254781	1
0	53964	11511.901660054243	2
0	53965	11512.396969682507	1
0	53968	11513.5180416512	0
0	53972	11514.367916876438	1
0	53973	11514.574606510501	0
0	53980	11516.069860505731	1
0	53981	11516.51579169749	0
0	53991	11518.820179626316	1
0	53992	11519.56833239856	0
0	54040	11528.25094051527	1
0	54041	11528.424040334082	0
0	54048	11529.573746442424	1
0	54049	11530.34545641706	0
0	54111	11540.21500679754	1
0	54112	11540.229557971999	0
0	54121	11541.494920681433	1
0	54122	11542.307396823511	0
0	54131	11544.048234495717	1
0	54132	11544.261506349284	0
0	54136	11544.810055385989	1
0	54137	11545.377524534397	0
0	54143	11546.040304787343	1
0	54144	11546.293514754314	0
0	54148	11546.481567509919	1
0	54149	11547.401529515039	0
0	54153	11547.9076396552	1
0	54154	11548.276453471526	0
0	54168	11550.04354506741	1
0	54170	11550.18468459719	2
0	54171	11550.94955104484	1
0	54176	11552.013759608443	0
0	54183	11553.835769864783	1
0	54184	11554.095919121492	0
0	54193	11555.435888574791	1
0	54194	11555.833103890593	0
0	54237	11567.336348574754	1
0	54242	11568.197645433588	0
0	54251	11569.810809949862	1
0	54255	11570.379250565801	2
0	54256	11570.452553225836	1
0	54259	11571.523355940419	0
0	54263	11572.048080303103	1
0	54266	11572.427499319023	0
0	54272	11572.583377799243	1
0	54275	11573.259215554471	0
0	54289	11575.032061942467	1
0	54292	11576.042035842097	0
0	54304	11578.075346080024	1
0	54306	11578.376750841809	2
0	54308	11578.702079400483	3
0	54309	11579.004127537614	2
0	54314	11580.078123271806	1
0	54318	11580.531536642507	2
0	54319	11581.147799972134	1
0	54323	11581.888550840603	2
0	54324	11582.021331863633	1
0	54328	11582.209152514385	2
0	54329	11583.214233485858	1
0	54332	11584.019248010653	0
0	54336	11584.364662420459	1
0	54338	11584.519716508166	2
0	54339	11585.024200753278	1
0	54343	11585.99369667864	2
0	54344	11586.216652112144	1
0	54347	11587.18798918395	0
0	54351	11587.647256873141	1
0	54353	11587.812192753766	2
0	54354	11588.288302348523	1
0	54359	11589.168570380068	0
0	54363	11589.54858077884	1
0	54365	11589.639048615669	2
0	54368	11590.210331135491	1
0	54372	11590.870881968191	2
0	54373	11591.092499730332	1
0	54377	11591.700542744483	2
0	54378	11592.078024047302	1
0	54382	11592.108992790932	2
0	54383	11593.236745547099	1
0	54386	11594.230734320512	0
0	54393	11595.631404761702	1
0	54394	11596.035578301145	0
0	54402	11596.915475110612	1
0	54403	11597.112312519798	0
0	54407	11597.516825074938	1
0	54408	11597.920010315409	0
0	54418	11600.454569331683	1
0	54419	11601.003496703381	0
0	54438	11604.464861706649	1
0	54439	11605.39427356512	0
0	54453	11607.653018703712	1
0	54454	11608.43996327386	0
0	54458	11608.673806194056	1
0	54461	11609.577879948791	0
0	54468	11611.147513982872	1
0	54470	11611.660829235359	2
0	54471	11611.667026220046	1
0	54475	11611.866451018336	2
0	54478	11612.650207347207	1
0	54483	11613.783897921786	0
0	54490	11615.851539748367	1
0	54491	11616.049988083325	0
0	54500	11617.333372120939	1
0	54502	11617.564942004382	2
0	54503	11618.244579680792	1
0	54510	11619.282712851806	0
0	54519	11620.513944405561	1
0	54520	11621.181525632335	0
0	54532	11623.30394842853	1
0	54533	11624.043706609649	0
0	54551	11628.792355666662	1
0	54552	11629.014618967721	0
0	54625	11644.34546377416	1
0	54626	11644.603664391829	0
0	54635	11646.003819245153	1
0	54638	11646.671790193177	0
0	54650	11648.891674240425	1
0	54651	11649.583564323064	0
0	54670	11652.925005302832	1
0	54673	11653.812267968588	0
0	54682	11655.932229918151	1
0	54683	11655.944991761789	0
0	54694	11657.31622437001	1
0	54695	11658.234183830553	0
0	54711	11661.126894387147	1
0	54712	11661.413909814572	0
0	54722	11663.754998318834	1
0	54723	11664.534420020571	0
0	54730	11665.948351344518	1
0	54733	11666.658696438717	0
0	54752	11670.437174490192	1
0	54753	11670.513103639586	0
0	54760	11671.830507228444	1
0	54761	11672.50094583693	0
0	54770	11673.775232758051	1
0	54772	11674.274906177828	2
0	54773	11674.513322743373	1
0	54777	11674.605251080237	2
0	54778	11675.360800039647	1
0	54781	11676.41910297961	0
0	54790	11677.934362761272	1
0	54793	11678.634477460263	0
0	54797	11678.719683982111	1
0	54800	11679.566058566021	0
0	54807	11680.767083586963	1
0	54808	11681.259895280068	0
0	54826	11685.586981358344	1
0	54831	11686.339514564694	0
0	54835	11686.783372737061	1
0	54837	11687.114091548527	2
0	54838	11687.292917453748	1
0	54841	11688.111397903197	0
0	54854	11691.300787922706	1
0	54856	11691.353756191697	2
0	54858	11691.394233139361	3
0	54863	11692.073410690454	2
0	54866	11693.168727266946	1
0	54870	11693.176733467715	2
0	54873	11694.180660538253	1
0	54877	11694.515812604914	2
0	54878	11695.174850018386	1
0	54881	11696.087932772719	0
0	54885	11696.462258754115	1
0	54887	11696.629289807203	2
0	54888	11697.049021486536	1
0	54892	11697.133842151269	2
0	54893	11698.106304701388	1
0	54896	11698.956544004072	0
0	54900	11699.33483517529	1
0	54901	11700.11866348178	0
0	54913	11702.364910890194	1
0	54915	11702.492661872016	2
0	54918	11703.193679691449	1
0	54922	11703.573375013916	2
0	54923	11704.270736245223	1
0	54926	11705.368014507432	0
0	54930	11705.841672916992	1
0	54931	11706.180214590271	0
0	54935	11706.86196458647	1
0	54936	11707.312865148363	0
0	54940	11708.179206670404	1
0	54942	11708.2067158359	2
0	54943	11708.32688482196	1
0	54947	11709.345762692023	2
0	54948	11709.360685163149	1
0	54952	11709.962617117515	2
0	54953	11710.413840801147	1
0	54956	11711.592030834657	0
0	54960	11711.797607175505	1
0	54962	11712.266537738245	2
0	54963	11712.445994579297	1
0	54967	11712.505565842303	2
0	54968	11713.58027835802	1
0	54972	11713.722430226618	2
0	54973	11714.478365741547	1
0	54977	11715.189912676653	2
0	54978	11715.644333948258	1
0	54981	11716.644720651272	0
0	54985	11716.848009416601	1
0	54986	11717.476835472386	0
0	54993	11718.822042641598	1
0	54994	11719.264312840037	0
0	55000	11719.700481433673	1
0	55001	11720.198819139756	0
0	55005	11720.383097849456	1
0	55006	11721.395934913743	0
0	55016	11724.010763644601	1
0	55019	11724.771058890752	0
0	55026	11725.822754745088	1
0	55029	11726.63950163691	0
0	55033	11727.326721610275	1
0	55034	11727.601470926466	0
0	55040	11727.971417476553	1
0	55043	11728.759852891664	0
0	55047	11729.581895218352	1
0	55049	11729.654666853656	2
0	55050	11729.840818721677	1
0	55054	11730.149038191964	2
0	55055	11730.660217604196	1
0	55059	11730.958881843501	2
0	55060	11731.762797313711	1
0	55063	11732.58797115876	0
0	55067	11732.668575545616	1
0	55070	11733.650809108528	0
0	55074	11733.964226512469	1
0	55075	11734.613857239826	0
0	55082	11736.276583052187	1
0	55084	11736.338974084345	2
0	55085	11736.912402149258	1
0	55090	11737.784021973578	0
0	55094	11737.792243455829	1
0	55095	11738.75494396851	0
0	55099	11738.801785816658	1
0	55100	11739.557428063234	0
0	55110	11742.254770258633	1
0	55111	11742.719359215503	0
0	55115	11743.24211171587	1
0	55116	11743.683972125561	0
0	55123	11745.088724242139	1
0	55126	11745.901527959449	0
0	55134	11746.820514324951	1
0	55135	11747.032684440413	0
0	55139	11747.725424965984	1
0	55140	11748.209647528609	0
0	55147	11749.212842391164	1
0	55149	11749.458198472803	2
0	55151	11749.650103137853	3
0	55152	11750.195216426967	2
0	55157	11751.083353954243	1
0	55161	11751.802007905371	2
0	55162	11751.980109144809	1
0	55165	11752.81254140806	0
0	55169	11753.431166278251	1
0	55170	11753.857139293631	0
0	55174	11753.875457044201	1
0	55175	11755.049736740874	0
0	55179	11755.789754350598	1
0	55180	11756.121497031549	0
0	55184	11756.188890271049	1
0	55186	11756.640198148004	2
0	55187	11757.180954524284	1
0	55190	11758.256262451565	0
0	55194	11758.612096438224	1
0	55196	11758.661733115541	2
0	55197	11759.442063869318	1
0	55201	11759.455821215937	2
0	55203	11759.656350378829	3
0	55204	11760.452170439778	2
0	55210	11761.140009709777	3
0	55211	11761.404446962072	2
0	55215	11761.560067612045	3
0	55216	11762.373971134859	2
0	55219	11763.292258200484	1
0	55223	11763.545808429587	2
0	55224	11764.487273862647	1
0	55228	11764.628923163446	2
0	55230	11764.753531722668	3
0	55231	11765.363838759685	2
0	55235	11765.553253536352	3
0	55236	11766.38594965112	2
0	55240	11767.089357231302	3
0	55241	11767.535509439153	2
0	55245	11768.594216886456	3
0	55246	11768.718662046609	2
0	55250	11769.398706239716	3
0	55251	11769.644144634777	2
0	55255	11770.366592756808	3
0	55256	11770.827292916239	2
0	55259	11771.734412668333	1
0	55262	11772.606508672391	0
0	55266	11772.898823818119	1
0	55268	11772.93213647282	2
0	55269	11773.633958758195	1
0	55273	11774.280742256545	2
0	55274	11774.49368015124	1
0	55277	11775.54485776952	0
0	55281	11775.852958737641	1
0	55282	11776.634688861542	0
0	55286	11776.730785633951	1
0	55288	11777.173642476352	2
0	55289	11777.766450956338	1
0	55293	11778.071251275661	2
0	55296	11778.706448940248	1
0	55300	11779.256038359251	2
0	55301	11779.879448956777	1
0	55305	11780.445934698862	2
0	55306	11780.998869621534	1
0	55310	11781.491586392904	2
0	55311	11782.111930711813	1
0	55314	11783.097235010717	0
0	55318	11783.692942785726	1
0	55320	11783.775050737416	2
0	55321	11784.012867623813	1
0	55325	11784.567071346727	2
0	55327	11785.028122711274	3
0	55328	11785.117166832801	2
0	55332	11785.196035235471	3
0	55334	11785.216806570052	4
0	55336	11785.271701037506	5
0	55337	11786.133350586113	4
0	55341	11786.461610855404	5
0	55343	11786.958323688291	6
0	55344	11787.003163256277	5
0	55347	11788.135024020415	4
0	55350	11789.169773408458	3
0	55354	11789.9920889642	4
0	55355	11790.067946043484	3
0	55359	11790.312273446641	4
0	55360	11790.943046752982	3
0	55363	11791.789539411258	2
0	55366	11792.83180640858	1
0	55369	11793.854410269916	0
0	55373	11794.475522685397	1
0	55374	11794.940723724257	0
0	55378	11795.800363794525	1
0	55379	11796.106444448478	0
0	55383	11796.646558984456	1
0	55385	11796.671556996269	2
0	55387	11796.67348344018	3
0	55388	11796.999853838387	2
0	55392	11797.466784173866	3
0	55394	11797.95188048772	4
0	55395	11798.125076288975	3
0	55398	11799.204508478998	2
0	55402	11799.292194134914	3
0	55404	11799.818630494052	4
0	55405	11800.073546228151	3
0	55409	11800.367838925113	4
0	55410	11800.898180337588	3
0	55414	11801.09940022305	4
0	55415	11802.031747776515	3
0	55419	11802.879237811971	4
0	55420	11802.952454316768	3
0	55423	11803.787494974828	2
0	55427	11803.997782256759	3
0	55428	11804.745966374187	2
0	55432	11805.117328273678	3
0	55433	11805.54605167188	2
0	55436	11806.701285877603	1
0	55440	11806.80162333933	2
0	55441	11807.721641122236	1
0	55445	11808.317955255088	2
0	55446	11808.700320726878	1
0	55450	11808.796980338468	2
0	55452	11808.874257407849	3
0	55453	11809.595622363186	2
0	55456	11810.710829625151	1
0	55459	11811.799047373108	0
0	55463	11812.409381654227	1
0	55465	11812.637593262904	2
0	55466	11812.773690724898	1
0	55472	11813.711138243032	2
0	55473	11813.881528393797	1
0	55477	11813.925699698348	2
0	55479	11814.085086069408	3
0	55480	11814.912838918868	2
0	55483	11816.05813396579	1
0	55487	11816.296372435626	2
0	55489	11816.396829573479	3
0	55490	11817.089107238468	2
0	55493	11817.935291613233	1
0	55498	11818.822338275299	0
0	55510	11821.083244267284	1
0	55512	11821.193454885498	2
0	55513	11821.688152083349	1
0	55518	11822.613638371476	0
0	55522	11823.233158233279	1
0	55523	11823.44018403186	0
0	55535	11826.103687723316	1
0	55536	11826.44142056989	0
0	55540	11826.632916459581	1
0	55543	11827.610100074173	0
0	55547	11828.45104249086	1
0	55548	11828.525619487898	0
0	55569	11833.985298438845	1
0	55570	11834.448555234975	0
0	55606	11840.920829757046	1
0	55609	11841.692428786091	0
0	55621	11844.523334148493	1
0	55622	11845.066687166753	0
0	55635	11846.316658013921	1
0	55636	11847.392082252322	0
0	55651	11850.591308114366	1
0	55655	11851.212986444681	2
0	55656	11851.63431600711	1
0	55659	11852.552422501675	0
0	55663	11853.41015872355	1
0	55664	11853.547798390749	0
0	55671	11855.037245283794	1
0	55674	11855.573828355006	0
0	55683	11856.948962573357	1
0	55685	11857.328386374107	2
0	55686	11857.349660327534	1
0	55689	11858.535196156955	0
0	55698	11859.868402914718	1
0	55700	11860.152668390669	2
0	55701	11860.702345255265	1
0	55704	11861.599690617124	0
0	55716	11863.85142501715	1
0	55717	11864.468911056469	0
0	55724	11865.737167302697	1
0	55725	11866.478959980203	0
0	55737	11868.747059995696	1
0	55738	11869.633774330622	0
0	55749	11870.650637182177	1
0	55750	11871.455455595317	0
0	55765	11874.784611539994	1
0	55766	11875.29155115929	0
0	55779	11876.80784589489	1
0	55780	11877.338127175593	0
0	55829	11887.556865200029	1
0	55830	11887.558770908755	0
0	55839	11889.39160427209	1
0	55840	11889.530640944713	0
0	55847	11890.897010952136	1
0	55848	11891.434349653279	0
0	55857	11893.199313780309	1
0	55858	11893.259477983104	0
0	55862	11894.23756113812	1
0	55863	11894.252166223774	0
0	55867	11894.877246233009	1
0	55868	11895.26375558308	0
0	55872	11895.626859140658	1
0	55875	11896.155803196287	0
0	55879	11896.213002336843	1
0	55881	11897.117358005628	2
0	55882	11897.28197128602	1
0	55885	11898.465974014501	0
0	55889	11898.977860482644	1
0	55890	11899.529394905052	0
0	55894	11899.621966096774	1
0	55896	11899.723583491474	2
0	55897	11900.509007760013	1
0	55901	11900.746107681399	2
0	55902	11901.356808460007	1
0	55905	11902.402308001431	0
0	55912	11903.324199975343	1
0	55913	11904.127147563423	0
0	55920	11904.979035998752	1
0	55923	11905.953360630634	0
0	55927	11906.345374172633	1
0	55931	11906.758692859747	2
0	55933	11906.796694170461	3
0	55934	11907.152070274173	2
0	55937	11908.007340509879	1
0	55940	11908.867206874738	0
0	55944	11909.102105752965	1
0	55946	11909.120819223666	2
0	55948	11909.37139693726	3
0	55950	11909.632684882851	4
0	55951	11909.858588809023	3
0	55954	11910.67976728982	2
0	55958	11910.97677577485	3
0	55959	11911.655564722667	2
0	55962	11912.697705849415	1
0	55965	11913.510852106536	0
0	55969	11913.549133976742	1
0	55970	11914.645639454356	0
0	55974	11915.640961921755	1
0	55975	11915.745766125029	0
0	55979	11916.417617797869	1
0	55980	11916.90629424105	0
0	55984	11917.358547420026	1
0	55986	11917.633105160225	2
0	55987	11917.766539237616	1
0	55990	11918.662547940077	0
0	55994	11919.477783112752	1
0	55995	11919.644534005658	0
0	55999	11919.779133241366	1
0	56000	11920.513799134889	0
0	56009	11922.189035470994	1
0	56010	11922.438791645193	0
0	56019	11923.749942377999	1
0	56022	11924.332481771582	0
0	56033	11925.978346900185	1
0	56034	11926.054947990985	0
0	56038	11926.179008942029	1
0	56041	11927.050099528921	0
0	56045	11927.143187695122	1
0	56047	11927.915297826069	2
0	56048	11928.012148067602	1
0	56052	11928.279344745707	2
0	56053	11929.009998422456	1
0	56057	11929.241702369294	2
0	56058	11930.050802136832	1
0	56063	11931.056507450682	0
0	56072	11932.515139082588	1
0	56073	11933.052815153976	0
0	56087	11935.454331662866	1
0	56088	11935.531622992331	0
0	56092	11935.536930060284	1
0	56096	11935.941332055051	2
0	56099	11936.575029581195	1
0	56103	11936.71215680389	2
0	56104	11937.717626394579	1
0	56108	11938.790840504411	2
0	56109	11938.804990260644	1
0	56113	11938.860879334305	2
0	56114	11939.811210420976	1
0	56117	11940.970989162816	0
0	56121	11941.043676049238	1
0	56122	11941.79000775783	0
0	56126	11942.045635390944	1
0	56127	11942.831860409739	0
0	56134	11944.513013665789	1
0	56135	11944.930151469975	0
0	56142	11945.951069275533	1
0	56144	11946.280692794194	2
0	56145	11946.708911861076	1
0	56149	11947.084759597413	2
0	56150	11947.585183748852	1
0	56154	11947.898586473586	2
0	56157	11948.693560675501	1
0	56161	11949.249277810381	2
0	56162	11949.704850009053	1
0	56166	11950.491080553824	2
0	56167	11950.710519378415	1
0	56170	11951.859286631333	0
0	56174	11952.128285901885	1
0	56175	11953.032366390681	0
0	56179	11953.400714567383	1
0	56180	11954.07933335832	0
0	56184	11954.36296641813	1
0	56186	11954.521516166177	2
0	56187	11955.166982741157	1
0	56191	11955.216574773457	2
0	56193	11956.080580654257	3
0	56194	11956.284253231312	2
0	56198	11957.096714008465	3
0	56199	11957.246674484077	2
0	56202	11958.123901473793	1
0	56206	11958.695641220297	2
0	56207	11959.029601382806	1
0	56210	11960.198017783619	0
0	56214	11960.604437693426	1
0	56216	11960.635050236954	2
0	56217	11961.387275808833	1
0	56220	11962.419794761359	0
0	56224	11962.627021169879	1
0	56226	11962.676051939946	2
0	56227	11963.576605018291	1
0	56231	11964.131412024483	2
0	56232	11964.598437432635	1
0	56236	11964.780539358326	2
0	56237	11965.707574207771	1
0	56241	11965.899876998727	2
0	56242	11966.647456191264	1
0	56245	11967.53040726871	0
0	56249	11968.471861846903	1
0	56250	11968.558382349338	0
0	56254	11969.149396560739	1
0	56256	11969.181764439414	2
0	56257	11969.757142924115	1
0	56261	11970.361698183365	2
0	56262	11970.886319898225	1
0	56265	11971.915648844994	0
0	56318	11982.778506208438	1
0	56319	11983.530741987347	0
0	56331	11985.706730899267	1
0	56335	11986.484246540277	2
0	56336	11986.583608292851	1
0	56339	11987.595335191458	0
0	56348	11988.80216828805	1
0	56351	11989.790615223225	0
0	56373	11994.052180025025	1
0	56376	11994.445479870557	0
0	56389	11998.086012317652	1
0	56392	11998.344102916836	0
0	56400	11999.163279751166	1
0	56401	11999.333646124385	0
0	56410	12001.114217892186	1
0	56411	12001.361411605373	0
0	56415	12001.552457940437	1
0	56418	12002.232550052803	0
0	56422	12002.316356342455	1
0	56423	12003.043720505264	0
0	56437	12006.007757304475	1
0	56438	12006.259691614349	0
0	56450	12008.485486334626	1
0	56451	12009.023492519808	0
0	56458	12010.664524167717	1
0	56459	12011.100387497218	0
0	56466	12012.281485998852	1
0	56467	12013.07461753252	0
0	56478	12014.46679529722	1
0	56479	12015.179715594435	0
0	56483	12015.238988092789	1
0	56486	12016.063996430365	0
0	56490	12016.104761996125	1
0	56492	12016.139792389705	2
0	56495	12017.103657799465	1
0	56499	12017.200126349353	2
0	56502	12018.096434459248	1
0	56506	12018.272825720708	2
0	56507	12019.291023831879	1
0	56510	12020.295744606824	0
0	56514	12020.341602112319	1
0	56516	12020.933226634641	2
0	56517	12021.22780678614	1
0	56520	12022.288152093319	0
0	56524	12022.594767680632	1
0	56526	12023.139564630096	2
0	56528	12023.223529189667	3
0	56529	12023.2668583336	2
0	56533	12023.396786451935	3
0	56535	12024.384469439354	4
0	56536	12024.418632399262	3
0	56540	12024.645520017963	4
0	56541	12025.589549689245	3
0	56545	12026.128847501457	4
0	56546	12026.774504201644	3
0	56549	12027.922009210166	2
0	56553	12028.708551190977	3
0	56554	12029.067613526963	2
0	56558	12029.25292137473	3
0	56561	12030.19697028051	2
0	56564	12031.039812489942	1
0	56568	12031.829939007542	2
0	56570	12031.965807207948	3
0	56571	12032.090973190934	2
0	56575	12032.77854355394	3
0	56576	12033.001756192342	2
0	56580	12033.583713779777	3
0	56581	12033.946799441118	2
0	56585	12034.106398565445	3
0	56586	12034.818168785207	2
0	56589	12035.768004741304	1
0	56592	12036.631998343364	0
0	56596	12037.052661339893	1
0	56598	12037.150173239477	2
0	56600	12037.20023597033	3
0	56602	12037.419669266058	4
0	56604	12037.495231275453	5
0	56605	12037.766178343975	4
0	56608	12038.681800810778	3
0	56612	12038.824318011199	4
0	56614	12039.271231165235	5
0	56615	12039.483118317807	4
0	56619	12039.543775126824	5
0	56620	12040.476892770333	4
0	56623	12041.664025365812	3
0	56626	12042.771294332453	2
0	56630	12043.371998017948	3
0	56631	12043.584900872008	2
0	56635	12044.230688561639	3
0	56636	12044.455179370259	2
0	56640	12044.456461019516	3
0	56641	12045.324486198993	2
0	56645	12046.174051424195	3
0	56646	12046.381492909668	2
0	56650	12046.627242956081	3
0	56651	12047.505997931557	2
0	56655	12047.931859576193	3
0	56656	12048.390730663361	2
0	56660	12049.089483367387	3
0	56661	12049.260488638626	2
0	56664	12050.149216279359	1
0	56668	12050.450004386087	2
0	56670	12050.698519284697	3
0	56671	12050.996749848378	2
0	56675	12051.301198867054	3
0	56677	12051.445961216096	4
0	56678	12051.838910093502	3
0	56682	12052.000180264398	4
0	56685	12052.744397963089	3
0	56689	12052.774563407646	4
0	56690	12053.784729895619	3
0	56694	12054.028834195374	4
0	56695	12054.904855812405	3
0	56699	12054.916384581149	4
0	56700	12055.758034777705	3
0	56703	12056.909198551502	2
0	56706	12057.976951092265	1
0	56710	12058.31678022036	2
0	56711	12059.108639759354	1
0	56714	12060.092311893094	0
0	56718	12060.122184744972	1
0	56719	12061.148272863745	0
0	56723	12061.702580591387	1
0	56724	12062.050841206747	0
0	56728	12062.120992979324	1
0	56729	12062.89871413388	0
0	56736	12064.313126185722	1
0	56737	12064.892904668643	0
0	56752	12068.247029296553	1
0	56755	12069.197687343011	0
0	56762	12071.091524191994	1
0	56763	12071.199718737013	0
0	56772	12072.343275120328	1
0	56773	12073.236281919449	0
0	56840	12087.203680351233	1
0	56841	12087.410609652724	0
0	56853	12089.940693835579	1
0	56854	12090.361302695208	0
0	56873	12093.507199089224	1
0	56876	12094.30111364831	0
0	56886	12096.849983993087	1
0	56887	12097.261340854846	0
0	56903	12100.13960020493	1
0	56904	12100.475769984227	0
0	56911	12101.675450402466	1
0	56912	12102.764146806829	0
0	56916	12103.142301696175	1
0	56917	12103.609696252708	0
0	56921	12103.842334400122	1
0	56924	12104.616918528423	0
0	56928	12104.69044199697	1
0	56929	12105.487370804109	0
0	56933	12106.315684172812	1
0	56934	12106.423369556543	0
0	56941	12107.390928884732	1
0	56942	12108.204835353856	0
0	56954	12110.259902401001	1
0	56955	12111.015864743915	0
0	56984	12116.384684495101	1
0	56987	12117.131720524159	0
0	56994	12118.055519904339	1
0	56995	12118.966723644798	0
0	57054	12130.72163755543	1
0	57056	12130.759424971578	2
0	57057	12131.353981033779	1
0	57060	12132.444198434121	0
0	57072	12134.522070126769	1
0	57073	12135.321144588918	0
0	57080	12136.410127325148	1
0	57083	12137.175354926356	0
0	57087	12137.245500982298	1
0	57091	12137.649505842003	2
0	57092	12138.077161070679	1
0	57095	12138.900325573955	0
0	57099	12139.141508676975	1
0	57100	12139.968894701798	0
0	57109	12141.31498138089	1
0	57111	12141.905125828351	2
0	57112	12142.073542432648	1
0	57118	12142.675325976015	2
0	57119	12143.213776128714	1
0	57123	12143.220400723503	2
0	57124	12144.149155739577	1
0	57128	12144.460720803194	2
0	57130	12145.016212453791	3
0	57131	12145.197490299562	2
0	57134	12146.022538120555	1
0	57138	12146.26947993979	2
0	57140	12146.923740853109	3
0	57141	12147.078487338754	2
0	57144	12147.97721114445	1
0	57148	12148.233834571748	2
0	57150	12148.90888458766	3
0	57151	12149.16576951982	2
0	57154	12150.323747066944	1
0	57158	12150.641817949642	2
0	57159	12151.144488006714	1
0	57162	12152.203268866125	0
0	57166	12152.295434434311	1
0	57168	12153.293416542284	2
0	57169	12153.353863887373	1
0	57173	12153.463154945821	2
0	57174	12154.229373146012	1
0	57177	12155.068261742383	0
0	57181	12155.633691960566	1
0	57182	12155.933231706336	0
0	57186	12156.050412513775	1
0	57187	12156.748551003333	0
0	57194	12158.651774844949	1
0	57195	12158.756942656055	0
0	57199	12158.872343177123	1
0	57201	12159.369974180191	2
0	57202	12159.896980482876	1
0	57206	12160.850163453748	2
0	57207	12160.966548872437	1
0	57211	12161.908514882227	2
0	57212	12162.137661498762	1
0	57215	12163.064521702915	0
0	57219	12163.880966011374	1
0	57220	12163.887007795345	0
0	57224	12164.534575160804	1
0	57225	12164.847705349583	0
0	57229	12165.326473332587	1
0	57231	12165.498441686682	2
0	57232	12165.657866562415	1
0	57236	12165.711572592852	2
0	57240	12166.000430637148	3
0	57241	12166.470680053417	2
0	57245	12167.082501805283	3
0	57246	12167.643811088033	2
0	57249	12168.685698320322	1
0	57252	12169.86400598481	0
0	57256	12170.113198242629	1
0	57257	12170.840113423091	0
0	57261	12171.39700559969	1
0	57264	12171.955079527084	0
0	57274	12174.328835569263	1
0	57276	12174.724399122207	2
0	57277	12174.727944916464	1
0	57281	12175.067283436598	2
0	57282	12175.634596052184	1
0	57286	12176.029562556158	2
0	57288	12176.082025124033	3
0	57291	12176.699899294949	2
0	57294	12177.77046198973	1
0	57298	12178.785788806768	2
0	57299	12178.824689593888	1
0	57302	12179.635847140825	0
0	57306	12179.82588306117	1
0	57307	12180.46103598054	0
0	57311	12180.722794724026	1
0	57312	12181.27770751554	0
0	57316	12181.521499834687	1
0	57317	12182.227338901511	0
0	57321	12182.301672058049	1
0	57322	12183.295436169928	0
[...]
9	137978	28313.10376313042	0
9	137994	28316.385129640047	1
9	137997	28317.463797365204	2
9	137999	28318.350497993479	1
9	138005	28319.547220703755	2
9	138007	28320.624352273146	1
9	138014	28321.161261285203	0
9	138034	28325.090861683507	1
9	138036	28325.14747452954	0
9	138049	28327.945402358361	1
9	138054	28329.115040024215	0
9	138071	28331.981702618842	1
9	138073	28332.881121280388	0
9	138086	28335.28361022303	1
9	138090	28335.642018335547	0
9	138093	28336.416743761656	1
9	138095	28336.732306662184	0
9	138127	28342.311702696404	1
9	138129	28342.470794241105	0
9	138137	28344.159692843615	1
9	138139	28344.885176860038	0
9	138142	28344.999036981988	1
9	138144	28345.648080550722	0
9	138162	28348.470603517986	1
9	138164	28348.583454423271	0
9	138167	28349.536601543038	1
9	138169	28349.704125884842	0
9	138174	28350.715284852202	1
9	138176	28351.402828149628	0
9	138179	28351.592540404557	1
9	138184	28352.752894084791	2
9	138188	28353.029627231482	1
9	138190	28353.163824308068	0
9	138193	28353.58112451209	1
9	138195	28354.139939866318	0
9	138218	28358.728854165025	1
9	138220	28358.971440889652	0
9	138231	28361.827809891928	1
9	138234	28362.78401154688	2
9	138236	28363.139771207026	1
9	138241	28363.656710272547	2
9	138248	28365.365957019176	1
9	138253	28366.465429134923	0
9	138268	28368.614936663008	1
9	138271	28369.535872990529	2
9	138278	28370.851924893442	1
9	138287	28372.387780792982	0
9	138290	28372.760952184147	1
9	138292	28373.277682070306	0
9	138305	28375.771406303423	1
9	138307	28375.915659848514	0
9	138310	28376.571828735603	1
9	138312	28376.935042900605	0
9	138320	28378.822369260604	1
9	138323	28379.640307985696	2
9	138326	28380.574636660966	3
9	138328	28381.47763904588	2
9	138338	28383.081107369486	1
9	138344	28384.528203712946	2
9	138346	28384.562986068446	1
9	138350	28384.666959830803	0
9	138360	28386.364486204536	1
9	138363	28387.204408045375	2
9	138365	28387.230117104282	1
9	138367	28387.740504947678	0
9	138380	28390.298692179081	1
9	138383	28391.487677285803	2
9	138385	28391.491518734147	1
9	138387	28391.783799321526	0
9	138398	28394.134665164055	1
9	138401	28395.180215119926	2
9	138403	28395.337379142413	1
9	138408	28396.493921085243	0
9	138418	28398.245473412593	1
9	138420	28398.45054532631	0
9	138448	28403.736674943176	1
9	138453	28404.795501992554	0
9	138556	28424.953679981252	1
9	138563	28426.333657126357	0
9	138585	28429.842337671185	1
9	138592	28430.986635654124	2
9	138597	28432.349412923849	1
9	138604	28432.861787410034	0
9	138641	28439.790463748186	1
9	138644	28440.644317492454	2
9	138646	28441.184782519183	1
9	138648	28441.583567953082	0
9	138661	28443.812246905716	1
9	138665	28444.727938454066	0
9	138668	28444.972118293011	1
9	138670	28445.025670766505	0
9	138683	28448.095488352591	1
9	138687	28448.795385504553	0
9	138690	28448.99085968191	1
9	138692	28449.831666449847	0
9	138695	28450.007590045763	1
9	138697	28450.433480066601	0
9	138700	28451.091869293975	1
9	138704	28451.918364184138	0
9	138707	28452.167139354145	1
9	138709	28452.651525953593	0
9	138712	28453.098736999912	1
9	138714	28453.744012739321	0
9	138762	28463.217432383338	1
9	138764	28463.371325986909	0
9	138772	28465.438720593957	1
9	138774	28465.951679624556	0
9	138777	28466.288979991695	1
9	138781	28467.274361300737	0
9	138784	28467.430173403287	1
9	138789	28468.360615381954	2
9	138791	28468.722058891064	1
9	138793	28469.272349890088	0
9	138806	28471.465911575017	1
9	138808	28472.051125561105	0
9	138811	28472.554132879601	1
9	138813	28472.626201328582	0
9	138818	28473.384600665496	1
9	138820	28473.912767873071	0
9	138823	28474.315123610833	1
9	138826	28475.176397937984	2
9	138828	28475.860724127208	1
9	138830	28475.980018497928	0
9	138833	28475.988571731263	1
9	138836	28476.80179778373	2
9	138839	28477.622868849413	3
9	138841	28477.967880389977	2
9	138843	28478.385977251975	1
9	138846	28478.453709873726	2
9	138851	28480.079438529471	1
9	138853	28480.165725541832	0
9	138856	28480.218580287677	1
9	138860	28480.366443033571	0
9	138863	28481.274841267318	1
9	138868	28482.459262529463	2
9	138870	28482.638096903643	1
9	138872	28483.207258141254	0
9	138880	28484.379832283575	1
9	138885	28485.549402824957	2
9	138888	28486.447495495696	3
9	138893	28488.043369941703	2
9	138896	28488.312811025307	3
9	138898	28488.506215244872	2
9	138902	28488.956050714815	1
9	138905	28489.403374278527	2
9	138907	28490.16938331859	1
9	138910	28490.521908318419	2
9	138912	28490.988617542684	1
9	138915	28491.397066182904	2
9	138918	28492.338475513905	3
9	138923	28493.217182586975	4
9	138926	28494.215831093471	5
9	138933	28495.223217291273	6
9	138935	28495.488363278832	5
9	138937	28496.041092147306	4
9	138940	28496.184163395762	5
9	138942	28496.698239889784	4
9	138945	28497.057731945235	5
9	138947	28497.067767842424	4
9	138949	28497.151583024454	3
9	138954	28497.91470413737	4
9	138956	28498.464944072687	3
9	138959	28498.739465662632	4
9	138961	28499.415215689874	3
9	138966	28500.128822979988	2
9	138968	28500.256792175196	1
9	138971	28500.73232827343	2
9	138973	28500.903902045166	1
9	138975	28501.256785922272	0
9	139038	28513.424243415127	1
9	139041	28514.335121348201	2
9	139043	28514.529700665822	1
9	139046	28515.303613097201	2
9	139051	28517.204958427584	1
9	139056	28517.701504419516	0
9	139077	28522.903340969029	1
9	139081	28523.230090477916	0
9	139084	28524.070899697281	1
9	139089	28525.247855478719	0
9	139116	28529.755481203721	1
9	139118	28529.884992283058	0
9	139121	28530.83228666762	1
9	139124	28531.661065819842	2
9	139131	28532.683208730147	3
9	139136	28533.723960384765	2
9	139138	28534.378018649234	1
9	139140	28534.396047176529	0
9	139150	28535.871017452777	1
9	139153	28536.696041688119	2
9	139155	28537.492446985864	1
9	139158	28537.582668010593	2
9	139160	28537.831408771629	1
9	139162	28537.922282658709	0
9	139175	28540.347446730994	1
9	139180	28541.212499637045	2
9	139182	28542.173215354314	1
9	139185	28542.252037857268	2
9	139187	28542.327332855316	1
9	139192	28544.192308370567	0
9	139195	28544.313996497895	1
9	139197	28544.436947912803	0
9	139205	28546.360753033104	1
9	139207	28546.462773357346	0
9	139236	28551.48301802406	1
9	139241	28552.691627933176	0
9	139244	28553.598806158247	1
9	139246	28553.841804690702	0
9	139289	28562.4887246426	1
9	139291	28563.26185686956	0
9	139294	28563.424869509581	1
9	139296	28563.541245632815	0
9	139316	28567.660149736589	1
9	139319	28568.567795114106	2
9	139321	28568.588878434365	1
9	139323	28568.998564930523	0
9	139336	28571.554945430977	1
9	139338	28571.645762079464	0
9	139346	28573.34503658775	1
9	139348	28573.362984739476	0
9	139375	28578.309309081153	1
9	139377	28578.564184584457	0
9	139380	28579.212261503168	1
9	139383	28580.047110491876	2
9	139385	28580.173299674834	1
9	139387	28580.323757260069	0
9	139390	28581.080359514315	1
9	139392	28581.400974503727	0
9	139400	28582.934830805451	1
9	139403	28584.094511245821	2
9	139405	28584.197733277095	1
9	139407	28584.681843601404	0
9	139454	28593.751483197115	1
9	139456	28593.809322651175	0
9	139459	28594.611910459656	1
9	139464	28595.565140983905	2
9	139466	28596.091957746373	1
9	139469	28596.612732463586	2
9	139472	28597.446216270211	3
9	139476	28597.835982096184	2
9	139478	28598.34676957355	1
9	139484	28599.555793850193	2
9	139486	28599.902592038884	1
9	139488	28600.127796419368	0
9	139511	28604.401463447394	1
9	139513	28604.813986321875	0
9	139534	28610.142813507909	1
9	139536	28610.591915401152	0
9	139539	28611.208362263138	1
9	139541	28611.589827446219	0
9	139547	28613.21652843419	1
9	139549	28613.524596848549	0
9	139552	28614.34348367413	1
9	139554	28615.251399829391	0
9	139565	28617.767438668734	1
9	139567	28618.107997831738	0
9	139580	28620.874108563619	1
9	139582	28620.985033764009	0
9	139611	28627.639130950881	1
9	139617	28628.327963775592	0
9	139622	28628.812419777619	1
9	139625	28629.673949088598	2
9	139627	28629.697918189406	1
9	139630	28630.82614377595	2
9	139632	28631.298489688991	1
9	139635	28631.848058707616	2
9	139637	28632.06915734352	1
9	139640	28632.685696918773	2
9	139642	28633.39596695844	1
9	139644	28633.407836658589	0
9	139660	28636.167155238777	1
9	139662	28636.238028405043	0
9	139678	28640.409752894077	1
9	139680	28640.703244536125	0
9	139686	28642.072677765484	1
9	139689	28643.209087228286	2
9	139691	28644.318878749999	1
9	139699	28645.529546681582	2
9	139704	28646.796827076956	1
9	139714	28648.443192801508	2
9	139716	28649.196635684604	1
9	139718	28649.223585008054	0
9	139721	28649.262352953362	1
9	139723	28650.005138664866	0
9	139737	28653.434649321041	1
9	139747	28655.324211035515	0
9	139779	28661.579769238341	1
9	139789	28663.518793609436	2
9	139791	28663.771606557946	1
9	139799	28665.257070174698	2
9	139801	28665.456390323535	1
9	139808	28666.995885431702	0
9	139811	28667.087837272861	1
9	139813	28667.214293473914	0
9	139826	28669.823972159695	1
9	139830	28670.108680555734	0
9	139838	28671.666244149837	1
9	139841	28672.505002907547	2
9	139843	28673.499069958688	1
9	139851	28674.502370360004	2
9	139853	28675.13865879286	1
9	139858	28675.762644752417	0
9	139880	28679.85998097749	1
9	139883	28680.757261881023	2
9	139885	28681.043888873955	1
9	139888	28681.572805610276	2
9	139890	28681.892917217154	1
9	139892	28682.028565336276	0
9	139897	28682.637160242046	1
9	139900	28683.712917206972	2
9	139902	28683.713234859977	1
9	139904	28684.036458912478	0
9	139919	28686.7254102743	1
9	139921	28687.344027993096	0
9	139973	28697.144124480594	1
9	139975	28697.339522852916	0
9	140011	28703.353363515693	1
9	140013	28703.849792384002	0
9	140016	28704.495040401886	1
9	140018	28704.932348591469	0
9	140041	28709.295792416646	1
9	140043	28709.479833532636	0
9	140079	28717.211828933445	1
9	140082	28718.2255276717	2
9	140084	28718.745107483722	1
9	140087	28719.102048770127	2
9	140089	28719.334653382453	1
9	140091	28719.51405645052	0
9	140094	28720.192649434109	1
9	140097	28721.100143114731	2
9	140100	28722.049100827866	3
9	140102	28722.074195092879	2
9	140106	28722.736953850787	1
9	140108	28722.826904799627	0
9	140129	28727.008793660229	1
9	140136	28727.99429987229	0
9	140164	28733.950085500976	1
9	140166	28734.380752727511	0
9	140189	28739.366454366664	1
9	140191	28739.550671056816	0
9	140214	28744.726437562588	1
9	140216	28745.404254772661	0
9	140254	28752.229109024513	1
9	140257	28753.144539053529	2
9	140259	28753.97386633603	1
9	140265	28755.020613076328	2
9	140267	28755.105979043667	1
9	140275	28756.769013862288	2
9	140286	28760.680477128458	1
9	140293	28761.140570613434	0
9	140303	28762.730799934803	1
9	140305	28763.165110894056	0
9	140323	28767.170948814578	1
9	140327	28767.500552620152	0
9	140349	28770.897253224231	1
9	140351	28771.024205978791	0
9	140359	28772.6928655328	1
9	140361	28773.031858048198	0
9	140373	28774.637400915171	1
9	140375	28774.746508480626	0
9	140378	28775.617571194353	1
9	140380	28775.632832509723	0
9	140433	28787.445734711992	1
9	140435	28787.583507598171	0
9	140438	28788.606229807971	1
9	140440	28788.736792794403	0
9	140459	28791.734804194954	1
9	140462	28792.846669404649	2
9	140464	28793.282061144784	1
9	140466	28793.301374198438	0
9	140469	28793.892846634121	1
9	140474	28794.696628833072	2
9	140481	28795.573869537794	1
9	140488	28796.510649819164	0
9	140508	28800.645145246268	1
9	140510	28800.664678089087	0
9	140513	28801.515715111208	1
9	140518	28802.701884867505	2
9	140520	28802.884937708147	1
9	140522	28803.549623270952	0
9	140525	28803.667806660731	1
9	140528	28804.775405114957	2
9	140530	28805.16220179646	1
9	140533	28805.937918987286	2
9	140538	28806.770099239864	3
9	140540	28807.405129011977	2
9	140542	28807.692775817417	1
9	140552	28808.72998438149	2
9	140554	28808.80004563497	1
9	140557	28809.545934854329	2
9	140559	28809.898499887892	1
9	140561	28810.051604112401	0
9	140564	28810.57849397694	1
9	140566	28811.547350389483	0
9	140569	28811.552948875048	1
9	140571	28812.262618874552	0
9	140636	28826.196838748244	1
9	140638	28826.398483362738	0
9	140961	28894.767176902452	1
9	140963	28895.262785321178	0
9	140969	28896.738866337826	1
9	140973	28897.025466336581	0
9	140991	28900.634521369329	1
9	140998	28902.827062176485	0
9	141125	28930.115771997415	1
9	141130	28931.602288996975	0
9	141150	28935.604181951632	1
9	141154	28935.951056083698	0
9	141180	28941.300342370452	1
9	141185	28942.404953095526	0
9	141223	28950.498148130881	1
9	141225	28950.572436164163	0
9	141295	28963.79768086716	1
9	141298	28964.731700944411	2
9	141308	28967.569633630772	1
9	141310	28967.758488563704	0
9	141316	28968.986828542663	1
9	141320	28969.976428425476	0
9	141326	28970.873013917984	1
9	141347	28975.757311264214	2
9	141349	28976.545518317238	1
9	141354	28977.334724561318	0
9	141357	28977.742188878612	1
9	141361	28978.354245445778	0
9	141369	28979.977651675021	1
9	141372	28980.884209436526	2
9	141380	28982.862055206368	1
9	141389	28983.938096007737	0
9	141419	28989.520776949611	1
9	141421	28989.60362910159	0
9	141486	29002.175843265162	1
9	141488	29002.53857655743	0
9	141542	29011.622515744132	1
9	141544	29011.900615270981	0
9	141549	29012.476098703661	1
9	141557	29014.675410012135	0
9	141614	29025.783971087145	1
9	141616	29026.330118865577	0
9	141644	29031.99884170459	1
9	141651	29034.148143220524	0
9	141659	29035.146134950196	1
9	141661	29035.156596877995	0
9	141674	29038.309217057539	1
9	141676	29038.849913958988	0
9	141689	29041.250718483956	1
9	141691	29041.3179341908	0
9	141708	29043.929327898075	1
9	141710	29044.695289400993	0
9	141718	29045.794817745195	1
9	141720	29046.640522978245	0
9	141954	29096.584165298078	1
9	141963	29097.597092823569	2
9	141975	29099.938087822057	1
9	141977	29099.980918962045	0
9	142057	29115.934999709275	1
9	142062	29117.505081715571	0
9	142070	29118.634980231129	1
9	142072	29118.688477666476	0
9	142090	29122.428328142852	1
9	142095	29123.987295469135	0
9	142334	29175.318849019868	1
9	142346	29177.454004281394	0
9	142363	29180.113559486413	1
9	142368	29180.968535147862	2
9	142371	29181.81121254803	3
9	142376	29183.075871738704	2
9	142381	29184.153363761373	1
9	142383	29184.258462451445	0
9	142392	29185.086762588539	1
9	142394	29186.208640832964	0
9	142397	29186.267971037675	1
9	142399	29186.459757511024	0
9	142402	29187.080625610866	1
9	142404	29187.515069452528	0
9	142415	29190.076572099768	1
9	142417	29190.246021248016	0
9	142454	29197.38418941076	1
9	142476	29202.402004401361	0
9	142500	29207.668870699563	1
9	142502	29208.167288359469	0
9	142570	29221.685675860634	1
9	142572	29221.802947820868	0
9	142608	29230.365488103469	1
9	142610	29230.698734025128	0
9	142616	29232.314526703739	1
9	142618	29233.269992399033	0
9	142633	29235.181741427043	1
9	142635	29235.218191729101	0
9	142660	29240.130037983945	1
9	142662	29240.199817379272	0
9	142672	29242.108875484923	1
9	142674	29242.93551619786	0
9	142677	29243.203784315819	1
9	142679	29243.77875560898	0
9	142709	29249.026390512167	1
9	142711	29249.052869012807	0
9	142864	29280.685747328467	1
9	142868	29281.315565881905	0
9	142881	29284.142021505973	1
9	142884	29285.247594811647	2
9	142886	29285.590733126947	1
9	142888	29285.871015150896	0
9	143047	29318.105725118306	1
9	143059	29320.784869213464	0
9	143065	29322.129238057948	1
9	143067	29322.130791734285	0
9	143092	29327.455386625576	1
9	143094	29327.933326919115	0
9	143129	29334.443341151504	1
9	143134	29335.500946729081	0
9	143287	29365.855104614952	1
9	143291	29366.252755679309	0
9	143336	29375.234491416597	1
9	143338	29375.701895511251	0
9	143409	29390.550342332729	1
9	143411	29390.94638903253	0
9	143429	29394.181564091303	1
9	143434	29395.39122118995	0
9	143445	29398.171835661836	1
9	143457	29400.495756696694	2
9	143459	29401.482725934142	1
9	143467	29402.778764026955	2
9	143469	29403.222049841716	1
9	143471	29403.291139124688	0
9	143496	29407.930827938363	1
9	143499	29409.010279278614	2
9	143501	29409.08737459833	1
9	143503	29409.745344950109	0
9	143531	29415.068618100201	1
9	143533	29415.465335512716	0
9	143829	29475.027312771113	1
9	143849	29479.782236192993	0
9	143884	29486.105198765521	1
9	143891	29487.876263347337	0
9	143894	29488.128639882126	1
9	143897	29489.03415722919	2
9	143899	29489.501092740141	1
9	143901	29489.607827010456	0
9	143917	29493.120078422478	1
9	143920	29494.057609896897	2
9	143924	29494.248804492922	1
9	143929	29494.99169737588	0
9	143939	29496.958068507235	1
9	143942	29497.859801116004	2
9	143944	29498.306124781054	1
9	143946	29498.360418644037	0
9	143952	29499.89435895586	1
9	143958	29500.675278700728	0
9	143961	29500.859370844789	1
9	143965	29501.670554935138	0
9	143968	29502.033937465191	1
9	143970	29502.638285474982	0
9	143986	29505.570969136224	1
9	143988	29505.626524824526	0
9	144152	29538.98745794667	1
9	144154	29539.08094265121	0
9	144349	29578.273430090288	1
9	144351	29578.359062129829	0
9	144627	29634.467265440507	1
9	144629	29634.785631517965	0
9	144649	29638.258743964026	1
9	144659	29640.719836388732	0
9	144674	29643.36544660235	1
9	144683	29645.097680578025	0
9	144686	29645.245349565225	1
9	144688	29645.497678367393	0
9	144696	29647.282089505607	1
9	144698	29648.011950223491	0
9	144701	29648.105401582533	1
9	144703	29648.109799300292	0
9	144724	29652.999703097047	1
9	144727	29653.894304035308	2
9	144729	29653.934259613072	1
9	144731	29654.404662060145	0
9	144739	29655.982836545801	1
9	144741	29656.250255076827	0
9	144747	29657.760635862856	1
9	144749	29657.938306520222	0
9	144757	29659.868981257624	1
9	144762	29661.20942206737	0
9	144804	29668.228173760589	1
9	144806	29668.785462685795	0
9	144809	29669.05932594648	1
9	144811	29669.170961273866	0
9	144832	29674.09271209341	1
9	144836	29674.617864573783	0
9	144844	29675.800624521249	1
9	144846	29675.803247137325	0
9	144859	29678.880013553506	1
9	144861	29679.46032864439	0
9	144872	29681.808500969676	1
9	144874	29682.881595580174	0
9	144990	29706.040818544093	1
9	144997	29708.103371364352	0
9	145000	29708.142753524508	1
9	145004	29708.383916964229	0
9	145017	29711.11475770789	1
9	145019	29711.288091319321	0
9	145032	29714.158510327234	1
9	145036	29714.907762037743	0
9	145239	29756.845646566512	1
9	145242	29757.655346005956	2
9	145247	29759.223047103544	1
9	145257	29760.856246997775	2
9	145267	29762.847593248435	3
9	145269	29763.321878607016	2
9	145274	29764.011637817056	1
9	145279	29764.723342812978	2
9	145282	29765.626008206032	3
9	145286	29766.298913408941	2
9	145293	29766.959379723054	1
9	145295	29767.04820949139	0
9	145300	29767.735949145149	1
9	145302	29768.102578211093	0
9	145341	29776.14816510089	1
9	145343	29776.932953527487	0
9	145346	29777.21056306137	1
9	145349	29778.246749716701	2
9	145354	29779.889730354746	1
9	145366	29781.511774133595	2
9	145368	29782.029059467437	1
9	145373	29782.769087715908	0
9	145405	29788.313087695635	1
9	145407	29788.401840387989	0
9	145415	29790.496544083658	1
9	145417	29790.686047797214	0
9	145585	29824.295187452978	1
9	145590	29826.414191870549	0
9	145603	29828.201603416338	1
9	145611	29830.158236279603	2
9	145616	29831.115020199656	1
9	145618	29831.77935560106	0
9	145658	29839.587182644367	1
9	145666	29841.63631939121	0
9	145701	29848.016208301191	1
9	145704	29848.910722308499	2
9	145706	29849.51949558967	1
9	145708	29849.658747302388	0
9	145718	29851.039788305466	1
9	145721	29851.859900121936	2
9	145726	29853.047044414785	1
9	145733	29854.306943438727	0
9	145756	29858.656482665412	1
9	145758	29858.707442163144	0
9	145786	29865.278189337239	1
9	145788	29865.864676343752	0
9	145796	29866.97851086332	1
9	145798	29867.097680284563	0
9	145804	29869.037292137449	1
9	145810	29869.363137324179	0
9	145828	29873.135128780067	1
9	145830	29873.252743870922	0
9	145833	29874.22804022374	1
9	145835	29874.45436018167	0
9	145845	29876.27895515541	1
9	145850	29877.261031739095	0
9	146043	29915.766687378551	1
9	146057	29918.023196895819	0
9	146146	29936.40408717737	1
9	146148	29936.691545887152	0
9	146163	29939.298968886289	1
9	146167	29939.591176184975	0
9	146202	29945.415996682161	1
9	146207	29946.593921999039	0
9	146258	29956.933713779673	1
9	146260	29956.986765415016	0
9	146280	29961.001505735497	1
9	146282	29961.005504417895	0
9	146454	29996.633316319323	1
9	146462	29998.86846196019	0

