version 2
run Second_exit_5-11-20191114-11:42:37-8925
attr configname Second_exit_5
attr datetime 20191114-11:42:37
attr experiment Second_exit_5
attr inifile omnetpp.ini
attr iterationvars ""
attr iterationvarsf ""
attr measurement ""
attr network ResponseTimeNetwork
attr processid 8925
attr repetition 11
attr replication #11
attr resultdir results
attr runnumber 11
attr seedset 11
param **.Source.interArrivalTime exponential(5s)
param **.jobPriority bernoulli(0.6)
param **.PS.serviceTimeU1 "uniform(0.8s, 1.2s)"
param **.PS.serviceTimeU2 "uniform(1.8s, 2.2s)"
param **.SS1.serviceTime exponential(1s)
param **.SS2.serviceTime exponential(1.2s)
param **.PS.exitProbability bernoulli(0.5)

vector 0 ResponseTimeNetwork.sink lifeTimeU1:vector ETV
attr interpolationmode none
attr title "lifetime of arrived jobs U1, vector"
attr unit s
vector 1 ResponseTimeNetwork.sink totalServiceTimeU1:vector ETV
attr interpolationmode none
attr title "the total time spent  by arrived jobs U1, vector"
attr unit s
vector 2 ResponseTimeNetwork.sink lifeTime:vector ETV
attr interpolationmode none
attr title "lifetime of arrived jobs, vector"
attr unit s
vector 3 ResponseTimeNetwork.sink totalServiceTime:vector ETV
attr interpolationmode none
attr title "the total time spent  by arrived jobs, vector"
attr unit s
vector 4 ResponseTimeNetwork.sink lifeTimeU2:vector ETV
attr interpolationmode none
attr title "lifetime of arrived jobs U2, vector"
attr unit s
vector 5 ResponseTimeNetwork.sink totalServiceTimeU2:vector ETV
attr interpolationmode none
attr title "the total time spent  by arrived jobs U2, vector"
attr unit s
vector 6 ResponseTimeNetwork.QueueU2 queueLength:vector ETV
attr interpolationmode sample-hold
attr title "queue length, vector"
vector 7 ResponseTimeNetwork.QueueU1 queueLength:vector ETV
attr interpolationmode sample-hold
attr title "queue length, vector"
vector 8 ResponseTimeNetwork.SS1 queueLength:vector ETV
attr interpolationmode sample-hold
attr title "queue length, vector"
vector 9 ResponseTimeNetwork.SS2 queueLength:vector ETV
attr interpolationmode sample-hold
attr title "queue length, vector"
0	20100	10007.294043761102	1.138778745476
0	20162	10036.395408689294	7.067737823989
0	20165	10037.29589256306	3.312818439083
0	20170	10038.974628402179	0.915515925456
0	20214	10063.299554635769	7.854408055655
0	20285	10080.86650456727	16.553542891063
0	20290	10086.693200459714	1.138456721045
0	20315	10096.494283178979	1.157889538165
0	20335	10105.099161343993	3.383482461486
0	20347	10117.465720916498	1.129032453988
0	20372	10122.522162669928	5.215586780269
0	20427	10134.289015199224	1.303621600422
0	20432	10135.434769935886	17.493484182962
0	20442	10137.715173012184	1.345220947949
0	20450	10139.628085049035	1.536516931861
0	20465	10143.630829271557	9.288128800233
0	20470	10149.075706846071	1.120510001667
0	20475	10173.247065129989	1.064346625563
0	20480	10182.388415428514	0.878077394888
0	20485	10189.000977958765	0.901121230982
0	20520	10211.174406470927	0.890517657436
0	20530	10219.916536188946	3.601104802456
0	20545	10226.17680779468	2.815905215423
0	20577	10235.607576643383	7.688694983382
0	20592	10240.502258422315	1.18388434568
0	20635	10252.423807276248	0.924507932926
0	20642	10254.72871683611	0.943599413615
0	20645	10255.550969898872	12.775198604578
0	20660	10262.78937113415	5.02578635341
0	20672	10274.620540517945	2.066202178726
0	20695	10285.310668527006	10.167715237297
0	20702	10290.263264211932	1.1597728041
0	20705	10291.217802243041	1.523722163636
0	20710	10297.656298651932	0.882448679768
0	20715	10301.196587059276	1.161405312084
0	20727	10304.111777484946	1.242115272555
0	20737	10306.622868693397	0.869857687689
0	20742	10307.430801517573	0.958465726476
0	20747	10308.459500352722	1.332717579567
0	20765	10312.438906613752	1.142343933135
0	20777	10314.944145817688	1.318866125293
0	20810	10324.086333349233	5.441152713121
0	20853	10331.655070581267	4.422708753287
0	20861	10334.017431343886	3.637133977257
0	20864	10335.061325036808	6.950402659736
0	20880	10341.87182141162	23.725923068575
0	20901	10346.557080973312	1.212974490449
0	20918	10349.542054054141	3.168737554503
0	20925	10350.691297495831	1.469422621871
0	20957	10358.754027320445	8.209642107428
0	20967	10361.193935163342	5.452830462491
0	20972	10362.157860963721	1.162323198438
0	20985	10366.213798143291	4.700580320309
0	21027	10382.05070826271	6.491270844299
0	21040	10390.266589649373	2.214434603242
0	21057	10394.321429519381	3.059078852935
0	21060	10395.517242622681	1.693374929632
0	21085	10414.899485058959	1.080920276325
0	21092	10416.600960263015	0.986147240456
0	21105	10423.408157801339	7.399821312617
0	21172	10443.138630313996	2.430815174888
0	21182	10445.178158198618	11.180400937961
0	21185	10446.040142248054	5.435846194848
0	21207	10460.170734098739	4.784688279256
0	21219	10463.193606956321	3.663432806193
0	21222	10464.073640556651	1.394641050893
0	21230	10466.401974140741	3.643123628956
0	21240	10469.582632011034	2.874656174709
0	21271	10489.10755656147	4.298000903162
0	21289	10492.808463745839	2.669079187253
0	21337	10504.327464029987	8.63361034259
0	21354	10507.314777815857	1.485900649862
0	21357	10508.389159374827	9.804156970997
0	21370	10514.90952229797	12.594580231177
0	21399	10541.206475557555	3.389397026455
0	21415	10546.215377159544	1.086039817426
0	21430	10557.134247647534	6.742369540772
0	21445	10563.99266595752	0.942888784315
0	21477	10584.223598838185	0.837145358045
0	21482	10585.24305002257	11.623663616649
0	21485	10586.190377748252	5.224976344845
0	21490	10597.502298687311	0.961493521929
0	21495	10599.206905073445	1.199551046453
0	21500	10610.524174445451	0.920877520088
0	21527	10644.470704098702	1.079788468778
0	21530	10645.426024678261	1.062387537002
0	21535	10646.644915010085	0.801158860512
0	21550	10672.153945046695	0.898392967042
0	21605	10695.282390902381	7.150759711926
0	21625	10699.528825673551	12.788029003015
0	21647	10708.648132004726	2.774364106543
0	21650	10709.457342471133	1.149851030811
0	21689	10723.964809326365	8.631583045602
0	21700	10731.429341399408	1.091191944946
0	21765	10755.224210840754	10.534501705476
0	21790	10767.568510506523	3.683046210951
0	21805	10772.580723295301	2.911754537839
0	21825	10783.336673762178	2.386818314726
0	21830	10784.948812792351	0.923937609512
0	21840	10793.641971705181	2.106649082117
0	21847	10795.607495058181	1.114031457901
0	21860	10801.229741161907	6.671437560101
0	21912	10817.223890362354	13.785329487226
0	21932	10822.085036110712	11.244412866872
0	21935	10823.204435190392	1.181421849125
0	21955	10848.859636552617	1.069062067941
0	21965	10857.029222774074	2.274722111927
0	22032	10889.483133076965	2.079770653754
0	22039	10890.326213624603	1.113301471098
0	22088	10899.987502325659	9.918846932327
0	22136	10910.169193626157	1.431283203858
0	22141	10910.986927574369	12.989818686993
0	22172	10917.748044487588	7.23192115131
0	22185	10927.863521293388	0.84859416401
0	22234	10942.225210077333	2.109211688914
0	22259	10947.258141176707	1.670705510892
0	22280	10952.679934739346	13.715639568137
0	22302	10957.39327144788	3.206526127152
0	22330	10968.5535101887	36.144046617544
0	22367	10980.327055111047	8.901251979253
0	22374	10981.217173686888	3.044480988984
0	22382	10983.314816100415	2.416085044521
0	22390	10985.342577148866	4.907925934409
0	22402	10989.132330681643	1.687475799145
0	22410	10991.722098475367	4.673331541074
0	22415	10993.357956722927	11.396089638242
0	22450	11018.910114918612	3.590635519031
0	22527	11041.615866398896	6.48285120655
0	22530	11042.442598381537	1.455113084979
0	22574	11056.998476381337	1.16594128767
0	22581	11058.044377781467	1.949346754246
0	22584	11059.01519333638	2.588975911759
0	22589	11060.019030945485	2.884795072028
0	22592	11060.989657814165	8.619620750852
0	22610	11067.561149878375	3.536530671971
0	22634	11074.265182779696	2.116406540718
0	22637	11075.436563374069	2.973644782545
0	22665	11088.726027176045	1.098099604342
0	22692	11106.126828137699	1.830372288732
0	22695	11107.091080370645	3.118227111082
0	22700	11113.249837215814	0.868342156615
0	22715	11122.389447261296	2.968131120235
0	22720	11133.956562545802	0.81834587073
0	22780	11157.815325037691	1.197191235796
0	22785	11168.88679453784	0.959432460647
0	22817	11184.021482284836	3.722211924343
0	22820	11185.042220298763	1.965366000579
0	22835	11189.312503887962	8.110791020559
0	22845	11196.847716752547	1.011202372797
0	22884	11219.760657064933	1.069711807091
0	22887	11220.748277633022	1.759312119123
0	22910	11227.404742944861	0.821286236215
0	22915	11232.397240282186	0.81702089794
0	22950	11248.120837251806	9.325585401101
0	22957	11257.292475265452	1.190321590286
0	22960	11258.146345756204	1.908512874388
0	22972	11262.607863760303	2.97750869787
0	22987	11265.80910653978	3.749228402888
0	23020	11276.624724486263	7.457148933935
0	23030	11278.628125873319	1.92062376853
0	23037	11286.262693711565	1.103960075229
0	23055	11302.557188949824	4.86793848097
0	23140	11327.658700366428	3.582774853142
0	23165	11335.038128013034	6.460127044076
0	23175	11342.812278753658	2.716396700114
0	23180	11345.796249460674	1.14104036754
0	23190	11348.166285322642	2.353808336844
0	23237	11384.262513761339	1.321110813108
0	23245	11386.204408105859	5.795820967202
0	23265	11401.854392884279	6.237323755694
0	23280	11406.891321620037	1.749874165996
0	23287	11411.868964776444	1.101821190305
0	23297	11414.840267791831	1.117806939315
0	23317	11420.271075388792	1.362607577586
0	23337	11425.207260818678	1.030320920143
0	23347	11428.055859582957	5.783137943754
0	23362	11431.693994832652	1.560720430619
0	23365	11432.79705759581	5.480323118535
0	23375	11459.197682198818	1.086136011593
0	23405	11477.069259419488	12.022300310885
0	23420	11494.868803021018	0.808375486545
0	23460	11511.765815703455	4.887607646631
0	23472	11517.730371244297	1.314780662574
0	23475	11518.677777547341	1.559270465537
0	23485	11521.102892850704	5.204353765438
0	23507	11530.241839939232	5.984864125591
0	23520	11558.483561894837	1.262194571227
0	23525	11564.954002957106	1.024656352866
0	23542	11567.86080513351	2.853356291727
0	23550	11569.887725597027	4.211934209218
0	23555	11577.147634902933	1.038498940691
0	23587	11591.322698460721	8.876768826232
0	23626	11599.270559796935	12.929261954741
0	23649	11603.591650048235	14.472690979434
0	23659	11605.568051754927	2.455787224068
0	23664	11606.679909214621	21.382070633269
0	23682	11610.606326846649	7.577053106629
0	23724	11620.187350113123	3.878981745036
0	23727	11621.179806324459	23.532011476734
0	23735	11625.697689494377	1.112105522398
0	23747	11634.703099876083	1.300029245586
0	23770	11661.820674328142	6.168474232017
0	23790	11678.081766790653	1.944000878951
0	23795	11680.756210884205	0.956584962644
0	23812	11685.099976719587	1.453972776471
0	23820	11687.255551820478	4.769674788731
0	23880	11738.449958327391	3.756783724516
0	23905	11754.863997132111	0.943050919566
0	23915	11758.404955568469	1.605782938023
0	23987	11788.612347632329	7.241517215314
0	24000	11792.707388826443	10.762232307066
0	24005	11803.729373189393	1.140628761519
0	24012	11808.237359539228	1.061599535588
0	24015	11809.052169787227	1.28761496071
0	24032	11819.159073395684	3.095729810567
0	24047	11825.499529005823	6.421498865574
0	24070	11849.274382979513	4.165969421077
0	24092	11869.948721587057	4.909933658958
0	24114	11876.725747223526	0.816927415319
0	24119	11877.668827673562	1.143596958826
0	24137	11894.406507322624	0.994760260452
0	24174	11928.095565079518	2.927081353407
0	24222	11942.866243940387	3.621249079817
0	24266	11952.215219940419	6.615227762641
0	24314	11962.805021351223	1.758809707532
0	24319	11963.934335524236	7.591688376355
0	24322	11964.942213762851	1.232827930847
0	24345	11984.030656176762	3.168189816091
0	24367	11997.601698510525	4.073727586899
0	24370	11998.63556620459	3.804176653753
0	24395	12006.367493545825	2.45481697112
0	24420	12012.346365431355	2.39378366812
0	24425	12016.449850354589	1.134229970444
0	24487	12041.111984061496	16.265291091109
0	24490	12041.971943802898	1.194418539523
0	24497	12045.173934928667	0.994105218165
0	24505	12053.222915025763	0.99289348051
0	24515	12056.766896976195	2.017534064176
0	24524	12057.932855114509	1.140921690781
0	24550	12066.770678813452	4.106765017513
0	24567	12074.187495060351	16.872806071507
0	24585	12081.476110787895	7.92741428879
0	24592	12087.679452305899	0.902959970478
0	24599	12088.495547338721	1.704016674834
0	24607	12090.534496531223	2.306636412649
0	24632	12096.241334854646	8.392623669591
0	24659	12101.457857860964	5.890186370094
0	24677	12105.511065314398	1.549996421637
0	24715	12128.664355338204	20.178443628019
0	24730	12132.342731702913	1.105584870093
0	24745	12137.177273906221	3.863820313623
0	24772	12144.347261096721	6.710685487331
0	24800	12161.030533363211	3.880360506029
0	24817	12170.758103600642	4.146549975251
0	24827	12173.012800439863	0.895764294546
0	24835	12175.254231307295	5.220275709376
0	24852	12181.86360911593	0.844965407718
0	24870	12188.049506689327	2.902237269862
0	24929	12224.429054071702	3.945863537118
0	24934	12225.609752046451	4.681946765216
0	24937	12226.784965518903	15.545781186064
0	24955	12230.439473938332	3.052496340375
0	24960	12255.594843167773	0.819135875348
0	24965	12256.79137530058	0.802170288097
0	24995	12267.295895400364	4.682390791356
0	25005	12272.697602799039	3.020411000563
0	25019	12284.894588189308	1.4319116993
0	25027	12286.85309041293	1.273417880357
0	25060	12316.933547092816	1.048844066914
0	25087	12330.025708221221	6.960543346363
0	25099	12331.848727519481	1.501441721446
0	25102	12332.886644743799	2.972517134787
0	25115	12338.077403751967	6.989093913464
0	25122	12342.665473960814	1.133962434437
0	25154	12350.065417310756	4.669929022323
0	25170	12354.340985354383	11.725968542441
0	25177	12355.393866483187	7.84109007791
0	25195	12360.216306177804	9.706907416006
0	25212	12364.691100867464	0.923877636716
0	25220	12366.794825022351	5.34202311166
0	25235	12394.099393809532	1.086961504565
0	25240	12395.26918179174	2.775210944945
0	25272	12407.28989288638	1.177603861317
0	25279	12408.376033030903	2.261400661312
0	25284	12409.237698870791	10.084589130919
0	25295	12412.558275822258	4.058636903981
0	25307	12418.889059314906	2.048336571695
0	25315	12421.120221725601	2.225733087337
0	25325	12429.613874228201	0.894676953368
0	25330	12433.31247716392	1.046250213683
0	25335	12437.101346466669	1.1507768902
0	25347	12439.913882954519	0.88400845509
0	25369	12448.638306910825	1.172568919137
0	25397	12454.578693186679	2.230564620884
0	25407	12456.648056466785	8.089845680907
0	25422	12459.768900841848	1.633624358293
0	25442	12466.158438426811	1.61848212489
0	25452	12468.228308577273	1.332012750283
0	25475	12475.614485894041	11.444480275451
0	25500	12484.165984802049	1.103926208802
0	25510	12490.35983988707	2.250178277291
0	25515	12495.674466960829	1.145343707036
0	25535	12507.155377853459	1.16052928865
0	25540	12509.94146101538	1.152525230963
0	25567	12536.35308571573	1.173249521852
0	25582	12539.257134651612	3.946938237904
0	25610	12558.490426382198	3.889081404736
0	25622	12571.100502481258	1.056344436493
0	25630	12572.999457457217	3.716787983458
0	25665	12597.86116364431	1.183150361199
0	25695	12615.643727605275	3.007838396729
0	25767	12661.727568931301	1.640274026723
0	25775	12665.551201331501	5.792270944469
0	25795	12675.684344463091	0.844300429244
0	25840	12697.867896575802	0.971176680829
0	25867	12716.547378054373	4.516937714059
0	25875	12718.534970237613	1.369579125101
0	25895	12725.322136205576	8.835308120846
0	25920	12734.014839640848	4.506905317724
0	25925	12737.012187367652	1.116096220165
0	25935	12745.243400664136	0.898675433733
0	25979	12754.517854405438	7.727120138583
0	25990	12757.498929842339	5.837253988894
0	25995	12758.934259439299	0.827964161336
0	26031	12780.417808279497	6.49510616744
0	26034	12781.589747856566	2.110615505986
0	26052	12785.584506759243	1.898415528188
0	26070	12796.994349023255	1.102798981313
0	26082	12801.487416525112	1.058143146968
0	26094	12803.615728162901	2.080109891779
0	26114	12808.187084150478	7.243210795806
0	26127	12811.171370317113	11.495001707464
0	26146	12814.130297657839	1.956366261761
0	26151	12815.01216368218	1.355583622686
0	26162	12818.080077700029	3.096860397251
0	26172	12820.084559854018	7.993883405719
0	26175	12820.894516401077	1.258774009769
0	26180	12822.221342607292	14.358454097661
0	26205	12834.824345777748	2.647117988603
0	26237	12851.480479938725	3.468444875149
0	26254	12854.516719473248	5.028305204398
0	26264	12856.561016417762	4.760662654086
0	26285	12862.026214546273	5.823989030405
0	26300	12871.307035681079	0.818460313138
0	26352	12919.828791387668	1.022182566021
0	26357	12920.867142858086	1.166544152306
0	26370	12924.511649547321	3.923308014709
0	26375	12925.832865619375	13.092803012968
0	26380	12927.63728768806	1.050017384067
0	26395	12940.218967128912	0.831647967454
0	26410	12947.729786240432	4.91436994756
0	26430	12953.904827057055	3.329001912381
0	26437	12956.189671986869	0.965908205789
0	26440	12957.027100825722	1.650225392418
0	26445	12972.703112399659	1.107659713179
0	26450	12976.678859274732	0.820960222185
0	26472	12985.645718226421	7.625224534958
0	26517	12997.860593744682	7.116720227766
0	26522	12998.775247897802	13.84366499686
0	26542	13004.663798347011	6.634495104795
0	26552	13007.463501912853	0.982935274672
0	26560	13009.701691083169	0.900839565042
0	26570	13021.255981329751	0.851610283554
0	26597	13029.911052379459	7.112407099546
0	26660	13063.397422857898	11.166137748432
0	26672	13074.613936656937	1.588302670638
0	26705	13085.42190488686	8.004572408878
0	26710	13096.542037171917	0.847368733119
0	26715	13097.490466842446	0.894553064276
0	26722	13099.257795161504	1.062934006937
0	26734	13101.255115385476	1.878263940271
0	26755	13105.839616898779	5.305151398829
0	26765	13110.696965780824	3.785075152085
0	26780	13122.32780485036	4.009362916967
0	26794	13129.365437817234	4.102812068566
0	26821	13135.526204062975	1.369110803647
0	26834	13138.869045832357	1.703287815129
0	26848	13140.694073282438	11.518502654354
0	26859	13143.871947690728	3.564099343901
0	26911	13156.713551165935	2.769113986815
0	26914	13157.6929634359	8.177233161405
0	26932	13161.864244389654	3.948816203972
0	26945	13165.536506809844	14.057744986948
0	26955	13173.762690037626	3.153855581459
0	26960	13177.371359664314	0.837400459498
0	26969	13179.386419259079	0.900687481184
0	26972	13180.283111675337	1.141807078243
0	26982	13182.207916960281	1.223947058525
0	26995	13185.186235436027	5.891101956316
0	27015	13202.722600086402	1.010088600405
0	27030	13212.365410606268	5.612939454154
0	27050	13221.222588203082	1.867851130492
0	27055	13230.725222518388	0.936971493438
0	27074	13244.743840540555	3.410610894909
0	27085	13247.628716294077	4.573641597147
0	27120	13259.203908259709	1.081272722967
0	27137	13265.524491690418	0.815416984446
0	27150	13268.712974898346	3.346484213004
0	27187	13279.610965418064	10.526220435926
0	27195	13282.970659030339	11.979261929038
0	27232	13300.32540762836	0.807325056661
0	27262	13313.343901633349	1.639011026611
0	27270	13315.904526046393	7.033982554651
0	27287	13320.241649687353	1.142511061486
0	27290	13321.378409985236	4.911337560185
0	27329	13369.504310680683	4.330984619679
0	27332	13370.575638810302	3.064500208198
0	27344	13376.417783312743	1.185725340247
0	27347	13377.543178851122	1.860022546957
0	27394	13389.344647854332	10.418612106838
0	27412	13393.554142017708	7.063013710317
0	27415	13394.474581018508	11.039347881318
0	27420	13407.737632121303	0.925800672732
0	27427	13412.096656568715	1.06235235855
0	27435	13416.182323656999	1.02950473642
0	27475	13446.427771402442	8.080945978854
0	27485	13448.775766550885	2.24122994408
0	27495	13475.086563451402	0.837811692152
0	27505	13494.77840496939	2.126087704648
0	27515	13506.315355226873	2.87910133002
0	27527	13510.024412716623	1.145341501012
0	27539	13512.157583006915	1.597103709709
0	27542	13513.227342410829	6.430115220381
0	27569	13520.038208574974	1.84521736017
0	27609	13528.748284486291	4.990368560551
0	27612	13529.785706489422	3.199567665689
0	27620	13532.610969593496	1.155031330138
0	27675	13572.596304163675	8.219433563996
0	27695	13588.37795385674	4.15742722034
0	27700	13597.391430738415	1.070171845797
0	27705	13624.884401811094	0.814963409957
0	27710	13631.151214804533	0.863699213788
0	27727	13654.724374592306	1.185998973344
0	27739	13656.926523328854	7.581861278266
0	27742	13658.008643569054	3.359694146022
0	27750	13660.365155068358	1.062618178129
0	27767	13669.0924310129	1.384685262539
0	27821	13681.24106973787	12.607312750054
0	27834	13684.228761472415	17.16119330364
0	27875	13693.286805383971	10.063434357172
0	27885	13699.333228918217	2.155742437645
0	27895	13714.316930173361	0.929973088764
0	27920	13724.891548158675	7.775261492942
0	27935	13731.528518157834	1.011614411231
0	27972	13757.734781100539	8.781245917683
0	27990	13763.442481372916	12.411189312853
0	28005	13782.807616848212	1.070288481843
0	28020	13788.468277225487	4.325958930549
0	28025	13793.514772958912	0.809447406046
0	28030	13804.154232106097	0.876827676129
0	28045	13815.327570931627	3.844364512726
0	28060	13821.770905932562	5.127772816312
0	28080	13849.841340670638	1.07882116586
0	28085	13852.879263784662	0.868843494821
0	28110	13876.352975565023	1.124696931988
0	28115	13884.063346328568	0.960839976743
0	28154	13895.654874770481	6.684614242368
0	28175	13905.573372210779	1.036442892347
0	28180	13906.542244522651	17.817840891591
0	28210	13929.810427859058	6.376595442462
0	28225	13946.66100011939	2.862746956944
0	28240	13967.934282519405	3.037532626
0	28247	13971.458692957112	6.28044803118
0	28275	13981.855379136501	5.328668549996
0	28280	13991.037023869161	0.897993056756
0	28300	13998.100494472687	1.723509896197
0	28309	14000.0512155621	6.674798129799
0	28320	14002.854114119957	6.852537242893
0	28339	14016.17080217581	0.953128906433
0	28344	14017.269001334531	1.867500856705
0	28355	14023.468785075674	7.77339639342
0	28367	14027.450191224784	10.62216371771
0	28382	14036.286237039148	9.86155844978
0	28390	14048.589198662991	0.992397912405
0	28402	14052.494220681738	0.893968549836
0	28410	14055.849434311057	6.671963740883
0	28430	14063.682823510538	3.99613142862
0	28457	14077.316461944018	1.69080139331
0	28485	14083.30519379711	3.916513835105
0	28514	14090.707837504872	14.226213282006
0	28517	14091.897303270248	13.251263733763
0	28522	14092.83248400863	2.269180346576
0	28540	14103.396183576705	0.851423036586
0	28569	14111.101008405899	3.206648020725
0	28595	14122.470225311203	1.103348090779
0	28612	14148.129634396406	1.400022671119
0	28625	14152.655961632459	1.808131414665
0	28639	14167.38478580295	1.329260902536
0	28659	14171.35340216114	1.779135992885
0	28667	14173.362345620438	6.181197094176
0	28707	14209.199301161455	0.970488114655
0	28735	14228.829055514344	0.919373566844
0	28772	14239.301414084177	1.75534942539
0	28777	14240.306589284189	3.987834741362
0	28797	14244.160753390588	2.52374515907
0	28800	14245.325308728613	3.903432757673
0	28850	14267.580315652836	6.002762216958
0	28872	14277.502944110062	6.207828534349
0	28896	14282.224256791307	4.110938885327
0	28904	14284.111898476763	2.341827542704
0	28916	14286.100606134015	10.381167926951
0	28919	14286.942683213617	5.13244535429
0	28932	14289.884519315271	3.87038111238
0	28945	14295.090785311257	0.841847354919
0	28962	14306.064166361461	0.869083543774
0	28970	14307.917391363899	1.264626569438
0	28980	14312.947887220194	1.032840908226
0	29025	14330.644179841367	12.286036683206
0	29040	14343.216511611288	3.492571162109
0	29079	14354.030576387855	1.06312697661
0	29082	14355.014411782349	3.172081158776
0	29095	14358.290619818462	1.662735362099
0	29100	14361.791932683814	0.916224544682
0	29132	14368.356132468913	6.352574547686
0	29140	14371.009678872578	1.047029004153
0	29150	14386.756507495926	0.967719284538
0	29157	14388.288743294786	0.867248899676
0	29162	14389.276858100864	1.053133292439
0	29165	14390.315064918539	1.452466373149
0	29175	14397.46275902246	2.233877668365
0	29204	14420.449442390704	4.376741229808
0	29232	14449.136864422609	1.095939307753
0	29235	14450.063863033124	1.840856438836
0	29245	14459.424447779676	1.141263794247
0	29250	14467.375207543273	1.184233409632
0	29275	14478.508411762575	1.016826444119
0	29280	14482.307466029863	0.817179131135
0	29295	14497.107090832899	1.098997009452
0	29302	14500.497580698758	0.84046129277
0	29335	14510.922177666974	0.916130232438
0	29370	14537.963312024204	7.415701482312
0	29385	14548.521787302951	0.931336943898
0	29390	14556.093206038893	0.920446751546
0	29400	14569.862140527078	2.191260272823
0	29417	14587.950404952011	4.687404145951
0	29462	14598.612191801644	4.026008451064
0	29496	14605.125575127012	2.68603073547
0	29507	14608.094099575679	7.255925571976
0	29580	14621.624999045679	5.718012185125
0	29593	14624.611669052397	4.704994466095
0	29598	14625.472196980571	14.17699615715
0	29624	14631.882249287893	7.018941160808
0	29629	14633.018507138085	14.222573094566
0	29632	14633.905143601172	18.707534189926
0	29660	14651.975201178479	2.280327848467
0	29702	14676.859999829901	8.177041790303
0	29705	14677.985554057357	1.571297915895
0	29734	14685.344853601921	5.639681774655
0	29790	14709.719914782672	6.343728386306
0	29817	14724.264744623887	1.545145951688
0	29825	14726.885218444178	4.673776302714
0	29832	14728.593185817591	0.833836607169
0	29850	14734.100325823588	4.474675121674
0	29862	14737.898393620513	2.12051640827
0	29865	14738.822468180451	10.298122593679
0	29870	14741.054226894581	1.167790273111
0	29895	14749.996092743566	1.00251964787
0	29912	14754.819744467745	11.03271709689
0	29920	14757.235174711121	2.689564706977
0	29930	14774.895105450696	1.120332880691
0	29935	14776.374066522758	0.890282136574
0	29945	14783.887654659689	2.616560256251
0	30010	14814.018059029114	2.151309050326
0	30015	14822.22016075647	1.024311902002
0	30022	14823.992284140785	1.116110319644
0	30057	14833.190073905127	4.648782559845
0	30070	14841.100378423875	1.901363933327
0	30126	14861.709535698426	9.133863203671
0	30150	14865.974668417518	9.629431813952
0	30163	14869.1915426871	10.535884973622
0	30168	14870.126123694815	14.334919730158
0	30204	14878.889972431289	3.972412441895
0	30230	14910.827848530756	1.074487152603
0	30252	14930.586060467148	3.109104871563
0	30266	14932.664806661355	1.272610855595
0	30269	14933.651566422796	1.539496245755
0	30321	14943.92349974028	8.529389715554
0	30326	14945.070579262722	1.979241265384
0	30329	14945.928999075751	2.512773807572
0	30340	14948.962411515127	7.194686696431
0	30375	14974.39080364178	11.19912011473
0	30385	14978.417616207539	2.01343889276
0	30427	15010.210120508786	0.887723687664
0	30452	15019.738052413402	5.610952062853
0	30455	15020.724727859789	2.705294646737
0	30470	15028.759412486016	3.1618870846
0	30485	15035.880228295413	9.600827584198
0	30500	15044.094786897705	1.039144005906
0	30512	15048.030753231802	1.056204494328
0	30544	15053.972393146725	5.317922369125
0	30567	15059.046824589288	1.316235253062
0	30582	15063.060636317572	1.093217325304
0	30607	15075.042147346432	1.070648274105
0	30612	15076.150031146626	1.769506528541
0	30620	15080.507776596709	1.144119753037
0	30627	15083.883468602933	0.878113269527
0	30647	15094.308399686414	1.218984814078
0	30657	15096.484590726764	4.264278633648
0	30669	15098.834597409376	2.056003130891
0	30694	15103.534162070647	2.238376251223
0	30697	15104.392647169016	7.955739688545
0	30705	15107.108722093968	6.542899210125
0	30737	15115.158606519918	7.738550084247
0	30754	15119.167909038419	1.149969412293
0	30757	15120.235639767608	2.197893270172
0	30777	15140.045320272377	2.158407810481
0	30795	15144.173559836656	3.017863626871
0	30810	15148.405255357949	10.53563369932
0	30835	15160.658893991146	8.286185284579
0	30850	15187.460571270607	5.095335010449
0	30865	15192.733453193435	3.291653695889
0	30880	15200.790504087944	1.238497798831
0	30910	15207.8890012591	6.370905487005
0	30917	15214.426400082696	1.043559852336
0	30925	15216.375180721514	1.136255283818
0	30940	15220.725781658068	3.817690243214
0	30965	15232.64522632366	9.009238998009
0	30970	15237.239903218727	1.134346580319
0	30990	15244.549294078155	2.751320406256
0	31025	15263.655611318122	1.990571581857
0	31067	15290.461812599296	3.709603117063
0	31089	15295.17887372383	1.068467862082
0	31099	15297.45643510678	1.873654945256
0	31110	15305.916179263177	1.116233637743
0	31117	15310.91558953787	0.977263670228
0	31145	15317.320184486624	6.342872770336
0	31150	15319.216120910007	0.831450594403
0	31155	15320.269880730746	0.934113205038
0	31175	15333.718772207032	3.661919687734
0	31215	15346.107665257071	1.187381107267
0	31237	15351.358074355797	4.404038902552
0	31240	15352.409229118862	2.0553956569
0	31245	15353.575808844345	4.443278159776
0	31250	15363.350016348018	0.811849035416
0	31282	15386.71675721743	5.744588086015
0	31295	15390.574131737635	6.650834090828
0	31310	15398.114199974712	4.793582166725
0	31315	15410.832749785376	0.99266170878
0	31320	15422.51212821961	1.105132103525
0	31340	15433.804695223016	6.393884258382
0	31352	15436.666774638221	6.344652168205
0	31379	15444.828442854928	3.079265651208
0	31400	15450.191334003203	1.155950461328
0	31425	15477.946470925634	1.087105853856
0	31430	15491.370889948501	1.087277682126
0	31435	15492.796477630228	0.83815738149
0	31464	15499.47879601552	4.563102465479
0	31475	15502.574498468757	3.353063822082
0	31487	15506.657219288557	1.408898598417
0	31525	15516.370765087536	3.507700935574
0	31535	15518.599066875692	10.152162140435
0	31545	15521.646578640021	1.821212067043
0	31555	15531.02431161587	2.70934092275
0	31567	15533.539526573746	0.95160823992
0	31572	15534.358524483061	1.178466887518
0	31580	15542.178288279279	0.848856417369
0	31585	15548.980257736068	1.020989877544
0	31605	15560.972498481364	3.22450389374
0	31617	15572.569445470279	1.191704790387
0	31665	15597.644762404139	2.753861718322
0	31685	15602.34870891144	1.562683966613
0	31692	15603.650078075581	5.012076923216
0	31722	15612.484890044222	1.296549928077
0	31725	15613.650779721348	5.990230908586
0	31735	15621.073723603962	2.664326347225
0	31747	15630.515864594997	1.22921206547
0	31755	15632.557930703711	1.193505587375
0	31760	15633.815439934297	5.22045468506
0	31770	15645.273613524011	2.312706413448
0	31815	15667.169512090754	8.224968329506
0	31824	15669.761820625659	1.186595206521
0	31842	15673.671163527254	4.399355429093
0	31845	15674.530737793498	4.625426711309
0	31860	15685.534154044484	4.694662595406
0	31880	15711.371471832676	2.38923839089
0	31916	15722.211706733462	0.888713083416
0	31919	15723.151912417021	1.023631762598
0	31937	15726.956697236412	3.005420917198
0	31950	15739.251805327052	0.839632729627
0	31965	15748.520553250477	2.578059219895
0	31972	15753.959889008646	1.156307148561
0	31980	15767.154312263261	0.953455924708
0	31990	15772.932791699588	2.136115515362
0	32000	15777.13366227672	3.087225648917
0	32010	15787.776747032973	5.923992999125
0	32025	15793.954658551096	3.608790663056
0	32042	15798.926664276288	0.863850378059
0	32055	15803.35844728245	3.463836687323
0	32065	15807.857589691434	2.979478219493
0	32119	15827.046830086839	7.667209250712
0	32140	15834.164039730144	7.768931684149
0	32159	15849.160022346894	4.489705881271
0	32174	15852.17624280009	2.443947543979
0	32189	15855.240358198839	8.101656691358
0	32207	15859.51739434212	4.951519014395
0	32210	15860.462148598242	11.167165725067
0	32225	15884.009005604938	0.960671907943
0	32252	15896.841629750447	1.113096542636
0	32262	15898.680365371404	1.800978090601
0	32265	15899.602260381428	1.974548962817
0	32270	15908.680003907187	0.871706509404
0	32280	15912.229752947055	2.709517803953
0	32292	15919.332849625986	4.130025089055
0	32295	15920.252656285394	1.901330896905
0	32300	15930.676653133373	0.985088005383
0	32305	15937.8999064552	1.10617666319
0	32314	15944.975782166366	0.875988905318
0	32317	15945.949251569845	1.592316259823
0	32320	15946.936384621952	2.517458809688
0	32327	15951.291319001709	0.809587649908
0	32367	15964.275501797932	3.882088661773
0	32370	15965.357070237051	1.326620056265
0	32407	15991.239596187875	1.838616005383
0	32417	15993.114203585025	10.497720483782
0	32422	15994.206732623365	1.530268947603
0	32430	15996.043795832985	1.431348382766
0	32440	15999.393964475633	6.253560811542
0	32450	16019.648804541438	1.020950592216
0	32475	16041.330964288809	1.208794657427
0	32485	16044.962225981105	10.922472277393
0	32505	16059.529512551676	3.01467498308
0	32525	16075.910361812007	5.130735902948
0	32530	16082.788483905381	0.9341190123
0	32572	16096.473845140399	5.34552229442
0	32580	16107.548149962776	0.989903232269
0	32595	16112.313049376776	2.615382191471
0	32605	16117.572263492035	1.108540593274
0	32625	16125.242227127313	1.035802546968
0	32635	16137.449674008592	1.087891022395
0	32640	16141.748857034495	1.097122333478
0	32655	16151.198079417248	3.041602932164
0	32660	16161.411281806327	1.078218301386
0	32667	16173.870837883373	1.165966482554
0	32682	16181.287839192882	2.029628292339
0	32685	16182.242741489302	1.254148731037
0	32705	16187.448939953822	2.814140038023
0	32739	16196.932027527963	9.357437017418
0	32742	16198.069817199086	2.729719080962
0	32747	16198.938481121411	4.900145585908
0	32770	16210.854979805369	8.049091938444
0	32775	16212.538258369768	0.9623031253
0	32790	16228.019630720473	3.240639441974
0	32802	16235.641905464529	2.373459010671
0	32824	16241.221016551084	2.6724908416
0	32827	16242.272965623993	1.454832960307
0	32864	16265.436450830137	1.718422841866
0	32877	16268.510213823559	4.698199207486
0	32880	16269.488645641355	7.139675502463
0	32885	16271.528612505356	1.13001794396
0	32890	16282.52848824569	1.039735541493
0	32900	16293.697263612258	2.787121585016
0	32955	16325.467178544811	2.285283131962
0	32967	16334.288300038047	0.959399556555
0	32977	16336.535278936875	1.014367106277
0	32989	16339.062939776037	5.581134289751
0	32992	16339.918715686374	1.378334698698
0	33010	16346.002369323952	0.943981826212
0	33017	16360.872488773604	1.048972128425
0	33020	16361.686710508158	1.012010540904
0	33070	16385.574861847586	9.262839569325
0	33100	16398.765085606097	6.110137353332
0	33110	16403.076900221719	0.840391070396
0	33115	16414.916486209273	0.902437070478
0	33157	16430.480009267383	1.973105690165
0	33182	16454.796620441893	0.867768476709
0	33197	16457.820312610002	1.849543451149
0	33225	16465.689127614973	5.952249583137
0	33235	16501.971102503716	1.029410439916
0	33257	16507.0643564187	3.059755778219
0	33279	16512.945723260656	14.372716586252
0	33285	16515.165331875902	2.7496159306
0	33290	16516.532912985295	5.417226191114
0	33295	16520.702666362358	0.882878027484
0	33320	16536.683082593455	0.867668993585
0	33335	16546.290442247364	3.623643220063
0	33340	16553.887176767779	0.935644553881
0	33347	16556.343969435141	0.82468161555
0	33350	16557.317400125124	0.979413111922
0	33365	16577.106518171821	1.092580833845
0	33375	16584.128230626332	3.382235852373
0	33430	16614.469002563492	2.552976056251
0	33450	16633.689967180688	5.656366741066
0	33455	16634.803487844693	1.056362806261
0	33460	16638.103707665981	0.822627868224
0	33467	16641.322826482122	0.874169783201
0	33470	16642.307713207648	1.528227229921
0	33487	16654.564320984695	2.258054156703
0	33501	16656.772017547794	1.402319742936
0	33506	16657.93127763898	2.134837025513
0	33524	16661.615637889718	7.769668403673
0	33571	16691.737690322882	8.999797482992
0	33577	16693.591961963138	5.74426850276
0	33582	16694.676786616667	3.070535553668
0	33631	16703.960801901169	12.817619385515
0	33676	16712.809668208346	14.111989727502
0	33686	16714.869729773947	18.829134691787
0	33712	16720.657406889149	4.105370095936
0	33715	16721.544002354764	2.122046164534
0	33740	16735.595194140946	7.44401650077
0	33752	16738.265851116846	4.749114302528
0	33795	16753.719159881104	22.539545823302
0	33805	16757.691580139625	0.842608530354
0	33810	16759.837499713454	7.857379778884
0	33820	16771.294197712247	1.731549329154
0	33830	16784.872381563281	1.119049469661
0	33855	16791.004540797388	5.198847149394
0	33884	16800.503594197513	8.085587455128
0	33887	16801.51384514998	4.810904535764
0	33890	16802.660181270999	2.191901697189
0	33900	16809.16900384928	3.056516965658
0	33955	16857.695018897167	0.941481216624
0	33997	16880.537708719491	7.893876525968
0	34019	16884.78917085623	3.153799945022
0	34034	16888.533592739369	1.120927783381
0	34050	16892.159530631494	3.848872972087
0	34077	16901.866050506627	3.119273413684
0	34084	16902.667004921159	1.385544742021
0	34124	16913.431486246138	34.90470147134
0	34137	16935.860605777008	1.146345400065
0	34140	16936.743621455552	1.519897125867
0	34155	16948.332196744533	1.2752774039
0	34167	16951.62199896878	7.191436195753
0	34182	16954.690346060201	1.28972761326
0	34185	16955.871261263892	4.565089842201
0	34200	16966.71858072204	1.178798291553
0	34225	16979.282277464292	7.671304211928
0	34246	16984.615508271757	3.490191426221
0	34282	16994.390424886096	1.826462982014
0	34285	16995.470803941536	2.755653110635
0	34299	17001.628407980464	2.008861928285
0	34346	17011.071844363175	10.403675968974
0	34375	17016.536042450797	16.937624946982
0	34387	17018.821543434598	1.763690891818
0	34390	17019.81141920086	1.145186140738
0	34445	17034.285694990688	1.185271632671
0	34450	17050.596854324382	1.161798647419
0	34460	17053.269714463025	1.012382170249
0	34530	17072.706320602571	13.517272850568
0	34570	17100.382105322336	1.025791189075
0	34582	17107.724846788964	1.065299918223
0	34622	17121.993553908441	3.060246696137
0	34632	17123.986813967947	1.575702090853
0	34650	17130.602165433382	13.250053195941
0	34657	17159.379476206486	0.953486568853
0	34660	17160.356853571364	1.066977494831
0	34675	17163.737867529176	3.136477888835
0	34685	17169.01168597581	1.650978719208
0	34690	17172.282838801331	0.970718392357
0	34705	17180.605395170628	0.880901460443
0	34712	17187.210223997267	1.046096167527
0	34725	17191.800234208626	4.623256634751
0	34739	17195.368822056101	1.561648404571
0	34752	17198.099657922564	1.860830579759
0	34755	17199.22703806241	5.407023438978
0	34775	17213.554173608394	3.192145772138
0	34782	17214.534421789993	0.808019292355
0	34802	17220.344511726734	1.408156859103
0	34825	17225.731225188952	5.449053902876
0	34845	17232.428679199309	4.183681558152
0	34855	17245.770154966535	1.131161469527
0	34860	17249.221641553188	0.98287187703
0	34875	17272.919621601865	1.129225042835
0	34885	17280.958716376209	2.352802170066
0	34900	17290.013637035208	0.810748751089
0	34915	17319.096882125149	1.184000608325
0	34925	17326.840339746756	2.571520247673
0	34950	17335.799999344617	1.507689496456
0	34975	17347.655619803796	17.170135068924
0	34985	17358.676770587578	2.369189344816
0	35002	17366.30239198102	1.364213952145
0	35010	17367.951851605962	1.213416147095
0	35020	17375.440203089937	0.870090370625
0	35030	17382.143463600069	2.724719154913
0	35035	17385.915658954717	0.9017758484
0	35045	17403.188343699171	2.627288870995
0	35060	17406.912297230213	2.840145296416
0	35065	17407.882231467261	3.157309400134
0	35087	17414.434045492707	1.40498446415
0	35104	17417.473367070349	7.147981459604
0	35107	17418.532609181887	1.809430989565
0	35140	17426.353944719101	6.067948333716
0	35145	17434.950264518635	0.866888904758
0	35176	17445.515171749331	1.585304259563
0	35182	17447.410732152592	7.033310696823
0	35200	17451.546132543017	11.435007176348
0	35246	17464.821960469248	6.833493062212
0	35265	17470.367708776244	8.010537547727
0	35275	17474.365512899715	10.657522417732
0	35300	17490.779070666789	4.119755034693
0	35315	17497.909779636006	6.195750951851
0	35322	17505.019586951391	1.131047601905
0	35325	17506.082291020465	1.63391741625
0	35332	17515.335559614638	0.947436986305
0	35335	17516.521627728904	1.712932390905
0	35360	17531.497556572993	5.787123612519
0	35365	17544.047760357871	1.096593786124
0	35394	17571.070255940739	6.809392945467
0	35461	17586.790949496392	3.60623015016
0	35529	17614.72989035276	6.361536991623
0	35567	17626.788959741529	3.074737655337
0	35570	17627.594457773335	1.392050990628
0	35604	17636.585192465188	5.940526332392
0	35612	17638.333702903206	1.868478528842
0	35625	17641.736022181588	7.729000822699
0	35632	17643.759850957033	1.098489709944
0	35650	17647.970125523061	8.93990037447
0	35655	17655.191151182852	0.965390603617
0	35697	17681.738295971299	3.247469186689
0	35714	17692.859204640933	1.306939033066
0	35717	17694.054297992442	3.057631111517
0	35747	17713.481532615438	2.213449875326
0	35765	17718.832870111949	1.183357186895
0	35822	17740.762326367134	9.619493665799
0	35825	17741.674134623566	9.084433144553
0	35830	17742.80574777002	1.018333919439
0	35840	17751.379079777148	2.302462598284
0	35845	17753.368834888489	0.876693719625
0	35870	17767.283044795367	3.259923961852
0	35875	17780.431826779186	1.085136345308
0	35885	17783.229518818431	2.158679356489
0	35930	17805.497927207182	8.058182759588
0	35957	17821.070004176496	2.061767953662
0	35975	17827.277921413595	0.908961788286
0	36002	17848.175443160213	3.782311771252
0	36015	17854.601762634846	9.060755441404
0	36027	17875.582928928306	3.027875617542
0	36035	17878.989747781376	3.674628913864
0	36050	17892.290121711617	1.707047535454
0	36055	17893.768630690485	3.785406098767
0	36060	17898.255931426539	1.165100451838
0	36075	17904.71590141918	4.586766505626
0	36114	17934.183845593499	1.10547517892
0	36122	17936.27733980147	2.526957699202
0	36132	17939.131399275172	7.537352163859
0	36135	17940.195889129579	1.409710371348
0	36147	17952.943380046417	0.951954326779
0	36164	17957.361075020196	1.87380834816
0	36187	17962.024170779051	3.733510001469
0	36195	17963.863370543245	11.563612841299
0	36222	17970.690700068637	3.980125351486
0	36225	17971.60412461286	1.183278389991
0	36235	17982.129121677866	0.811509266309
0	36267	18007.424171325848	2.997873359733
0	36270	18008.271803601835	3.087168028043
0	36295	18029.661156327769	2.819231895777
0	36300	18036.836679646764	1.090696940012
0	36307	18038.934977600661	1.017902131658
0	36340	18057.029587506022	1.659902645052
0	36367	18067.082452040282	5.73853781904
0	36435	18086.068934322046	12.547343118177
0	36455	18097.872743945973	0.924980735965
0	36520	18130.274495547174	5.89348380399
0	36545	18142.151767100806	1.083415201865
0	36557	18153.313506240086	0.862193043716
0	36580	18164.690883813722	1.949643545698
0	36637	18197.756798611356	14.302382504
0	36650	18200.409346098321	2.922983445151
0	36660	18203.085831834513	5.054184591144
0	36672	18209.162851530306	3.853129738588
0	36690	18214.557193802717	3.103107380495
0	36695	18215.889984572431	6.825977751347
0	36722	18230.044638708786	0.800660795439
0	36735	18242.632201849535	1.126608265005
0	36785	18263.804417357743	0.881422308367
0	36790	18266.947050558686	1.167569223419
0	36820	18283.199037801125	4.484052518087
0	36827	18293.025437830751	0.903802726232
0	36837	18294.941762581326	0.876640169695
0	36852	18299.16078418066	0.87741057761
0	36887	18306.027493158367	4.120338367578
0	36895	18309.256722254669	16.378220111037
0	36917	18314.364294405571	3.516822429046
0	36940	18323.069919236361	12.743517538237
0	36992	18352.008638944439	4.545234786055
0	36997	18353.00325332988	10.086896991471
0	37000	18353.870842018406	10.959797716984
0	37015	18357.55283324322	1.377712403302
0	37025	18359.89645523858	5.678350125918
0	37042	18379.361336921003	1.054931767285
0	37065	18389.379103345469	1.087092496548
0	37105	18412.122405112787	0.952929093223
0	37120	18422.907381338525	2.679458273463
0	37155	18455.348285647941	4.92276681412
0	37175	18474.337303434387	6.794699136476
0	37187	18480.279549828355	0.955555121787
0	37197	18491.99019407157	0.957365551498
0	37225	18503.046439936265	11.593196366182
0	37242	18524.222743814961	0.926547104493
0	37250	18526.847585566448	6.373115520603
0	37255	18531.06477570381	1.004853136744
0	37262	18534.276478789389	1.078894055542
0	37270	18545.421590274874	0.823523482587
0	37325	18575.256522812921	5.133063414227
0	37339	18580.776876308581	1.189989059791
0	37344	18581.910071294008	3.720026768047
0	37352	18584.001946229393	3.104661624847
0	37355	18584.832948463036	4.600074129276
0	37360	18587.786799403353	1.090664074011
0	37375	18595.177540420122	1.36325429273
0	37402	18605.827828297887	1.149406433105
0	37405	18607.022644018412	2.018108214711
0	37436	18619.336171893439	3.127530927292
0	37487	18629.183900004382	14.981292342269
0	37518	18636.134890086705	8.559919696644
0	37523	18637.253739882669	14.595430646769
0	37540	18640.031980992424	20.962077965759
0	37543	18641.070117053519	11.711496540436
0	37566	18645.962343395444	24.924415521815
0	37580	18648.024220561551	1.168128501255
0	37583	18649.065345396044	2.156055870423
0	37614	18657.979799480715	2.037472452088
0	37617	18659.035736953073	3.995338561782
0	37640	18665.546098690703	2.686401786445
0	37645	18667.115068201134	0.921203063615
0	37657	18669.70718352807	0.926596336532
0	37672	18674.646486934226	5.768184044502
0	37682	18676.547599645097	1.125935823091
0	37748	18689.624909632182	2.704889539108
0	37761	18692.444475781074	9.73806762658
0	37764	18693.281813301793	7.789584236376
0	37774	18695.134359544604	9.55381439532
0	37785	18698.101593525423	3.740511239958
0	37812	18706.584063784184	4.436987636861
0	37820	18710.68728901904	0.912449848931
0	37832	18727.950759985487	2.298250132648
0	37849	18731.142770867612	2.792421701812
0	37852	18731.991067555457	4.476597106401
0	37855	18733.172160034816	5.074355847274
0	37875	18746.29180163979	7.187079145357
0	37944	18765.836385093764	8.405586858855
0	37995	18789.998195741105	3.063834645692
0	38005	18798.453691391643	0.919268742669
0	38040	18813.575393164502	4.616545134137
0	38052	18816.052862608681	2.04380668713
0	38060	18817.990236280712	2.336828926953
0	38077	18826.637101017029	3.125951739762
0	38092	18833.810028815082	0.935220325738
0	38110	18838.612811818712	2.449085203027
0	38115	18841.093211272659	1.106564301066
0	38151	18850.912034794959	4.68646377204
0	38219	18865.402516161456	19.072983020637
0	38245	18872.284496309023	3.343213580549
0	38250	18895.378527955129	0.905885860138
0	38260	18934.355345905005	1.016727816127
0	38270	18941.169418847431	4.688720066297
0	38280	18947.45325745369	0.855218312331
0	38287	18949.06931081639	1.137478988245
0	38300	18954.542003966192	2.87452855178
0	38305	18957.199200944269	1.174965626281
0	38310	18966.667182026023	0.969079573546
0	38320	18971.288723211818	2.210714577965
0	38370	18991.866160376587	7.83221612959
0	38380	18995.640091662008	2.130330115387
0	38405	19006.931003489566	8.979304479759
0	38417	19013.680102908993	1.239047418961
0	38425	19018.868916912975	7.148508682039
0	38430	19021.599850596183	0.887841662392
0	38477	19037.789547190605	1.90996545416
0	38497	19043.110393704551	1.00969260335
0	38515	19054.651867950312	5.57617064894
0	38540	19085.705126586963	3.968005561372
0	38545	19086.987980397653	0.954827424325
0	38594	19103.797876801121	16.676120979278
0	38605	19106.793942574564	5.517474391766
0	38632	19131.903391811957	3.200995126154
0	38667	19156.00781853693	0.80850090785
0	38675	19158.39136029945	3.047688562533
0	38685	19175.826135602568	3.010838027819
0	38700	19180.12249373242	2.764158609975
0	38730	19188.546341013722	8.197263978275
0	38780	19206.139168647182	3.659757700256
0	38790	19208.65908534235	15.487951518324
0	38820	19233.736661107884	2.934716308924
0	38835	19243.843181933132	2.210210840982
0	38860	19259.624419075718	9.24354806872
0	38875	19273.735741203346	1.869035272774
0	38880	19281.1819431731	1.110343649425
0	38895	19288.678243042438	3.25538509964
0	38900	19294.887423014692	1.035697652772
0	38905	19305.770198378277	1.089770251978
0	38942	19320.864989735258	1.185041075759
0	38952	19322.820332801041	7.762247660897
0	38955	19323.777600615543	2.944735819742
0	38967	19338.574079699998	2.756822880576
0	38970	19339.485991619059	1.353882669269
0	38975	19353.851232685447	0.919406267162
0	38995	19387.283682932071	1.129597722739
0	39027	19402.754390473944	4.52260698881
0	39040	19406.825279962538	2.591678938485
0	39045	19409.170203142628	1.161430728808
0	39060	19427.514845411685	1.193225617334
0	39065	19428.76105158986	3.613269789086
0	39070	19433.838198424919	1.117828391492
0	39075	19435.660225185628	1.189675401431
0	39087	19441.533084752846	2.933334874827
0	39097	19443.575517200182	2.017711348202
0	39122	19455.18168465993	0.876694733463
0	39145	19468.100423065511	5.042564295176
0	39180	19492.157938884202	6.192119351033
0	39245	19520.218266222634	2.898146900069
0	39250	19522.841800915847	1.026210693922
0	39255	19525.998734174738	0.822897336353
0	39279	19534.398335611677	3.02905897405
0	39309	19540.880400025257	1.446772311084
0	39312	19541.958776143537	8.026210186309
0	39352	19551.565448930534	4.693759257554
0	39365	19557.506519938873	1.068533948809
0	39380	19567.420363270258	1.11301168045
0	39410	19593.457330600283	4.633802485031
0	39427	19597.62356367646	1.442075156697
0	39435	19601.566651126601	0.851544673648
0	39459	19622.807644832156	1.637703017039
0	39464	19623.71301041704	2.528106795461
0	39490	19635.25446854815	2.860531997159
0	39548	19667.298597044523	14.088488682028
0	39558	19669.419721807658	10.4135856975
0	39561	19670.241786200951	3.303046887633
0	39569	19672.189520856949	11.270477742973
0	39579	19674.050838228154	1.039217186381
0	39607	19680.477094213552	13.411422041689
0	39615	19696.206909022214	0.991398372222
0	39620	19700.471311621386	0.853843080904
0	39625	19712.812077222042	1.15004064953
0	39645	19727.97537711335	1.764362891995
0	39650	19729.644593943838	7.730897006035
0	39694	19749.93957240172	2.298140835741
0	39756	19764.340341661082	16.900477546559
0	39775	19767.4400861315	5.505010623014
0	39778	19768.380511466743	2.770468492788
0	39788	19770.158564287847	1.671151366567
0	39791	19771.187266616294	1.794065316297
0	39799	19773.205559144312	8.173592427273
0	39840	19786.307513715866	4.728357263866
0	39845	19794.982768905729	0.878467006888
0	39850	19803.328957310222	0.972236012667
0	39860	19807.044239614926	1.432532738049
0	39865	19825.393051680646	1.029165771417
0	39885	19832.826293496973	2.701846690963
0	39897	19835.343761242742	1.685651870537
0	39912	19838.305519832859	3.162033105159
0	39915	19839.314970145097	3.398513176879
0	39920	19854.994409127759	1.047668123525
0	39925	19860.168302615121	0.873423728719
0	39935	19881.489567307615	3.544476028395
0	39979	19894.534837199134	3.741938320321
0	39992	19898.018458085546	7.329754216504
0	39995	19898.921777303556	1.986272322383
0	40000	19900.281226389676	0.964949766919
0	40025	19906.172103318161	0.948000368197
0	40030	19907.426824172618	4.709454639331
0	40040	19917.597477890247	1.137708440609
0	40050	19934.328095953664	0.912111534923
0	40085	19953.483644318623	8.097648532052
0	40090	19955.745203836733	4.531470424645
0	40100	19959.278757427264	0.893056285009
0	40160	19973.097127524451	2.500097151204
0	40206	19983.337624743953	23.709386060415
0	40217	19986.666594142187	10.779896117461
0	40229	19988.64820291223	6.252257915574
0	40255	19995.11555252698	27.009701034168
0	40282	20002.602772863655	18.440893670595
0	40285	20003.452496993522	11.700033869769
0	40290	20009.343444657072	1.140328388289
0	40310	20018.3887468189	2.08383756278
0	40325	20029.668466538747	5.336384138127
0	40340	20034.321930161864	1.998891568913
0	40350	20038.664255615834	3.775190234275
0	40364	20041.990326120999	1.529098600339
0	40367	20043.077504218106	3.396720864624
0	40375	20049.242749815797	0.969965048693
0	40399	20060.861626019008	5.633407028118
0	40402	20061.910149726416	4.141392503212
0	40410	20063.638692211225	5.052544956374
0	40417	20075.644570172531	0.902670442127
0	40447	20087.565597071586	3.893149220582
0	40460	20095.622027543267	2.658875281667
0	40472	20105.557208906899	2.330495689964
0	40480	20122.844385265068	0.859100253507
0	40499	20125.850320916263	2.870133636514
0	40510	20129.274155412231	5.063276828895
0	40579	20157.475471541439	1.783592580332
0	40582	20158.597357423571	7.079206847046
0	40590	20160.7330839981	7.234464646572
0	40605	20170.919927951619	0.977878676169
0	40610	20173.340337202185	0.951124991197
0	40632	20183.303843697804	5.552985624113
0	40640	20185.703113929413	8.943142251361
0	40655	20202.946394944102	0.807151712012
0	40660	20204.496206405875	5.65443496964
0	40689	20218.136492781134	0.934238126595
0	40692	20219.121574176827	4.440490253147
0	40710	20223.191503295837	10.608721124473
0	40757	20240.185410354204	12.553240352761
0	40777	20247.259038177694	3.679004628135
0	40819	20257.917894814829	11.443008276253
0	40822	20259.014893711931	6.115803823619
0	40842	20268.2008154782	1.219316371735
0	40845	20269.123589972267	4.159686816781
0	40857	20277.572737339456	1.104008349404
0	40875	20282.908000518147	6.004188592293
0	40897	20298.427573432314	3.383685417101
0	40925	20305.96189972523	4.909652206381
0	40932	20307.4326069724	3.912321705202
0	40950	20319.643542156464	2.074103999757
0	40965	20326.215221449681	0.85703920871
0	40977	20330.812058912184	1.850586282125
0	40987	20337.208666719801	0.935382528882
0	40995	20340.457920348352	1.043724244647
0	41000	20342.042771327379	0.852819589898
0	41007	20345.739514711824	0.872373354528
0	41015	20348.018981511062	3.020292542118
0	41020	20357.315446609948	0.840303450637
0	41042	20371.225149010436	1.511158996894
0	41060	20380.114825692552	1.010245003738
0	41075	20389.957972334144	0.936585850641
0	41090	20424.075235433226	2.944020701013
0	41125	20440.891483276288	8.243843062159
0	41130	20442.624718491815	4.498879455355
0	41165	20455.391009696531	6.274734772618
0	41172	20456.345907582322	7.81963703113
0	41185	20462.423320707544	6.544094392196
0	41190	20464.347826932797	1.181816633604
0	41195	20470.030817179583	1.064018027298
0	41225	20497.944342484114	3.067250934783
0	41230	20503.119383465443	1.011132097337
0	41240	20507.943955685902	2.697105560228
0	41245	20509.554809046682	1.035734652914
0	41250	20515.595275884369	0.812387841381
0	41255	20518.628201844628	0.940948260482
0	41265	20536.459789896428	2.461608720839
0	41274	20538.515783789581	1.153687674738
0	41292	20543.550871313398	0.819156587683
0	41295	20544.427521284611	6.489509075298
0	41317	20549.132348620393	4.057071191441
0	41342	20558.548559662875	4.392835488913
0	41385	20568.51891441415	7.189697591627
0	41412	20578.160658553048	0.957252315339
0	41417	20579.152452300387	1.479947789483
0	41420	20580.281382782935	8.625632619662
0	41462	20593.12195920235	3.138440281786
0	41528	20607.647833560091	14.228183797866
0	41548	20611.81033835873	4.051411795065
0	41566	20615.69784520274	8.087697787551
0	41574	20617.526753871571	14.104738386635
0	41594	20621.485827481896	17.378541222211
0	41597	20622.354375748299	11.694807425805
0	41614	20627.608313532355	2.748180209853
0	41644	20634.016855595909	6.517448999925
0	41665	20639.86552914893	10.434595809445
0	41675	20647.353938601966	2.738271060545
0	41722	20672.924993610461	2.193329195144
0	41725	20673.994036085051	1.63649584402
0	41730	20683.024828669994	1.180060393177
0	41790	20700.150669861204	0.853237884212
0	41795	20701.65378300494	6.446168294414
0	41811	20704.270712791066	0.99101204934
0	41814	20705.094599243122	1.167466847308
0	41832	20709.149712748333	5.156220804658
0	41835	20710.286805603161	1.488650215848
0	41875	20722.357709311805	4.633627578106
0	41880	20728.813596766893	1.168154185824
0	41885	20743.490181160489	0.8469923825
0	41904	20757.056768824372	1.682427082127
0	41919	20760.297441228656	4.65106901459
0	41940	20782.188491374444	1.515048333232
0	41947	20783.539750522987	1.144043712132
0	41975	20804.688835126208	1.841656856854
0	41985	20810.245941096557	0.999865557626
0	42005	20820.305968263463	8.557457228978
0	42015	20836.302821861893	1.182705398276
0	42020	20839.231482070535	0.846221385151
0	42037	20843.578284307765	2.647318225702
0	42090	20865.049002610163	3.033949635286
0	42100	20876.826761566008	4.408319703416
0	42105	20883.490217957718	0.922474126611
0	42112	20892.96382518646	1.008483179007
0	42117	20893.812391745138	1.597751751831
0	42135	20901.355658793892	8.348548599046
0	42140	20904.784600950082	0.835454302467
0	42145	20909.293966440118	0.951422630064
0	42167	20919.725039264282	1.802281733503
0	42170	20920.89237512639	1.601637871337
0	42200	20933.087248351537	8.109817748742
0	42217	20937.644513123894	15.035426915207
0	42222	20938.763877238652	14.261930537699
0	42225	20939.750128780252	1.655880074647
0	42242	20951.306716593292	1.061628790386
0	42252	20953.412411625248	1.733516435907
0	42267	20957.414732951523	9.863829003184
0	42302	20965.630916558452	2.739097442199
0	42310	20971.77985386691	1.104314979725
0	42327	20975.758959098452	1.818383512365
0	42330	20976.628166512692	4.045603155558
0	42349	20982.340388138284	4.031312286183
0	42352	20983.375385189866	4.464280898671
0	42370	20989.178646476536	2.212315500417
0	42385	21002.833432461374	2.125217696426
0	42412	21010.27641522051	4.846253767424
0	42432	21014.511973806379	0.84432533076
0	42437	21015.65832146099	4.666402550802
0	42455	21024.273996322049	1.072510888521
0	42481	21032.40179668499	3.01257251235
0	42486	21033.488575495238	2.244994271648
0	42489	21034.292162141594	2.32561950358
0	42504	21037.502840392682	4.862791619452
0	42515	21042.416512983141	1.03321022084
0	42527	21049.991659714821	3.699924310492
0	42530	21050.834498061127	1.174514923201
0	42562	21085.263977209929	3.184058799687
0	42565	21086.396877409782	7.005198291662
0	42612	21100.00057163382	5.147636298541
0	42622	21101.992058303943	10.982245544402
0	42657	21121.483890959555	7.697234697317
0	42660	21122.507717691948	3.155817053926
0	42670	21136.825073103618	4.02645296576
0	42687	21142.818660826485	5.797874868128
0	42692	21143.980019537329	2.922867714055
0	42702	21146.243069368164	0.901399148721
0	42710	21149.372832362045	3.905949385804
0	42725	21161.842873892166	1.851921556574
0	42740	21174.921111558017	2.772634480935
0	42765	21182.626918034556	5.833500138
0	42770	21185.187260673346	5.677135078052
0	42777	21192.189553802016	0.963569160178
0	42827	21205.391265105167	2.988467675726
0	42840	21211.094686338388	0.822680701595
0	42860	21232.404176136855	2.302773014138
0	42880	21247.989735395135	0.952880845591
0	42902	21264.56372254572	8.974748649749
0	42905	21265.548678235962	1.573695226795
0	42915	21271.219186802255	2.323740532979
0	42940	21294.885573352508	0.823825717345
0	42955	21309.331459224541	2.73969602986
0	42970	21331.830625473733	4.744158111028
0	42991	21355.732936747724	1.916894923481
0	43003	21357.489972882046	4.858536443581
0	43036	21364.424594476427	7.290599020863
0	43075	21371.565635153072	2.288522657865
0	43078	21372.605627066435	9.15489329459
0	43090	21374.729473382214	3.613496694467
0	43103	21377.931674483956	5.237795561874
0	43129	21383.848626035523	2.806037312224
0	43139	21385.734053147655	19.675933640483
0	43142	21386.547510600813	1.853227635225
0	43150	21396.377291301243	1.129699980002
0	43170	21402.129854476408	4.453531707468
0	43175	21413.749887271944	0.933884859458
0	43192	21420.450291298338	5.589995706757
0	43220	21460.957833721858	1.043890084978
0	43225	21464.435480916195	0.872267932631
0	43245	21476.425951610436	0.922845272347
0	43270	21483.34484042971	4.608428646597
0	43280	21485.967982401036	2.186634460905
0	43290	21488.349777548222	2.206912598471
0	43305	21497.451011340227	1.291166927158
0	43310	21498.545788054919	3.501237962603
0	43315	21500.639619028771	1.173876074515
0	43337	21507.585997501378	1.630469503579
0	43350	21510.720348838736	5.024178208068
0	43362	21517.997128180199	1.111325908545
0	43387	21523.213973546466	7.860083227249
0	43390	21524.060475943582	5.424377925451
0	43402	21527.613335912688	1.057136720791
0	43415	21533.997042593372	16.691859145368
0	43420	21538.863457617138	1.055785681587
0	43440	21549.270709061985	2.659744940605
0	43490	21573.792604734745	2.97534046956
0	43495	21576.287367344094	11.0089257387
0	43517	21582.162442738933	4.998210515858
0	43542	21590.368654659712	1.062785301637
0	43550	21593.150850851341	11.147156486909
0	43565	21603.657808400236	3.149368934053
0	43575	21607.446275833416	3.283138194294
0	43595	21627.874552457341	2.364427078884
0	43650	21670.902348032019	3.599830572388
0	43687	21681.460474120311	7.967467734316
0	43697	21684.44048412194	0.98599007884
0	43715	21688.465952492665	2.176490722408
0	43722	21690.395634675487	6.636676160162
0	43732	21693.788890044454	7.879895673248
0	43735	21694.82607617785	1.697627703502
0	43774	21735.520619689525	3.602709002141
0	43777	21736.390881526508	0.951835090322
0	43806	21741.53284476995	3.196867308503
0	43847	21751.570348462026	3.002243465744
0	43850	21752.470263324055	11.141950705661
0	43855	21757.760684611336	0.836186919548
0	43906	21771.868593358357	4.914846644753
0	43927	21776.908079617021	7.260188626906
0	43950	21783.205156747654	3.116149893987
0	43955	21791.484797456411	0.836462659482
0	44000	21807.460678567747	1.380661868703
0	44017	21810.727465365948	12.758211918223
0	44025	21820.353991395965	1.106203929242
0	44040	21835.029177879121	2.846459619087
0	44050	21841.222846024327	1.134606353752
0	44105	21861.83332744463	1.1020741418
0	44139	21871.662470096738	1.326817059857
0	44170	21901.029146248879	1.118398014829
0	44187	21906.779659570018	3.252826405969
0	44190	21907.845509359623	3.617884088242
0	44220	21919.823828742473	2.431197078533
0	44245	21927.090298369753	1.082578266971
0	44272	21959.205916570466	2.220903244239
0	44275	21960.237343530975	3.298272739816
0	44280	21966.040504191575	0.942569130007
0	44295	21969.449555111126	2.085647428871
0	44337	21978.281973003433	1.456129542619
0	44360	21986.966123426682	13.032369202216
0	44385	21995.767992027689	5.985361146414
0	44392	22011.390107648284	0.859154490568
0	44400	22017.309499827343	1.134342224244
0	44405	22022.919782030382	0.997976615746
0	44425	22042.66652775639	8.559749456274
0	44455	22055.937451209447	3.187380672743
0	44470	22062.145213146479	5.391589849719
0	44500	22088.443305939288	10.917215584676
0	44507	22107.207989729386	0.957065952569
0	44532	22112.734352897777	4.994195743193
0	44550	22124.133955236858	3.401343841313
0	44555	22125.970654493178	0.987529424857
0	44580	22138.542219139391	4.989435086009
0	44590	22153.098966592193	1.415792852888
0	44597	22154.322911109258	0.806994295213
0	44607	22157.931940398952	0.96384273367
0	44610	22158.874647284886	1.498567529407
0	44630	22177.328438868086	1.01282047499
0	44660	22202.665351784767	1.113322629221
0	44700	22255.827406179803	0.861474099662
0	44710	22262.108632262377	0.860205142852
0	44752	22296.029408076487	5.943009134758
0	44764	22298.140979087621	6.557997228196
0	44767	22298.956673593901	1.671996426351
0	44785	22312.293684569134	1.165325202793
0	44812	22321.664135753389	2.746312204097
0	44820	22325.266855894034	7.67755961239
0	44830	22336.86158113139	1.064197618421
0	44835	22342.07521084435	1.08507185569
0	44884	22359.100180687261	3.194175647624
0	44917	22365.621165494882	5.724328468894
0	44930	22370.526533053217	1.02161960369
0	44945	22381.572106934582	5.593142691955
0	44950	22392.280424238639	0.966633861605
0	44987	22415.113565363504	1.170252100565
0	45015	22422.559669713145	12.937648144294
0	45030	22427.766412807418	2.661451613998
0	45044	22435.25208718968	1.789601176296
0	45052	22437.136672335541	2.547068993293
0	45065	22440.626751883802	6.427624750116
0	45072	22442.300229252813	0.966843156051
0	45084	22444.305256772187	0.801894853171
0	45095	22447.496963080467	3.642278217341
0	45102	22448.531124608779	0.808748166449
0	45105	22449.354117014074	7.76213423805
0	45150	22471.088464036366	4.814674727607
0	45162	22480.313415608283	1.148879937176
0	45190	22491.483672613359	3.069222596332
0	45200	22502.986565558281	2.042971832392
0	45257	22520.919464005176	4.469758245291
0	45274	22523.713669284824	6.211164403664
0	45287	22526.789035089518	3.99483408164
0	45292	22527.674943777471	13.644468201978
0	45295	22528.526432039607	0.940559452382
0	45300	22531.22175618779	0.881682485156
0	45307	22535.281485485934	0.870957035571
0	45325	22539.766146974071	1.635982559456
0	45347	22557.427597679697	2.855659290216
0	45385	22570.908982671979	1.036775501817
0	45402	22591.905133716029	3.402231237414
0	45415	22596.436724563633	5.594870673483
0	45437	22602.839544189948	1.932799431002
0	45452	22607.782912893681	0.977031021379
0	45497	22626.711603660786	1.144066719059
0	45515	22631.951378652967	18.90381515114
0	45520	22637.131121889671	1.064094799478
0	45530	22643.442633218215	0.891294529848
0	45545	22662.523060155993	0.92979487367
0	45555	22667.479020864473	0.935930517688
0	45560	22668.955011646351	0.884474730026
0	45565	22671.184228939277	1.014957116824
0	45575	22677.416822566585	2.233676810451
0	45590	22688.118496721579	4.657772975577
0	45597	22695.281236066019	1.132324083988
0	45600	22696.378709251063	1.481044560766
0	45630	22710.467502967279	13.773523883973
0	45640	22713.050674614745	0.810805289354
0	45657	22719.321311663178	1.031581000914
0	45669	22723.492633993411	7.095263812609
0	45707	22734.489112129687	11.151082425473
0	45720	22738.268641099645	6.346417869069
0	45775	22768.976231289437	14.511555299597
0	45782	22770.506702174902	0.846152970195
0	45795	22774.168369785288	3.021533070899
0	45802	22775.65037426705	1.0633457941
0	45820	22780.212672375965	4.671548280494
0	45825	22798.578365211705	1.001799004804
0	45840	22807.629959712436	1.023878625687
0	45862	22812.828756038483	3.150625188299
0	45865	22813.77417694797	1.902228612033
0	45890	22828.389459700589	1.273803518806
0	45895	22839.258256392861	1.028269092832
0	45905	22853.20844231756	0.943325444777
0	45917	22857.241205786772	1.07495662393
0	45922	22858.249414502408	7.040081332141
0	45925	22859.050106405697	1.398157409118
0	45930	22880.721788320944	0.990881760698
0	45950	22891.194926758002	1.738436588891
0	46014	22903.96101856187	6.019818095219
0	46028	22906.034509553034	12.463558156153
0	46036	22908.038406007848	2.55035472559
0	46056	22911.887948104664	1.459939908376
0	46090	22920.809779753305	20.712653991307
0	46095	22922.080668510054	12.973921369977
0	46100	22930.692225811931	1.08684821967
0	46105	22934.040948566957	0.877888145577
0	46153	22950.944064491051	8.331882667475
0	46156	22951.94552952982	3.210814259957
0	46219	22965.345382017225	1.314746184669
0	46222	22966.316821979314	1.204776829985
0	46235	22970.372257954455	0.829764112178
0	46240	22973.206830634219	9.954819487495
0	46255	22977.707917476744	1.615616884873
0	46270	22981.545614693021	3.169884087146
0	46275	22982.727222042892	3.171272310822
0	46295	23005.768525735488	0.999452659395
0	46300	23011.361820523789	1.100746400561
0	46312	23015.28405606127	1.21036935508
0	46315	23016.368382126229	1.641847066051
0	46320	23038.585264193911	1.194036467839
0	46335	23046.409597418078	2.50254920692
0	46340	23048.007120201188	0.856332877558
0	46345	23053.451786535855	0.967878537159
0	46380	23068.232994066845	12.165715646288
0	46385	23069.368550480701	3.942306747912
0	46414	23078.333879646718	1.316037514229
0	46432	23082.498150995526	9.86467980975
0	46440	23085.967955150391	6.104612686337
0	46445	23100.604026902476	1.176779184863
0	46459	23106.889280568893	0.884505147301
0	46494	23123.75568441372	1.010701166093
0	46507	23126.903518692643	1.369425925465
0	46590	23167.795268684237	5.605186020161
0	46595	23180.514050605684	0.869065071736
0	46612	23188.698081856802	0.84170583738
0	46615	23189.720596986752	3.649811442074
0	46625	23203.052023108138	0.895203921758
0	46655	23220.707968310503	1.110297792656
0	46660	23230.69671145509	0.996667563729
0	46670	23253.51723188158	1.193751349207
0	46689	23263.098000963781	2.377470751959
0	46725	23272.408677376454	0.933140014019
0	46744	23276.284112588572	7.63247604765
0	46747	23277.431239741179	17.196526344596
0	46782	23291.470462499468	2.730550835019
0	46825	23313.174913977472	6.679568374736
0	46835	23323.739177164813	3.210717843329
0	46845	23337.69871480773	0.908700849768
0	46875	23351.022117456071	7.062339181974
0	46880	23353.714889473645	0.877936055791
0	46917	23371.399774802909	6.588250031435
0	46922	23372.246839263537	4.980585942
0	46925	23373.180451234863	9.546705796596
0	46947	23382.862471213397	6.187271332734
0	46975	23414.718103808312	1.122670801077
0	46980	23418.438216094033	0.95875745751
0	47009	23446.479759106899	1.902830847263
0	47012	23447.420887138622	1.303418930692
0	47015	23448.394120789154	2.083546402586
0	47029	23452.254581578291	3.762370498237
0	47032	23453.147634994267	1.147136588252
0	47052	23463.001395177	1.165248680767
0	47062	23464.913588568473	1.706635115406
0	47065	23465.899028007218	7.333223377926
0	47070	23472.775470592942	0.806603843346
0	47075	23484.777417089806	0.897857165616
0	47080	23492.400955918191	0.925909386668
0	47140	23523.375588797263	4.544056008844
0	47157	23541.352207890273	0.97773920605
0	47175	23551.078785128488	10.471292822892
0	47185	23557.043844555505	2.821142642608
0	47227	23573.952520393633	1.479360745448
0	47251	23579.045065426994	6.073376560456
0	47264	23582.2554974797	3.773557312083
0	47267	23583.346701229252	13.062856076254
0	47275	23586.961673624172	10.952933900351
0	47325	23608.065836605361	2.700380832329
0	47361	23631.139859960228	1.363228520709
0	47366	23632.103710396867	3.98161917669
0	47387	23638.363114856137	1.142544924336
0	47425	23663.138369975182	1.88091102339
0	47432	23666.003191385428	0.936553789955
0	47447	23669.457290878492	1.597605030932
0	47470	23676.59525117547	10.617953768789
0	47475	23677.9837308932	1.093509257957
0	47480	23681.131032458391	1.151650192495
0	47502	23696.134696479053	2.719662608944
0	47505	23697.041242853929	7.33532501462
0	47520	23733.330972118104	4.814567555474
0	47530	23743.784735968501	1.065197415464
0	47547	23751.806850997221	2.550666465835
0	47555	23755.451492965716	4.752434633969
0	47562	23760.775108747297	0.879787554964
0	47595	23771.76768623756	11.651375334005
0	47615	23779.883515103244	7.365758556448
0	47620	23782.265261486194	7.964347187878
0	47647	23791.057862675479	3.292406641978
0	47671	23795.614415258037	2.628295869124
0	47685	23797.872065476009	9.295189868781
0	47688	23798.874647581631	2.340185108136
0	47691	23799.876243872994	6.044598919231
0	47704	23802.938052709082	1.866842283599
0	47717	23806.003322346749	1.290734102544
0	47740	23816.905338361644	2.756461798549
0	47745	23822.715744787479	0.856757053733
0	47755	23832.181322947903	1.15744125098
0	47790	23842.433266113972	10.056103075217
0	47819	23849.011468021547	4.930340394869
0	47847	23854.348036674665	8.484067458428
0	47872	23861.272400724834	8.806585577842
0	47875	23862.361517691465	3.234371783259
0	47897	23872.446245806862	2.286981101805
0	47909	23874.988059735753	0.9797892523
0	47922	23877.894723071427	3.176700795685
0	47987	23906.060184780194	1.13989514783
0	48005	23912.253382648942	11.462188414894
0	48020	23923.859198448662	6.192374072791
0	48030	23929.541194901364	7.893876303445
0	48035	23953.806804648564	0.85242322525
0	48062	23964.315599427003	4.662789815652
0	48072	23966.283820532918	0.94678073403
0	48087	23969.193834558133	11.668859396179
0	48100	23974.340387429466	0.804154522438
0	48117	23980.310849285356	0.983455349784
0	48120	23981.487073728952	14.151291133493
0	48130	23987.137185067082	2.666008130187
0	48135	23998.007211173792	1.019504935388
0	48175	24014.045698741867	1.815049509731
0	48210	24028.362464706482	2.046854048293
0	48262	24050.95000778572	1.492353352416
0	48270	24064.573832654245	0.916321212053
0	48275	24065.700305763413	0.895472140145
0	48280	24074.078204089366	1.131167594716
0	48320	24090.494776373777	5.100548063839
0	48330	24095.656928576234	3.905380041786
0	48340	24099.335675421439	2.658927100076
0	48350	24102.052707426177	2.175970363021
0	48367	24110.481819677288	1.250044918659
0	48397	24117.024546597129	3.99072196429
0	48415	24123.016081558861	0.958810691629
0	48420	24132.637067636207	0.816206639539
0	48425	24149.747929674469	0.9249951615
0	48430	24156.173961164582	1.013042217121
0	48447	24164.743851229698	0.839670104906
0	48465	24170.286840046529	3.376013268188
0	48470	24178.936952677838	1.057052860782
0	48485	24190.928771614855	6.17691246869
0	48512	24211.115003963404	11.03374668822
0	48529	24216.774484795398	6.001544303685
0	48537	24218.681311869688	1.124077839589
0	48575	24229.178203684607	14.299937694131
0	48580	24230.636842229113	0.880515615735
0	48592	24235.985484638468	1.092974161729
0	48640	24262.674815217762	0.948832862657
0	48665	24275.470859053764	1.043027794175
0	48687	24283.067071996417	3.241933026723
0	48692	24284.128320738461	5.643045258035
0	48700	24291.577096962963	1.061188025866
0	48715	24302.330870892026	3.258595821355
0	48735	24307.901029883046	3.990512381763
0	48812	24340.80300787918	3.976669425548
0	48827	24345.729050847391	3.590349836707
0	48832	24346.595376428092	1.558673085543
0	48845	24351.004561851625	4.658478345397
0	48855	24362.870522490828	0.932471641805
0	48890	24372.926262752955	1.812342499702
0	48937	24393.908691772816	3.950524293119
0	48945	24395.996402175191	3.223577069502
0	48955	24401.04442306146	2.743783547479
0	48985	24425.000809980654	0.907012557052
0	48995	24445.185433975309	3.627954000382
0	49005	24460.982285659948	1.151885090023
0	49030	24478.273128588967	7.453581573686
0	49059	24500.452400301774	3.395934352282
0	49062	24501.539304203172	2.400126445922
0	49102	24529.715004451877	1.926070759073
0	49120	24536.882087665092	1.09558858918
0	49130	24540.588916652954	2.906403614478
0	49167	24553.947800677115	9.239216359214
0	49170	24554.973695516618	6.845411064623
0	49187	24566.736871360779	3.9202870292
0	49200	24571.770429374091	7.709982141659
0	49217	24577.91743630318	1.324928918165
0	49225	24580.184932424035	5.860838900481
0	49230	24587.839500830623	0.852409096807
0	49255	24603.744553147709	5.681467108569
0	49302	24614.61043166257	9.296734427906
0	49312	24616.499506821666	9.693059388258
0	49315	24617.395415273026	1.124463925329
0	49320	24629.509372695311	1.038426095527
0	49337	24641.56119792742	2.555699265275
0	49342	24642.734246999689	4.133578742173
0	49362	24646.690245954348	0.901092425357
0	49376	24648.816892947657	1.916544173611
0	49379	24649.631094925133	5.546591492717
0	49457	24673.545519781404	2.540669556433
0	49464	24674.500880230789	4.811514160089
0	49474	24676.480244887632	8.053330279047
0	49519	24686.381940141582	1.269224646626
0	49524	24687.337988803891	1.121732894319
0	49535	24690.253919534554	4.032283357401
0	49540	24697.502664819153	1.086860086489
0	49575	24715.601132921123	5.198899866706
0	49582	24718.174316918868	1.058562319912
0	49602	24722.856439758377	5.572401803251
0	49605	24723.871143590757	4.065206550434
0	49615	24730.9801695725	1.670236226512
0	49624	24732.740722764999	1.040834592283
0	49659	24740.423419849519	4.237347416232
0	49662	24741.369569122643	4.559520398672
0	49680	24745.970968265082	5.570955591227
0	49685	24758.238824574209	1.009902639501
0	49690	24767.382595052487	0.801886116248
0	49707	24776.395624090307	1.097028883453
0	49740	24789.820424572461	8.952188942963
0	49750	24801.658380920228	0.912736430112
0	49765	24814.044312527554	4.491289252289
0	49790	24823.805088206872	5.649946199174
0	49817	24835.831642744322	0.962158066986
0	49886	24852.55029802103	1.738865895652
0	49889	24853.378645876371	1.086009017166
0	49914	24858.612669081842	4.110857531383
0	49925	24861.567033831259	3.291294433876
0	49947	24874.136436429987	1.735259004979
0	49962	24877.107901919721	6.597402931501
0	49965	24878.180830766721	2.618189221063
0	49987	24887.739119688069	0.847582731117
0	49990	24888.609563783949	6.191580618534
0	50005	24903.632572966784	5.417423587741
0	50010	24909.550709655759	0.973885494377
0	50034	24914.613407999687	1.534315775488
0	50039	24915.762759328298	6.013213673798
0	50087	24941.904034112628	1.647242722508
0	50090	24943.069076978743	4.605910370269
0	50102	24947.85078360072	0.813192841597
0	50115	24954.840298296596	0.87376106903
0	50125	24963.192209775664	5.27272073928
0	50140	24976.4213294164	3.44293345994
0	50147	24980.422817452628	1.199567282293
0	50167	24985.096741837	2.050617642852
0	50192	24991.004414520789	1.56445618696
0	50212	24995.943953081334	2.080363362634
0	50268	25006.23615021391	1.489537011834
0	50273	25007.400939994512	2.488769490443
0	50278	25008.20251348179	6.56076101343
0	50281	25009.185464360585	28.095072350907
0	50286	25010.315416384974	8.230560863474
0	50289	25011.154478045294	1.468237147444
0	50320	25018.378944985776	5.131244284779
0	50337	25035.929325833143	1.344577888294
0	50367	25042.940867155419	3.730500268305
0	50445	25066.372054061859	2.370211683819
0	50450	25073.696597408503	1.027486652229
0	50470	25088.588077638342	5.29104846229
0	50495	25106.11330742697	0.931590729859
0	50512	25112.573050509871	1.104004875571
0	50534	25125.254410589884	1.160258752108
0	50537	25126.075936119656	1.642306565747
0	50540	25126.914866860236	5.718333163807
0	50564	25136.421581123236	3.24215880684
0	50576	25138.283139819025	5.637828816007
0	50596	25142.184016837857	2.819078258318
0	50609	25145.371482920952	4.4353301213
0	50617	25147.642910578407	12.013622094237
0	50639	25152.403656254938	1.129966001771
0	50642	25153.476581503214	4.818305872939
0	50655	25159.238458449848	7.413852133052
0	50660	25164.366750318024	0.936851892807
0	50704	25213.844894113015	1.930053137837
0	50735	25244.680875168956	1.16179317608
0	50740	25245.847389053079	2.97244013479
0	50765	25257.775564528626	3.313867134207
0	50790	25269.612099454925	3.647223466178
0	50800	25294.811188938195	4.101884457857
0	50807	25295.82828451521	0.88432378415
0	50817	25297.596519055546	1.299539754685
0	50825	25300.634269295745	5.585166271167
0	50872	25314.433054302628	4.875986202185
0	50899	25320.745894968465	1.022237739246
0	50920	25346.45984787934	1.084044745564
0	50935	25354.717298064709	1.07704367619
0	50967	25361.109254540266	5.693637184613
0	50987	25365.700161104616	5.400586255253
0	50995	25371.389963298293	0.936990681384
0	51007	25377.79343483503	1.008470428917
0	51012	25378.665266561033	2.676697958913
0	51017	25379.586529490063	1.293416209501
0	51020	25380.550330258152	1.183385512245
0	51045	25390.202680876238	4.926787981115
0	51050	25402.980336248757	0.906958888844
0	51067	25412.218122760983	3.76001483276
0	51127	25440.951538912558	5.233284882128
0	51155	25463.988872005858	7.242350348869
0	51165	25473.322442750779	3.255567908346
0	51170	25477.564044917141	0.927008861117
0	51187	25488.612807806779	1.291494229584
0	51222	25497.302856327863	1.693262616213
0	51271	25521.627607503635	1.865084077481
0	51279	25523.819951562592	7.856348021679
0	51297	25527.69650051328	7.019186888489
0	51332	25536.28146528148	4.32629186586
0	51335	25537.226367984646	1.75683334739
0	51345	25540.496496444301	6.676386346453
0	51355	25545.680626195202	3.357572786274
0	51392	25577.126943101809	4.229553701956
0	51400	25579.873572129676	12.634005369184
0	51430	25611.417629802966	1.033878743276
0	51455	25622.80610874538	6.387744202021
0	51467	25631.002498149358	1.295038676659
0	51492	25635.754793889959	5.687814761994
0	51505	25640.263608371	1.086441223323
0	51515	25643.236200018242	2.008184384734
0	51572	25661.826355348218	16.782979496292
0	51575	25663.020510169927	1.770528264648
0	51597	25673.341084679961	4.678537608573
0	51610	25679.728060140358	8.717423051757
0	51620	25684.570800105835	1.05758515168
0	51627	25694.816059673842	0.871440618765
0	51677	25725.846149117578	2.312947977039
0	51685	25728.487509424893	6.832216628657
0	51694	25730.743766225642	0.829678645637
0	51697	25731.635763910739	1.036201919188
0	51720	25740.388162259127	8.738904358559
0	51725	25746.040944891348	1.171255382244
0	51730	25747.787703328792	0.808090238646
0	51751	25751.743804077773	3.2806113563
0	51754	25752.931426886624	2.651556911278
0	51757	25753.953636948081	3.286372444776
0	51785	25760.953518597711	1.132870111614
0	51869	25787.952811436088	5.926533377835
0	51872	25789.003230248031	2.392345344985
0	51909	25807.139368027622	1.160231667185
0	51941	25813.270272899401	9.620181089519
0	51957	25817.772265457775	6.469534779771
0	51987	25824.858494944387	11.933717190508
0	52026	25832.740738163433	8.936509208067
0	52029	25833.713002485885	2.301686285228
0	52067	25842.724929318348	4.883063329673
0	52077	25844.58827146511	7.423289211884
0	52110	25864.752967508594	3.54801453437
0	52132	25868.891988727074	3.631686908633
0	52147	25874.764925019611	1.035329660866
0	52187	25883.118495424168	6.119526336535
0	52217	25894.432141139232	12.046788559185
0	52225	25896.475504655006	2.075354751458
0	52235	25901.229643081154	2.330459901268
0	52240	25908.781617764679	1.195147701167
0	52255	25930.196140896136	3.638879051115
0	52265	25943.036314975649	1.257255205508
0	52270	25945.095066938613	4.100205525454
0	52290	25953.732298220137	6.167420108003
[...]
7	59016	29606.227943628832	0
7	59020	29607.011378037917	1
7	59021	29607.309930831931	0
7	59055	29624.949145214166	1
7	59056	29625.752738644715	0
7	59065	29626.709969601757	1
7	59066	29627.74018564497	0
7	59120	29668.483340576546	1
7	59121	29668.543960014208	0
7	59165	29691.356012113214	1
7	59166	29692.375681442723	0
7	59215	29711.111841511812	1
7	59216	29711.895975294	0
7	59225	29714.300659967255	1
7	59226	29714.444937507315	0
7	59235	29717.183170436948	1
7	59236	29717.77409511353	0
7	59240	29718.235491607846	1
7	59241	29718.635820529658	0
7	59285	29748.71312870166	1
7	59286	29749.0626864665	0
7	59370	29818.104286346248	1
7	59371	29818.789074322997	0
7	59390	29832.118324998053	1
7	59391	29832.307081913234	0
7	59425	29850.136742040615	1
7	59426	29850.172517166956	0
7	59452	29862.273328347905	1
7	59453	29862.764374014082	0
7	59470	29870.931570685714	1
7	59471	29871.778471688892	0
7	59475	29872.257332620123	1
7	59478	29872.707124091371	0
7	59482	29872.725301568086	1
7	59483	29873.88410741879	0
7	59490	29875.948972832076	1
7	59491	29875.974517209049	0
7	59500	29877.281174476336	1
7	59501	29877.729047177512	0
7	59515	29880.752758112522	1
7	59516	29881.379360767718	0
7	59530	29883.956213045134	1
7	59531	29884.508306570432	0
7	59570	29903.689166087649	1
7	59571	29904.533274758409	0
7	59575	29904.553884522054	1
7	59578	29905.72519223456	0
7	59587	29907.12747075562	1
7	59588	29907.909718481905	0
7	59592	29908.06678376588	1
7	59595	29909.077405002422	0
7	59599	29909.608098170591	1
7	59600	29910.274478251568	0
7	59615	29913.823711470715	1
7	59616	29914.475892235513	0
7	59695	29956.805260703605	1
7	59696	29957.114350855278	0
7	59700	29957.231262524611	1
7	59701	29958.25584036058	0
7	59705	29958.356510165548	1
7	59706	29959.293741774766	0
7	59715	29962.458777258265	1
7	59719	29962.741174962186	2
7	59720	29963.206678337526	1
7	59724	29963.580953334206	2
7	59725	29964.172177978713	1
7	59729	29964.294523612417	2
7	59730	29965.27551986558	1
7	59734	29966.198944713096	2
7	59735	29966.403213277847	1
7	59738	29967.546995649223	0
7	59742	29967.58793342924	1
7	59743	29968.515858303399	0
7	59752	29969.799191480733	1
7	59754	29970.220901626916	2
7	59755	29970.755388460138	1
7	59758	29971.92078088002	0
7	59765	29973.401836265989	1
7	59766	29973.860718898957	0
7	59770	29973.92208185615	1
7	59772	29974.740670122677	2
7	59773	29974.770943444238	1
7	59779	29975.525773225873	2
7	59782	29975.832761994765	1
7	59786	29975.877952072999	2
7	59788	29976.27693704904	3
7	59791	29976.834314969943	2
7	59794	29977.797786648215	1
7	59798	29978.670884552017	2
7	59799	29978.690407111605	1
7	59803	29978.844166865691	2
7	59804	29979.729517211502	1
7	59808	29979.760552946152	2
7	59809	29980.835071592422	1
7	59813	29980.844057264707	2
7	59816	29981.969043111631	1
7	59822	29982.506794147888	2
7	59823	29983.001702368927	1
7	59826	29983.952224467804	0
7	59849	29989.355377026254	1
7	59850	29989.609654582401	0
7	59854	29990.064059161382	1
7	59855	29990.474783211869	0
7	59867	29993.458369676381	1
7	59868	29993.689172436499	0
7	59882	29996.824709110779	1
7	59883	29996.847483613264	0
8	20355	10119.526430078182	1
8	20356	10119.80222883954	0
8	20795	10320.057688960321	1
8	20796	10320.691738818623	0
8	20802	10321.778642835133	1
8	20806	10323.065034877674	0
8	21169	10442.079017927695	1
8	21176	10444.259265206516	0
8	21325	10501.927559731795	1
8	21329	10502.79531456439	0
8	21470	10581.915329510333	1
8	21474	10583.938330401199	0
8	21585	10689.875620516226	1
8	21586	10690.931349978345	0
8	21590	10692.10629684425	1
8	21591	10692.419664560913	0
8	21890	10811.670984204242	1
8	21896	10814.323413974931	0
8	22222	10939.999338000751	1
8	22226	10940.380843162519	0
8	22242	10944.160841162427	1
8	22251	10945.906004970485	0
8	22267	10949.389282825241	1
8	22269	10950.493396190032	0
8	22405	10990.094791090748	1
8	22406	10990.853434056275	0
8	22810	11182.32867496253	1
8	22811	11183.050745209403	0
8	23572	11586.967984152528	1
8	23575	11587.791721136811	2
8	23579	11589.571484248895	1
8	23581	11589.595113255167	0
8	23584	11590.160414551586	1
8	23590	11592.337752210457	2
8	23591	11592.446184852259	1
8	23596	11593.407607392002	0
8	23599	11593.558816083247	1
8	23602	11594.643552200781	2
8	23604	11595.028751511636	1
8	23610	11596.583542591804	2
8	23614	11597.518494956014	1
8	23621	11598.25150345619	0
8	23637	11601.858172246685	1
8	23639	11602.704564120569	0
8	23642	11602.752644039841	1
8	23652	11604.619911084568	2
8	23654	11604.714633796917	1
8	23656	11605.346199229296	0
8	24545	12064.952744497573	1
8	24546	12065.622179671446	0
8	25162	12352.094718092934	1
8	25164	12352.126640026068	0
8	25167	12353.223759175905	1
8	25171	12354.368444190146	0
8	26100	12805.620389533622	1
8	26101	12806.030651478726	0
8	26137	12812.999454132459	1
8	26141	12813.974374059128	0
8	26360	12921.868413757356	1
8	26361	12922.397996365827	0
8	26500	12994.318287173453	1
8	26501	12995.183942026028	0
8	26894	13153.529841131557	1
8	26896	13153.788846351783	0
8	27165	13273.183079524207	1
8	27166	13274.312728274124	0
8	27170	13275.252398862852	1
8	27171	13276.520366370764	0
8	27370	13385.37330250525	1
8	27371	13385.453801322588	0
8	27387	13388.36393262022	1
8	27389	13389.273306491803	0
8	27770	13670.041634754078	1
8	27771	13670.937351837325	0
8	27775	13672.123489781319	1
8	27776	13673.285805395172	0
8	27782	13674.123636367285	1
8	27789	13675.182495039278	0
8	27804	13678.086880890049	1
8	27806	13678.880544326133	0
8	27950	13752.993602836271	1
8	27951	13753.574316563093	0
8	27955	13754.501706548695	1
8	27956	13754.786900722267	0
8	28137	13891.801050619632	1
8	28144	13894.43641578411	0
8	28297	13997.144366508168	1
8	28301	13999.031744095838	0
8	28350	14019.263598038534	1
8	28351	14022.615884228161	0
8	28472	14080.541481603293	1
8	28474	14080.755374266087	0
8	28482	14082.50444154449	1
8	28486	14085.381740943041	0
8	28880	14279.505694586326	1
8	28881	14279.601192641223	0
8	28885	14280.585151781852	1
8	28886	14281.05966621008	0
8	29586	14623.459083004487	1
8	29588	14623.919884848699	0
8	29845	14731.785615705102	1
8	29846	14733.238613650588	0
8	30102	14857.898943362075	1
8	30107	14858.860047528583	2
8	30110	14859.806729825556	3
8	30111	14859.862033354883	2
8	30114	14859.935571504849	1
8	30116	14859.970499469397	0
8	30119	14860.677152702884	1
8	30121	14860.891951861652	0
8	31332	15431.362412104389	1
8	31336	15432.659085593117	0
8	31520	15515.027108702952	1
8	31521	15515.489415959703	0
8	31832	15671.645656824909	1
8	31834	15671.814599918979	0
8	32169	15851.174788687411	1
8	32171	15851.3979498013	0
8	32192	15856.204305429603	1
8	32194	15856.42772922214	0
8	33604	16699.158028558794	1
8	33606	16699.172872242644	0
8	33619	16702.275697064366	1
8	33621	16702.636180422231	0
8	33639	16706.066561420601	1
8	33641	16706.454352071371	0
8	33654	16708.794169383741	1
8	33663	16710.64335042344	0
8	33730	16732.210852332878	1
8	33734	16733.960432499994	0
8	33737	16734.458182592349	1
8	33741	16736.096137231695	0
8	33875	16798.509443138133	1
8	33876	16799.408181247202	0
8	34065	16899.709382160844	1
8	34066	16899.919444104435	0
8	34307	17003.765686259568	1
8	34321	17006.376570871271	0
8	35169	17444.592852979898	1
8	35171	17444.938625966024	0
8	35235	17463.396927589726	1
8	35236	17463.647605832113	0
8	35252	17467.126528918655	1
8	35254	17467.163318573948	0
8	35595	17634.822314204276	1
8	35596	17635.750769492669	0
8	35800	17736.356029925301	1
8	35801	17736.437085649213	0
8	36177	17960.18183998427	1
8	36179	17960.860381815465	0
8	36910	18313.12807163531	1
8	36911	18313.440417374681	0
8	36972	18348.091315174339	1
8	36975	18349.26322378931	2
8	36976	18349.339825026094	1
8	36979	18349.871481631019	0
8	36987	18350.996126254424	1
8	36989	18352.006735094702	0
8	37480	18627.992642589229	1
8	37482	18628.025120589279	0
8	37497	18631.046782959102	1
8	37499	18631.643100934176	0
8	37502	18632.101771109121	1
8	37505	18633.259957915673	2
8	37507	18633.46591542077	1
8	37510	18634.239626207052	2
8	37512	18634.637582106804	1
8	37515	18635.160347849166	2
8	37530	18638.749872951209	1
8	37532	18639.180010091322	0
8	37736	18687.83328733127	1
8	37738	18688.557732550342	0
8	37741	18688.693588803796	1
8	37743	18689.020592197985	0
8	37751	18690.527543949796	1
8	37753	18691.253354732777	0
8	37756	18691.485782934813	1
8	37758	18691.907149902583	0
8	38136	18848.003486713199	1
8	38145	18849.857952590578	0
8	39505	19660.117514635076	1
8	39506	19660.543408515423	0
8	39527	19664.2786939326	1
8	39529	19664.743432205476	0
8	40157	19972.276272507072	1
8	40161	19973.377926635049	0
8	40179	19976.313676607474	1
8	40184	19977.39115942582	2
8	40196	19982.201288915798	1
8	40201	19982.996328953936	0
8	40214	19985.524439810402	1
8	40219	19986.758869922806	0
8	40247	19992.509390149359	1
8	40250	19993.57924991278	2
8	40251	19994.260363551497	1
8	40256	19995.764204152855	0
8	40265	19997.793297089446	1
8	40266	19999.637987905907	0
8	40387	20058.867300106451	1
8	40389	20059.01944514259	0
8	40392	20059.667479718901	1
8	40394	20059.845876045509	0
8	40560	20154.390551707141	1
8	40561	20154.574305918594	0
8	40620	20178.606605154658	1
8	40621	20181.233813746265	0
8	40680	20216.428250246225	1
8	40684	20217.662091402773	0
8	40807	20255.691850316166	1
8	40809	20256.015032607513	0
8	41120	20439.88480304023	1
8	41121	20439.950911193478	0
8	41142	20450.401311071548	1
8	41144	20451.345762413512	0
8	41536	20609.67570707785	1
8	41541	20610.824552460164	2
8	41543	20610.936433765683	1
8	41545	20611.342333100929	0
8	41582	20619.45957296459	1
8	41584	20620.030930847287	0
8	41632	20631.743801219198	1
8	41634	20632.26009685494	0
8	42182	20925.693675124209	1
8	42184	20925.869181373859	0
8	42187	20926.559113590356	1
8	42189	20927.180099628664	0
8	42192	20927.644871864311	1
8	42195	20928.765011421714	2
8	42196	20932.223909432739	1
8	42201	20934.019138419088	0
8	42210	20936.243816749304	1
8	42211	20936.604500757662	0
8	42340	20980.305498321438	1
8	42341	20981.517319510848	0
8	42595	21096.501720872035	1
8	42596	21097.324903051593	0
8	42602	21098.129831332006	1
8	42604	21098.369509083803	0
8	42760	21180.442060735133	1
8	42761	21181.775934792424	0
8	43064	21370.376136990244	1
8	43066	21370.453980734741	0
8	43372	21519.959067538352	1
8	43374	21520.070022660632	0
8	43480	21571.658054459179	1
8	43481	21571.781105563507	0
8	43712	21687.420020036652	1
8	43716	21689.526941780741	0
8	44740	22293.844780626985	1
8	44741	22293.906705967977	0
8	45090	22446.463166993444	1
8	45091	22446.481220603437	0
8	45254	22519.851417572629	1
8	45259	22521.673504675465	0
8	45700	22733.480320617783	1
8	45701	22733.589102282907	0
8	45992	22899.947960923911	1
8	45999	22901.241489315219	0
8	46051	22910.691017674486	1
8	46071	22915.312964584648	0
8	46077	22916.489191928803	1
8	46081	22918.594356261242	0
8	46375	23066.483295444225	1
8	46376	23067.36143445998	0
8	46720	23270.90180204337	1
8	46726	23272.910377317178	0
8	46895	23366.852154996939	1
8	46896	23366.855468498323	0
8	46912	23370.284473287188	1
8	46914	23370.818149101754	0
8	47230	23575.095108540595	1
8	47231	23575.894098795466	0
8	47257	23581.082187891547	1
8	47259	23581.155436911672	0
8	47495	23695.093527304206	1
8	47496	23695.195985789229	0
8	47610	23776.09862204508	1
8	47611	23778.749001875323	0
8	47810	23847.709915753717	1
8	47811	23848.026931771611	0
8	47865	23860.2325605506	1
8	47866	23860.420114555342	0
8	48015	23922.530286994706	1
8	48016	23922.858737713047	0
8	48050	23961.290089438984	1
8	48051	23962.395479520972	0
8	49155	24550.835790073792	1
8	49156	24552.01548828259	0
8	49160	24553.076627922802	1
8	49161	24553.121968203349	0
8	49180	24564.984315733525	1
8	49181	24565.578029870313	0
8	49270	24608.295701905556	1
8	49274	24608.789186658013	0
8	49592	24720.81738889963	1
8	49594	24721.219298651976	0
8	49647	24738.645305447784	1
8	49649	24738.996073696385	0
8	50254	25004.355910545887	1
8	50260	25005.203678307291	0
8	51385	25574.933338656998	1
8	51386	25575.931892087106	0
8	51947	25815.298895749711	1
8	51951	25816.608660654485	0
8	52057	25840.023405417713	1
8	52061	25841.581521771153	0
8	52845	26236.957125280818	1
8	52846	26238.32710929695	0
8	53182	26404.216706376626	1
8	53189	26407.015243051396	0
8	53345	26474.752404673752	1
8	53356	26477.492116457568	0
8	53430	26524.306423849857	1
8	53431	26524.485047458977	0
8	53435	26525.550261582926	1
8	53436	26526.901802775978	0
8	54342	27063.970470712976	1
8	54346	27065.956457432976	0
8	54360	27069.09811873032	1
8	54361	27069.881396602564	0
8	54422	27087.49207202509	1
8	54424	27088.066134471059	0
8	54442	27091.770649693962	1
8	54446	27092.729440578893	0
8	55830	27764.663800260794	1
8	55831	27765.073836755697	0
8	56415	28143.790473138154	1
8	56419	28144.714608895178	0
8	56422	28145.272883046721	1
8	56424	28146.127231952495	0
8	56427	28146.232423769799	1
8	56430	28147.422536794678	2
8	56431	28147.954786204822	1
8	56437	28148.873433110114	2
8	56439	28148.926687451236	1
8	56441	28149.689428216337	0
8	57165	28581.879605011851	1
8	57169	28583.000917427133	0
8	57485	28758.711918290976	1
8	57486	28760.305761648491	0
8	57492	28761.31664287528	1
8	57494	28761.407238462668	0
8	58200	29115.179629746882	1
8	58201	29115.878874612093	0
8	58210	29117.775580891274	1
8	58211	29118.616125556848	0
8	58340	29196.185676898135	1
8	58341	29197.356468537141	0
8	58420	29249.551196137779	1
8	58421	29249.720719474579	0
8	59220	29712.989946192725	1
8	59221	29713.479222890241	0
8	59230	29715.437296836703	1
8	59231	29716.970711326461	0
8	59604	29911.378132175828	1
8	59614	29913.823711470715	0
8	59710	29960.273654371986	1
8	59711	29962.265677551009	0
8	59739	29967.546995649223	1
8	59741	29967.58793342924	0
8	59744	29968.515858303399	1
8	59751	29969.799191480733	0
8	59762	29972.729377379657	1
8	59769	29973.92208185615	0
9	20760	10311.212679919039	1
9	20766	10313.092144329479	0
9	21254	10485.858745246469	1
9	21261	10487.31778344667	0
9	21382	10538.227069316134	1
9	21384	10538.665179560646	0
9	21682	10723.031910747479	1
9	21684	10723.036497627208	0
9	21742	10750.195917374746	1
9	21744	10750.677115716414	0
9	21995	10876.844682197917	1
9	21996	10877.655531650883	0
9	22114	10905.708558500985	1
9	22119	10907.321011291469	0
9	22465	11029.441569352311	1
9	22469	11030.221893989304	0
9	22472	11030.665805427944	1
9	22474	11030.908872889438	0
9	22735	11138.958995774447	1
9	22736	11139.078041610706	0
9	22745	11141.320785801417	1
9	22746	11141.842259190087	0
9	22752	11142.899354715687	1
9	22759	11145.426423257425	0
9	23080	11307.632905270322	1
9	23081	11308.988584804932	0
9	23100	11314.556948688846	1
9	23101	11316.658503673225	0
9	24207	11939.634971038326	1
9	24209	11940.077123553873	0
9	24225	11943.799307930544	1
9	24226	11945.06292378063	0
9	24272	11954.159652805595	1
9	24274	11954.179371069022	0
9	25810	12686.88715166363	1
9	25811	12687.212118263327	0
9	27555	13518.080568905335	1
9	27556	13518.115225256686	0
9	27575	13521.8899203644	1
9	27576	13522.700740234986	0
9	28550	14107.407143227847	1
9	28554	14108.117743506626	0
9	29107	14362.955268774514	1
9	29109	14363.325613018706	0
9	29117	14365.002384267428	1
9	29119	14365.193017328708	0
9	29457	14597.561277147695	1
9	29459	14597.719593980458	0
9	29465	14599.465426347996	1
9	29466	14599.904554770445	0
9	29472	14600.838691812126	1
9	29474	14601.447319296178	0
9	29760	14698.430709220558	1
9	29761	14700.955787634931	0
9	30400	14996.051661669983	1
9	30401	14996.5667923817	0
9	31070	15291.574155795215	1
9	31071	15292.210786285895	0
9	31190	15339.220634569166	1
9	31191	15339.502414880966	0
9	31900	15718.433501320227	1
9	31901	15718.801210525806	0
9	32915	16307.082412363686	1
9	32916	16308.024007987342	0
9	32920	16309.137986552733	1
9	32921	16309.594084909021	0
9	32925	16310.541012711565	1
9	32926	16312.738216280872	0
9	33192	16456.821001425305	1
9	33194	16456.920810043119	0
9	33200	16458.786562809733	1
9	33206	16460.843922512801	0
9	33305	16532.628781891822	1
9	33306	16532.814472191944	0
9	33395	16593.343188747011	1
9	33396	16593.529242407581	0
9	34412	17026.100991507489	1
9	34414	17026.677875974126	0
9	34417	17027.067325035166	1
9	34419	17027.420057844393	0
9	34427	17028.992347677574	1
9	34429	17029.035093257354	0
9	35415	17575.949177386663	1
9	35419	17579.390306470556	0
9	35427	17580.937844323319	1
9	35429	17580.981397425494	0
9	35446	17584.029628635709	1
9	35448	17584.509089727293	0
9	35458	17585.793090687737	1
9	35463	17586.975794443114	0
9	36760	18251.935354432648	1
9	36761	18252.867642498035	0
9	37080	18403.596820101465	1
9	37081	18403.942548419602	0
9	37085	18404.963423917975	1
9	37086	18405.312667568708	0
9	37595	18653.18183794975	1
9	37596	18654.9214354391	0
9	37690	18678.586163749125	1
9	37691	18680.234130920091	0
9	37887	18753.958320454677	1
9	37889	18754.385110691031	0
9	37897	18756.204711006844	1
9	37909	18759.123141426746	0
9	37955	18768.821372132418	1
9	37961	18769.54169741155	0
9	38156	18852.104735942921	1
9	38169	18855.592266226528	0
9	38192	18860.309235668733	1
9	38194	18860.485716029028	0
9	38212	18864.255676348779	1
9	38214	18864.678385618165	0
9	38460	19033.750973659997	1
9	38461	19034.770063965744	0
9	39686	19748.188779111116	1
9	39699	19751.871159132694	0
9	39702	19752.057093424074	1
9	39704	19752.271849274304	0
9	39724	19756.541304160006	1
9	39730	19758.671411077588	2
9	39731	19760.129978007221	1
9	39737	19761.168555468836	2
9	39739	19761.661322495665	1
9	39748	19762.898133694178	0
9	40520	20131.899463018918	1
9	40521	20132.102673932972	0
9	42060	20848.573768784675	1
9	42061	20848.634247055965	0
9	42070	20850.69245066339	1
9	42071	20850.873576182249	0
9	43615	21649.602514648451	1
9	43616	21650.527084899428	0
9	43622	21651.602779422807	1
9	43624	21652.630357637834	0
9	43780	21737.305359557868	1
9	43781	21737.354724890734	0
9	43787	21738.368885602052	1
9	43789	21738.584628883179	0
9	43875	21766.083122683898	1
9	43876	21766.863114482925	0
9	44075	21852.286023665848	1
9	44076	21852.310789121006	0
9	44120	21867.783142727085	1
9	44121	21868.657732344434	0
9	44225	21921.718815910769	1
9	44231	21923.309472079962	0
9	44905	22363.590669034113	1
9	44906	22363.637526565493	0
9	45425	22600.433164010101	1
9	45426	22600.689043468929	0
9	46062	22913.532418247889	1
9	46064	22914.116212878537	0
9	46485	23122.362603555858	1
9	46489	23122.929728355328	0
9	46520	23129.99859198542	1
9	46521	23130.580195721891	0
9	47105	23503.179303420809	1
9	47106	23503.339272633462	0
9	47290	23598.764399662063	1
9	47291	23598.96412871233	0
9	47375	23634.980153620802	1
9	47376	23636.347698915331	0
9	47390	23639.476631158171	1
9	47391	23639.703872710234	0
9	47925	23878.71541112055	1
9	47926	23879.693236844476	0
9	48220	24041.160971371313	1
9	48221	24041.269196814429	0
9	48245	24046.443790825443	1
9	48246	24047.021857683204	0
9	48250	24047.901005432226	1
9	48251	24049.06541487207	0
9	48755	24321.434244546619	1
9	48756	24323.19676430557	0
9	48772	24326.191083053183	1
9	48775	24327.180040123277	2
9	48776	24328.265439741248	1
9	48779	24329.058442746174	0
9	49485	24679.244768254657	1
9	49486	24679.384064849862	0
9	49495	24681.419027314451	1
9	49496	24682.255968738237	0
9	49800	24828.382096169715	1
9	49801	24833.16597602936	0
9	49865	24848.125304178055	1
9	49866	24848.52591343346	0
9	50390	25051.923651854258	1
9	50391	25051.965461189294	0
9	52380	26005.986203366191	1
9	52381	26006.127334972036	0
9	52445	26022.745755308864	1
9	52446	26022.789343057917	0
9	52455	26025.057469398034	1
9	52456	26025.643138450523	0
9	54590	27182.733797387958	1
9	54591	27185.227286788055	0
9	54595	27186.199935651456	1
9	54596	27186.354058628318	0
9	54600	27187.159271190849	1
9	54601	27187.735344964497	0
9	54650	27201.384695372548	1
9	54651	27201.905863775373	0
9	55282	27512.059905751718	1
9	55286	27515.259853909024	0
9	55290	27516.418275426746	1
9	55294	27517.755593095945	0
9	55805	27751.706295344366	1
9	55806	27752.02146702933	0
9	55965	27831.034768276454	1
9	55969	27832.36565389422	0
9	55987	27835.823803411743	1
9	55991	27837.387656288065	0
9	56540	28221.473718121673	1
9	56541	28222.971640552287	0
9	59167	29692.375681442723	1
9	59169	29692.703556439451	0
9	59767	29973.860718898957	1
9	59776	29975.12491722786	0
9	59836	29986.507726786581	1
9	59841	29987.960933392995	0
9	59897	29999.954131297503	1

