version 2
run Second_exit_8-8-20191017-13:44:04-1959
attr configname Second_exit_8
attr datetime 20191017-13:44:04
attr experiment Second_exit_8
attr inifile omnetpp.ini
attr iterationvars ""
attr iterationvarsf ""
attr measurement ""
attr network ResponseTimeNetwork
attr processid 1959
attr repetition 8
attr replication #8
attr resultdir results
attr runnumber 8
attr seedset 8
param **.Source.interArrivalTime exponential(5s)
param **.jobPriority bernoulli(0.6)
param **.PS.serviceTimeU1 "uniform(0.8s, 1.2s)"
param **.PS.serviceTimeU2 "uniform(1.8s, 2.2s)"
param **.SS1.serviceTime exponential(1s)
param **.SS2.serviceTime exponential(1.2s)
param **.PS.exitProbability bernoulli(0.8)

vector 0 ResponseTimeNetwork.SS1 queueLength:vector ETV
attr interpolationmode sample-hold
attr title "queue length, vector"
vector 1 ResponseTimeNetwork.SS2 queueLength:vector ETV
attr interpolationmode sample-hold
attr title "queue length, vector"
vector 2 ResponseTimeNetwork.QueueU1 queueLength:vector ETV
attr interpolationmode sample-hold
attr title "queue length, vector"
vector 3 ResponseTimeNetwork.QueueU2 queueLength:vector ETV
attr interpolationmode sample-hold
attr title "queue length, vector"
vector 4 ResponseTimeNetwork.sink lifeTimeU1:vector ETV
attr interpolationmode none
attr title "lifetime of arrived jobs U1, vector"
attr unit s
vector 5 ResponseTimeNetwork.sink lifeTime:vector ETV
attr interpolationmode none
attr title "lifetime of arrived jobs, vector"
attr unit s
vector 6 ResponseTimeNetwork.sink lifeTimeU2:vector ETV
attr interpolationmode none
attr title "lifetime of arrived jobs U2, vector"
attr unit s
2	0	0	0
2	5	10.390658577948	1
2	6	11.230551081859	0
2	35	18.391090627077	1
2	36	18.824912635199	0
2	45	20.560879011664	1
2	47	20.668434191147	2
2	48	20.957735303007	1
2	51	22.107661660444	0
2	55	22.162974378764	1
2	57	22.844026420926	2
2	58	22.995182084907	1
2	61	24.065790129416	0
2	65	24.398623916864	1
2	66	24.986037338209	0
2	80	27.062137745573	1
2	82	27.485962787963	2
2	83	27.979975701646	1
2	87	28.605506424631	2
2	89	28.634659323857	3
2	90	28.828658743725	2
2	94	28.843993612452	3
2	96	29.262036934544	4
2	97	29.738440633249	3
2	101	30.817605376204	4
2	102	30.913962197919	3
2	106	31.241911565168	4
2	108	31.299168601874	5
2	109	31.772596952841	4
2	113	32.86706260486	5
2	114	32.893019309789	4
2	117	33.88473044388	3
2	121	33.909790287563	4
2	125	34.8168406744	5
2	127	34.835233969694	6
2	128	34.944238705989	5
2	132	35.552030218745	6
2	133	36.106481313575	5
2	137	36.363195580487	6
2	138	37.301919922009	5
2	142	38.178904712751	6
2	143	38.2064226925	5
2	147	38.405864621335	6
2	148	39.18499185523	5
2	152	39.393459271245	6
2	153	40.174877415839	5
2	157	40.463202092157	6
2	159	40.623650787956	7
2	160	41.061004534605	6
2	163	42.075462256427	5
2	167	42.181252638633	6
2	168	43.052271274439	5
2	172	43.847422631316	6
2	173	44.228131689186	5
2	176	45.228026031199	4
2	179	46.323067041169	3
2	183	47.098433555407	4
2	184	47.305728288981	3
2	188	48.183091800856	4
2	189	48.309960469565	3
2	193	49.277611305709	4
2	194	49.286077267172	3
2	198	49.286523186865	4
2	200	49.312779854597	5
2	202	49.883384195541	6
2	204	49.887303665163	7
2	205	50.113235829825	6
2	209	50.318887853905	7
2	210	51.290327894649	6
2	214	51.415041250271	7
2	217	52.329962394348	6
2	220	53.252520737386	5
2	224	53.770699100703	6
2	225	54.250749957523	5
2	228	55.097757413945	4
2	231	56.180363633725	3
2	235	56.623974244887	4
2	237	56.736939240925	5
2	238	57.184596532173	4
2	241	58.07995752111	3
2	245	58.314301634499	4
2	247	58.466178417307	5
2	248	59.226462193261	4
2	252	59.581046254366	5
2	253	60.213704619798	4
2	256	61.211146420202	3
2	260	61.899276629175	4
2	261	62.254216870907	3
2	265	62.879499308911	4
2	266	63.26528995769	3
2	270	64.192034450134	4
2	271	64.440971613917	3
2	274	65.413960831016	2
2	278	65.72609450859	3
2	279	66.416761471573	2
2	283	66.692956200063	3
2	285	67.03190643373	4
2	286	67.441674825698	3
2	289	68.564333360512	2
2	292	69.483783441838	1
2	296	69.983956386201	2
2	297	70.339137324467	1
2	300	71.305947754681	0
2	304	71.598559807615	1
2	305	72.161832911856	0
2	309	72.579302877813	1
2	310	73.329712593704	0
2	325	78.428804799594	1
2	327	78.698168177387	2
2	328	78.855128430836	1
2	334	79.831271726585	2
2	335	80.045996831991	1
2	340	81.00046407532	0
2	347	82.536033786187	1
2	349	82.536777957619	2
2	351	82.700447165788	3
2	352	82.769283334241	2
2	355	83.790089299046	1
2	358	84.76635924697	0
2	364	85.310183996508	1
2	365	85.889757832029	0
2	372	87.204771506291	1
2	373	87.907546667085	0
2	377	88.036774189164	1
2	379	88.10164697785	2
2	381	88.503035025322	3
2	383	88.667397980154	4
2	384	88.75728086874	3
2	388	89.367796882578	4
2	389	89.621400345658	3
2	393	89.80230343685	4
2	396	90.69327860864	3
2	400	90.817974986222	4
2	402	91.036806106644	5
2	404	91.070224131829	6
2	405	91.846441066434	5
2	409	92.405095652688	6
2	410	92.706157450174	5
2	414	93.164711636072	6
2	415	93.79419565348	5
2	419	94.3555743624	6
2	420	94.690455754176	5
2	424	94.739889489081	6
2	425	95.709777630288	5
2	429	95.845058831672	6
2	431	96.400870470725	7
2	432	96.73248780163	6
2	436	97.518236253607	7
2	437	97.553468072396	6
2	441	98.191163198215	7
2	442	98.699637685791	6
2	445	99.824548932147	5
2	449	100.576605683883	6
2	450	100.679714580701	5
2	454	100.722854655865	6
2	455	101.7931428504	5
2	459	101.968347656722	6
2	460	102.664068089687	5
2	464	102.685239386581	6
2	466	102.955855985826	7
2	468	103.373470244728	8
2	471	103.655370974616	7
2	474	104.567727313452	6
2	477	105.582555359118	5
2	481	105.987052191025	6
2	483	106.083032353605	7
2	484	106.551779081095	6
2	487	107.660479454026	5
2	490	108.683735069055	4
2	494	109.635259585361	5
2	495	109.770428398233	4
2	499	109.950756288701	5
2	503	110.612530635559	6
2	504	110.760917964187	5
2	508	110.819862883276	6
2	509	111.572116110549	5
2	513	111.800264098995	6
2	514	112.695624089502	5
2	518	113.060635430477	6
2	519	113.670156314206	5
2	522	114.633574454189	4
2	526	114.666923209868	5
2	529	115.821708906331	4
2	532	116.870001716708	3
2	535	117.80515654672	2
2	539	118.37627931033	3
2	540	118.673049190436	2
2	544	118.867254282125	3
2	545	119.870645510667	2
2	549	120.124097305615	3
2	551	120.151499602897	4
2	552	120.697085797396	3
2	560	121.643671110739	4
2	561	121.85253732184	3
2	565	121.878001160329	4
2	566	123.002042081934	3
2	571	124.075737139285	2
2	574	125.000119175744	1
2	578	125.401078016709	2
2	580	125.639286413108	3
2	581	125.868459563964	2
2	585	126.569580501759	3
2	586	127.021989642438	2
2	590	127.273157004611	3
2	591	128.202982401643	2
2	595	128.54522039046	3
2	596	129.354965959098	2
2	599	130.465114254299	1
2	603	130.574500083188	2
2	604	131.441138796117	1
2	608	131.642642539051	2
2	609	132.436889350116	1
2	613	132.445542117065	2
2	614	133.243772107064	1
2	618	133.45320010309	2
2	619	134.198376861288	1
2	622	135.123762378542	0
2	629	136.22955239574	1
2	630	136.801033410317	0
2	637	138.323905579607	1
2	638	138.583032025656	0
2	642	138.941522086307	1
2	645	139.487044401447	0
2	649	139.547111622157	1
2	651	139.952328181033	2
2	652	140.51641298456	1
2	656	140.687144777732	2
2	659	141.636104884724	1
2	662	142.730320612228	0
2	669	144.406539415573	1
2	670	144.466023230533	0
2	679	146.101344395301	1
2	680	146.480319178923	0
2	690	148.56611436206	1
2	692	148.88331541674	2
2	695	149.384284960738	1
2	698	150.352381238508	0
2	707	151.786056245268	1
2	710	152.528757824263	0
2	716	153.083512956541	1
2	718	153.088247876773	2
2	719	153.528017980213	1
2	722	154.674689657035	0
2	726	154.962695562631	1
2	727	155.662589134349	0
2	731	155.871036643349	1
2	733	155.919320939648	2
2	734	156.576752872931	1
2	737	157.640402142031	0
2	744	159.049219611278	1
2	745	159.616748675683	0
2	749	160.356580518661	1
2	750	160.744084310697	0
2	769	164.246610825504	1
2	770	164.80330518985	0
2	779	166.628184979794	1
2	780	166.960836338231	0
2	787	168.706695978311	1
2	788	168.989488190206	0
2	792	169.811286730825	1
2	793	169.925520856938	0
2	799	170.903225847503	1
2	800	171.115417251995	0
2	804	171.305838072443	1
2	806	171.643804627119	2
2	808	172.094780592509	3
2	809	172.127166474031	2
2	812	173.303314610643	1
2	816	173.490268468154	2
2	817	174.15075921973	1
2	821	175.025790329012	2
2	822	175.110186644809	1
2	825	176.114416026676	0
2	829	176.285096741367	1
2	830	176.953854660669	0
2	857	182.091431749087	1
2	860	182.999957138746	0
2	870	185.059674345708	1
2	873	185.889635665975	0
2	880	187.888445286395	1
2	881	187.918011873941	0
2	890	189.322225873136	1
2	892	189.397150933451	2
2	895	189.79737433277	1
2	898	190.925026072263	0
2	902	191.500364216634	1
2	903	191.769239879101	0
2	907	192.18896530148	1
2	908	192.957911771703	0
2	914	193.991057969041	1
2	915	194.155723142325	0
2	919	195.134888501885	1
2	920	195.163305233493	0
2	927	196.986005187992	1
2	929	197.128628161588	2
2	930	197.232066753581	1
2	934	197.288876810415	2
2	935	198.151631279737	1
2	939	198.201432580614	2
2	940	199.278740429953	1
2	944	199.980253840515	2
2	945	200.111984276381	1
2	948	200.923643005063	0
2	965	204.265324631863	1
2	968	204.556612056755	0
2	975	205.976146195896	1
2	976	206.395496307575	0
2	980	206.412841231965	1
2	983	207.325578111858	0
2	990	208.597540410198	1
2	991	209.521539521665	0
2	998	211.343444062448	1
2	999	211.41087317735	0
2	1003	211.932112488396	1
2	1006	212.373296261747	0
2	1018	215.057863708491	1
2	1019	215.370255224761	0
2	1025	216.13919363048	1
2	1027	216.334776188936	2
2	1028	216.521030717045	1
2	1031	217.501519042514	0
2	1037	217.870569066674	1
2	1038	218.685972917713	0
2	1042	218.895336363591	1
2	1043	219.795911694113	0
2	1050	221.283436099869	1
2	1052	221.418470702968	2
2	1053	221.822617934439	1
2	1058	222.964112765882	0
2	1062	223.548459393271	1
2	1063	223.819576402921	0
2	1067	224.397019498005	1
2	1068	224.922181428019	0
2	1072	225.579143654081	1
2	1073	225.76659505887	0
2	1077	226.298737811529	1
2	1078	226.588363925443	0
2	1082	227.748423391614	1
2	1083	227.768992969562	0
2	1087	228.832443060442	1
2	1088	228.899933390767	0
2	1098	231.498576952791	1
2	1099	231.72777503457	0
2	1111	233.954202748498	1
2	1114	234.927455437352	0
2	1129	238.49830515717	1
2	1130	238.781744007842	0
2	1160	246.754588840551	1
2	1163	247.174244897221	0
2	1176	248.713140948963	1
2	1177	249.169060636465	0
2	1183	249.953139959125	1
2	1184	250.243655429375	0
2	1188	250.67176433074	1
2	1189	251.315540591129	0
2	1196	253.396606382143	1
2	1197	253.480027876668	0
2	1212	256.521803020232	1
2	1213	257.236769022852	0
2	1224	258.913174470497	1
2	1227	259.377235302202	0
2	1236	260.988862903824	1
2	1237	261.313004426252	0
2	1247	263.457280510245	1
2	1250	264.092443649531	0
2	1259	265.442875350328	1
2	1260	266.058058968247	0
2	1274	269.094438513928	1
2	1275	269.377610229762	0
2	1290	273.058628835642	1
2	1291	273.47533956232	0
2	1300	274.707779492185	1
2	1301	275.191426842907	0
2	1305	275.400051911661	1
2	1307	275.874630058459	2
2	1310	276.139169089278	1
2	1313	277.182712445562	0
2	1325	280.066484989519	1
2	1326	280.491529150132	0
2	1335	282.299176125318	1
2	1336	282.717156419448	0
2	1340	282.858014965291	1
2	1342	283.165173021181	2
2	1344	283.592627379543	3
2	1345	283.823938039328	2
2	1349	283.899865004986	3
2	1353	284.407799661473	4
2	1354	284.778044464915	3
2	1357	285.686375732358	2
2	1361	286.137427611824	3
2	1364	286.527753615483	2
2	1370	286.683091889268	3
2	1372	287.135672386935	4
2	1373	287.407940591323	3
2	1377	287.439942904709	4
2	1380	288.430137737385	3
2	1384	288.869221763924	4
2	1385	289.422761294815	3
2	1389	289.573895950751	4
2	1390	290.414408419292	3
2	1394	290.73099427676	4
2	1395	291.536536143545	3
2	1400	292.693918029323	2
2	1404	293.440737688439	3
2	1405	293.593179485399	2
2	1408	294.52360603382	1
2	1411	295.393815150122	0
2	1415	296.323531966214	1
2	1416	296.482849469791	0
2	1420	296.51792036457	1
2	1422	296.536417121837	2
2	1424	296.686078728973	3
2	1425	297.531730531911	2
2	1428	298.638836195237	1
2	1432	298.711843998267	2
2	1433	299.589892507914	1
2	1436	300.647651845134	0
2	1440	301.239343243046	1
2	1441	301.706930678069	0
2	1448	302.827114357862	1
2	1450	303.360229158158	2
2	1451	303.646209592383	1
2	1455	304.209018027038	2
2	1456	304.746652528375	1
2	1459	305.562993541557	0
2	1465	306.21635244189	1
2	1467	306.422650010068	2
2	1468	306.727064871892	1
2	1475	307.808316340122	0
2	1479	307.863794130532	1
2	1481	308.760463398763	2
2	1482	308.882010691996	1
2	1486	308.918698747903	2
2	1487	309.839429772749	1
2	1490	310.648540384426	0
2	1494	311.240891997529	1
2	1495	311.716020802791	0
2	1502	313.394452112411	1
2	1503	313.832669800157	0
2	1515	316.541235919815	1
2	1516	316.689112486886	0
2	1523	318.050721679224	1
2	1525	318.68441509796	2
2	1526	318.900988588584	1
2	1535	319.747225010218	0
2	1539	320.794407343367	1
2	1540	320.808832540279	0
2	1549	322.920407064431	1
2	1550	322.977422092771	0
2	1559	324.497324989691	1
2	1560	324.896528166169	0
2	1569	326.487172521978	1
2	1570	327.088699104646	0
2	1581	328.066385114852	1
2	1582	329.111869759214	0
2	1594	331.8746234795	1
2	1595	332.52884015358	0
2	1602	333.597906974409	1
2	1605	334.158772954633	0
2	1612	336.042243758361	1
2	1613	336.111594509622	0
2	1622	337.151725303241	1
2	1623	337.84748572168	0
2	1640	340.937392101752	1
2	1642	341.057215225013	2
2	1643	341.86849536962	1
2	1650	343.002288061857	0
2	1661	344.257607356321	1
2	1662	344.843445849523	0
2	1669	346.316767406764	1
2	1671	346.550497174757	2
2	1674	346.681357898947	1
2	1677	347.837483153783	0
2	1681	348.112632121942	1
2	1684	348.693917007011	0
2	1694	350.794114162934	1
2	1695	351.877734389075	0
2	1704	353.683685413254	1
2	1705	353.889078936738	0
2	1716	355.340483730961	1
2	1717	356.038835517049	0
2	1728	357.262679814658	1
2	1729	357.999729807686	0
2	1779	370.396791765436	1
2	1780	371.164144455467	0
2	1798	373.589170005187	1
2	1807	374.255252970674	0
2	1816	375.681188423851	1
2	1821	376.529634098721	0
2	1836	379.568129774095	1
2	1839	380.129226834525	0
2	1873	387.200057981069	1
2	1874	387.707095717279	0
2	1883	388.791547792631	1
2	1884	389.82741746466	0
2	1893	391.017018553289	1
2	1894	392.070524641511	0
2	1903	393.15230034041	1
2	1904	393.879147668847	0
2	1913	395.568339945802	1
2	1914	395.792135286623	0
2	1918	396.002470916367	1
2	1921	396.672327046481	0
2	1931	398.810371338784	1
2	1934	399.673215473175	0
2	1941	401.151107150208	1
2	1942	401.569294188742	0
2	1986	409.837238337989	1
2	1989	410.805082750799	0
2	1998	411.668982217952	1
2	2000	412.153338365386	2
2	2001	412.47079004479	1
2	2004	413.375193025278	0
2	2008	413.588388880696	1
2	2011	414.179879139843	0
2	2018	415.369152542803	1
2	2019	416.305824953424	0
2	2028	417.973403077143	1
2	2030	417.990425151094	2
2	2031	418.525549440379	1
2	2036	419.582580211493	0
2	2045	420.797776707324	1
2	2047	421.228946133712	2
2	2048	421.449378778147	1
2	2051	422.333467402695	0
2	2055	423.168621449393	1
2	2058	423.272283817655	0
2	2065	424.476733299389	1
2	2066	425.397990797381	0
2	2070	425.59467546315	1
2	2071	426.401697254474	0
2	2075	426.45650816825	1
2	2076	427.427673568683	0
2	2085	428.948494316781	1
2	2087	428.976112285125	2
2	2089	429.151805582083	3
2	2090	429.350154373063	2
2	2095	430.248081951136	1
2	2099	430.312731645586	2
2	2100	431.299501359569	1
2	2105	432.213790266043	0
2	2109	432.865802767858	1
2	2110	433.267274996838	0
2	2117	434.090502253249	1
2	2119	434.395154126407	2
2	2121	434.430965280257	3
2	2122	435.133864214471	2
2	2125	436.231617993223	1
2	2129	436.961821507734	2
2	2130	437.392183948787	1
2	2136	438.123072822739	2
2	2137	438.579749876088	1
2	2141	438.712019167606	2
2	2142	439.491683804537	1
2	2146	439.934704099677	2
2	2148	440.193567782852	3
2	2149	440.672407205696	2
2	2153	441.264016246477	3
2	2154	441.667306901528	2
2	2157	442.858480088054	1
2	2161	443.307888880951	2
2	2162	443.9316085986	1
2	2166	444.280581215974	2
2	2167	444.897441135174	1
2	2171	445.106188716536	2
2	2172	446.080446032541	1
2	2176	446.565882751182	2
2	2177	446.881866241912	1
2	2181	447.699260127446	2
2	2182	447.937633589855	1
2	2185	448.819217821131	0
2	2192	450.51599058027	1
2	2193	451.135173198036	0
2	2197	451.533243828977	1
2	2198	452.037813678398	0
2	2205	452.996632891953	1
2	2207	453.340835802308	2
2	2209	453.479473493806	3
2	2210	453.740091940961	2
2	2215	454.691856872118	1
2	2218	455.667174489996	0
2	2224	456.033104300615	1
2	2225	456.754694622396	0
2	2229	456.837632733645	1
2	2231	457.480717705634	2
2	2232	457.62981159083	1
2	2236	458.209552612131	2
2	2237	458.713225759393	1
2	2241	459.092457821947	2
2	2242	459.601178139462	1
2	2245	460.707812388069	0
2	2249	461.089574380739	1
2	2251	461.4115603952	2
2	2252	461.750930239647	1
2	2255	462.848092860184	0
2	2259	462.88273849432	1
2	2261	463.985699636262	2
2	2262	464.045414706986	1
2	2265	464.858799710325	0
2	2269	465.414204038315	1
2	2271	465.610494065162	2
2	2272	465.791764344848	1
2	2275	466.804122882257	0
2	2282	467.877006474999	1
2	2283	468.509096877011	0
2	2301	471.369513580643	1
2	2302	471.459780894699	0
2	2306	471.662346132724	1
2	2308	471.93722868954	2
2	2309	472.553244200735	1
2	2314	473.627695561028	0
2	2318	473.766175116638	1
2	2320	474.527923377043	2
2	2321	474.789081166512	1
2	2324	475.82521936662	0
2	2336	478.450223771246	1
2	2337	478.699795392542	0
2	2341	478.963612708474	1
2	2345	479.425380272009	2
2	2346	479.651022935579	1
2	2350	480.061276048027	2
2	2351	480.83661211274	1
2	2355	481.109757789678	2
2	2358	482.016703058792	1
2	2361	482.844891789661	0
2	2365	483.169276720519	1
2	2367	483.331628186657	2
2	2368	483.949503130571	1
2	2372	484.868427025088	2
2	2373	484.9637515179	1
2	2379	485.433239004089	2
2	2381	485.495082518008	3
2	2382	485.906076660578	2
2	2385	486.994924110838	1
2	2389	487.017912000397	2
2	2390	487.809026835684	1
2	2394	487.97806199218	2
2	2395	488.951190514222	1
2	2399	489.647196816448	2
2	2400	489.978645284299	1
2	2404	490.246736254706	2
2	2405	491.162618698564	1
2	2409	491.684280177316	2
2	2410	492.195102898043	1
2	2413	493.290486875095	0
2	2417	494.004892180838	1
2	2418	494.31623667042	0
2	2422	494.422434789918	1
2	2423	495.143319193472	0
2	2441	499.602243114461	1
2	2442	500.22545634174	0
2	2446	500.823772221241	1
2	2447	501.258899945963	0
2	2451	501.282524542364	1
2	2454	502.210959798761	0
2	2458	502.218244213269	1
2	2459	503.272341910202	0
2	2463	504.146246955282	1
2	2464	504.177223388303	0
2	2468	504.649921642885	1
2	2469	505.209426777821	0
2	2473	505.585470880747	1
2	2474	506.032632296823	0
2	2481	507.318448828966	1
2	2482	508.011992087226	0
2	2486	508.222420731296	1
2	2487	509.069530683487	0
2	2496	510.67366089355	1
2	2497	510.911534748609	0
2	2519	515.526596729531	1
2	2521	515.826583884519	2
2	2522	515.878574292186	1
2	2527	516.783902434736	0
2	2531	516.785707167985	1
2	2534	517.818238233786	0
2	2541	518.992822425036	1
2	2542	519.790792203147	0
2	2546	520.007904309906	1
2	2547	520.778531684179	0
2	2551	521.257059307008	1
2	2552	521.890652703971	0
2	2556	522.19932426834	1
2	2559	523.023974215903	0
2	2563	523.273881315082	1
2	2564	523.963892876648	0
2	2568	524.320750519591	1
2	2569	524.909598029975	0
2	2573	525.740366789088	1
2	2574	525.822144492354	0
2	2581	527.747438504743	1
2	2582	527.989149693317	0
2	2591	528.818216349778	1
2	2593	529.597533313401	2
2	2594	529.89918486505	1
2	2601	530.869836001761	0
2	2608	532.350576510697	1
2	2609	533.139424974576	0
2	2613	533.760591744657	1
2	2615	533.801312074233	2
2	2616	534.19000490132	1
2	2621	535.11520598178	0
2	2625	535.786960463585	1
2	2628	536.275524077483	0
2	2643	539.730938452802	1
2	2647	540.647903948497	2
2	2648	540.729041566152	1
2	2652	541.3274101814	2
2	2655	541.903409908816	1
2	2659	541.989000802538	2
2	2660	543.018673136469	1
2	2664	543.217886780347	2
2	2665	543.885569954861	1
2	2669	543.977982103485	2
2	2670	544.817519840796	1
2	2674	544.901570312701	2
2	2675	545.958449282509	1
2	2679	546.572142590501	2
2	2681	546.734441808034	3
2	2682	547.054004244146	2
2	2686	547.558097316019	3
2	2688	547.732135682705	4
2	2689	548.099354696286	3
2	2693	548.194821601695	4
2	2694	549.273159887374	3
2	2698	550.239078812585	4
2	2699	550.408776368678	3
2	2703	550.568007595691	4
2	2704	551.277103371278	3
2	2707	552.283889577643	2
2	2711	552.466576854659	3
2	2712	553.131734722027	2
2	2715	554.148987243989	1
2	2719	554.740348091959	2
2	2720	555.305129743194	1
2	2724	555.888150637106	2
2	2725	556.441313201016	1
2	2729	556.705651756024	2
2	2730	557.440235251574	1
2	2733	558.632026862646	0
2	2740	560.112498649701	1
2	2742	560.260256948122	2
2	2743	560.596229687905	1
2	2747	560.992735215202	2
2	2748	561.609027239787	1
2	2754	562.506633000983	2
2	2755	562.595158011666	1
2	2759	562.636460807559	2
2	2760	563.41232603799	1
2	2764	564.016428551486	2
2	2765	564.60261504521	1
2	2768	565.464299347823	0
2	2778	567.504306152352	1
2	2779	567.975626394351	0
2	2804	573.187090841667	1
2	2807	574.126492637408	0
2	2817	576.520876263698	1
2	2819	576.596338068163	2
2	2821	576.865095488892	3
2	2824	577.515560747601	2
2	2829	578.548366942361	1
2	2834	579.585547711153	0
2	2838	579.979406272938	1
2	2841	580.650798167672	0
2	2845	580.818087529553	1
2	2846	581.59000917013	0
2	2855	582.852127249669	1
2	2857	583.242050630075	2
2	2858	583.395208146807	1
2	2864	583.708306712954	2
2	2866	583.97534520891	3
2	2867	584.220433736883	2
2	2870	585.117750321899	1
2	2873	585.963447370857	0
2	2883	588.46397082445	1
2	2886	589.192081454873	0
2	2890	589.28187691709	1
2	2891	590.34449909731	0
2	2895	590.599573441406	1
2	2896	591.48071048978	0
2	2907	592.395796783506	1
2	2908	593.378708026104	0
2	2925	596.439391963867	1
2	2926	597.09700639398	0
2	2938	599.91472321083	1
2	2939	600.116079321794	0
2	2945	600.657066048496	1
2	2946	601.039150402706	0
2	2950	601.634928750849	1
2	2951	602.169024094857	0
2	2955	602.621354420623	1
2	2956	603.291603553492	0
2	2960	603.986538449357	1
2	2961	604.224228451598	0
2	2965	604.761773586033	1
2	2967	605.164174322938	2
2	2968	605.384068031434	1
2	2971	606.546467942197	0
2	2981	608.708931599658	1
2	2983	609.097121950412	2
2	2985	609.465778871888	3
2	2986	609.643042700842	2
2	2991	610.692780118074	1
2	2996	611.529394838225	0
2	3000	611.55130635576	1
2	3002	611.976562740402	2
2	3003	612.646113580383	1
2	3006	613.475630408071	0
2	3013	614.943363908829	1
2	3015	615.152191688779	2
2	3016	615.536467911035	1
2	3020	615.896914738833	2
2	3021	616.730592565064	1
2	3026	617.807163942617	0
2	3030	618.30932288662	1
2	3031	618.829205227189	0
2	3035	619.146019144306	1
2	3036	620.004077280231	0
2	3040	620.471206141168	1
2	3041	620.881978729937	0
2	3045	621.229627103939	1
2	3047	621.393529052236	2
2	3048	621.797464828111	1
2	3051	622.780570994887	0
2	3061	624.745693868671	1
2	3063	625.03782081178	2
2	3064	625.424052303108	1
2	3067	626.416818484208	0
2	3071	626.610954347306	1
2	3073	627.016922917458	2
2	3078	627.586668642527	1
2	3082	628.060896620821	2
2	3083	628.723681996586	1
2	3087	628.853440981044	2
2	3088	629.797801121986	1
2	3092	630.10181279557	2
2	3093	630.965152950222	1
2	3097	631.525620045021	2
2	3098	632.139284373457	1
2	3101	632.98155007233	0
2	3108	634.675020343534	1
2	3109	634.680683695628	0
2	3118	635.877545471789	1
2	3119	636.514161640881	0
2	3126	637.950252576938	1
2	3128	638.038517026251	2
2	3129	638.786142238984	1
2	3133	639.175247171279	2
2	3134	639.82618058092	1
2	3137	640.913404026172	0
2	3143	641.860699208048	1
2	3144	642.076228113017	0
2	3148	642.620392848093	1
2	3149	643.21643952896	0
2	3156	644.830342755039	1
2	3157	645.11379925321	0
2	3161	645.445057128402	1
2	3163	645.700746118094	2
2	3164	646.059758077666	1
2	3168	646.130015395702	2
2	3169	646.929930121556	1
2	3173	647.259947083028	2
2	3174	647.920908767462	1
2	3179	648.863328053627	0
2	3185	649.655356737174	1
2	3186	650.01748701363	0
2	3196	652.606349460713	1
2	3199	653.189715646032	0
2	3208	655.015489558589	1
2	3209	655.056661607522	0
2	3213	655.486231672914	1
2	3215	655.952522756587	2
2	3216	656.031116950988	1
2	3220	656.173780434789	2
2	3225	657.146684719726	1
2	3229	658.052738792785	2
2	3230	658.073459342505	1
2	3234	658.174731614629	2
2	3236	658.331492608785	3
2	3237	659.132389702193	2
2	3240	659.985743312735	1
2	3244	660.47106099245	2
2	3245	661.056215684965	1
2	3251	661.730710975623	2
2	3252	662.233616118423	1
2	3256	662.647082208656	2
2	3258	662.656909165659	3
2	3259	663.171468615356	2
2	3262	664.24743267336	1
2	3266	664.363828109185	2
2	3268	665.20606302161	3
2	3269	665.223917567274	2
2	3273	665.351755554321	3
2	3277	665.621273956756	4
2	3279	665.820379326974	5
2	3280	666.327828398915	4
2	3283	667.337426368063	3
2	3286	668.199844062337	2
2	3290	668.939541946192	3
2	3291	669.210803245017	2
2	3294	670.088599988641	1
2	3298	670.830518858116	2
2	3299	671.041190600777	1
2	3303	671.887204175791	2
2	3304	671.901433429969	1
2	3307	672.715841747084	0
2	3314	673.912435129662	1
2	3316	674.397377836156	2
2	3318	674.528970584178	3
2	3319	674.598980717184	2
2	3323	674.713998852921	3
2	3324	675.67723804201	2
2	3328	675.685453780112	3
2	3331	676.56825868628	2
2	3334	677.64913102231	1
2	3338	677.826762032369	2
2	3339	678.67409302677	1
2	3343	678.707756110043	2
2	3345	679.585412402125	3
2	3346	679.667703141654	2
2	3350	679.744719240952	3
2	3352	680.052128916931	4
2	3353	680.540966086844	3
2	3357	681.359165382227	4
2	3358	681.566597465994	3
2	3362	682.372320840651	4
2	3363	682.512332064947	3
2	3367	682.941054232928	4
2	3368	683.381715861624	3
2	3371	684.188795952229	2
2	3374	685.007407918023	1
2	3378	685.032961595886	2
2	3379	685.927815885944	1
2	3382	687.047773232786	0
2	3389	688.964023870664	1
2	3390	689.053120225212	0
2	3399	690.927459962441	1
2	3400	690.944952850984	0
2	3404	691.289068922736	1
2	3405	691.854195313165	0
2	3412	693.072286868706	1
2	3414	693.075909877991	2
2	3415	693.910842097188	1
2	3419	694.208508552905	2
2	3421	694.475521230541	3
2	3424	695.094963140144	2
2	3429	696.092271679557	1
2	3434	697.115872702013	0
2	3441	698.525833704249	1
2	3443	698.784023903577	2
2	3444	699.218206615198	1
2	3447	700.067379506316	0
2	3451	700.690614483319	1
2	3453	700.975898386912	2
2	3454	701.185122416645	1
2	3457	702.133249708462	0
2	3461	702.212099791541	1
2	3462	703.157721855502	0
2	3476	705.584931933434	1
2	3478	706.097196069363	2
2	3479	706.112084458499	1
2	3484	707.060810255921	0
2	3488	707.085694048835	1
2	3489	708.22809366324	0
2	3493	708.903066469091	1
2	3494	709.199165726835	0
2	3498	709.817974811332	1
2	3500	710.156048863892	2
2	3501	710.189556018738	1
2	3505	710.73184847423	2
2	3507	711.077368275254	3
2	3508	711.31603857792	2
2	3512	711.994415282724	3
2	3513	712.423961604489	2
2	3517	712.732465005145	3
2	3518	713.376888710735	2
2	3522	713.543802155325	3
2	3524	713.786249205325	4
2	3525	714.253669002289	3
2	3528	715.118663282702	2
2	3532	715.836805002696	3
2	3534	716.016180740517	4
2	3535	716.029626503224	3
2	3539	716.668354771512	4
2	3540	716.897752335305	3
2	3544	716.934566402275	4
2	3545	718.041760639484	3
2	3549	718.444961172316	4
2	3551	718.723074836704	5
2	3552	718.961216998576	4
2	3555	719.843433655995	3
2	3559	719.850206139635	4
2	3562	720.661324065003	3
2	3566	721.352783044643	4
2	3567	721.670181046158	3
2	3571	722.090542298256	4
2	3573	722.23070642358	5
2	3574	722.826222676795	4
2	3577	723.859462142654	3
2	3581	724.33613540608	4
2	3582	724.980489314731	3
2	3586	725.003558974958	4
2	3587	726.159161636337	3
2	3591	726.672549078847	4
2	3592	727.344073862779	3
2	3596	727.948715316801	4
2	3597	728.312201384372	3
2	3600	729.150559914867	2
2	3603	730.095635684683	1
2	3606	730.94745286136	0
2	3615	732.74811652107	1
2	3616	733.03713017908	0
2	3625	734.280286333672	1
2	3626	734.970234652991	0
2	3633	736.14425794357	1
2	3635	736.406387513397	2
2	3636	736.708648590287	1
2	3639	737.590251353858	0
2	3643	738.491782474424	1
2	3644	738.612929552337	0
2	3665	743.948126446725	1
2	3666	744.856620447625	0
2	3678	747.230332752752	1
2	3683	747.855816232141	0
2	3690	748.777351575238	1
2	3692	748.854657894012	2
2	3695	749.845412559069	1
2	3700	750.823646053306	0
2	3707	752.179769364381	1
2	3712	752.912432659145	0
2	3716	753.230902210526	1
2	3719	754.020417870868	0
2	3723	754.222975504653	1
2	3724	754.935461776152	0
2	3728	755.256883346455	1
2	3730	755.891270258255	2
2	3731	756.070279165365	1
2	3734	756.896259901401	0
2	3738	756.914227806516	1
2	3739	757.956674616512	0
2	3743	758.23073390822	1
2	3744	759.051169628564	0
2	3748	759.272378405245	1
2	3749	760.129449626811	0
2	3756	761.686114672695	1
2	3758	761.714188819009	2
2	3759	762.191022314139	1
2	3762	763.16604348366	0
2	3766	763.63355427773	1
2	3771	764.268556056459	0
2	3781	766.564844002892	1
2	3786	767.262759954956	0
2	3790	767.304262825448	1
2	3791	768.228101180129	0
2	3795	768.550286209537	1
2	3796	769.3696430442	0
2	3800	769.421790918497	1
2	3803	770.567048453361	0
2	3807	770.833307548216	1
2	3808	771.598988001149	0
2	3812	771.62857951241	1
2	3813	772.701870158229	0
2	3823	774.888354011831	1
2	3824	775.540648694157	0
2	3828	775.731822421273	1
2	3831	776.648385587993	0
2	3835	777.162378047687	1
2	3836	777.485877190257	0
2	3840	778.085918399172	1
2	3841	778.446594763181	0
2	3850	780.172269137681	1
2	3851	780.610307835701	0
2	3899	790.466626551634	1
2	3901	791.040957368141	2
2	3902	791.350112929666	1
2	3905	792.214330888731	0
2	3909	792.268531837759	1
2	3910	793.159743296919	0
2	3919	794.549709642735	1
2	3922	795.138409129349	0
2	3933	796.826905969013	1
2	3934	797.300297450745	0
2	3938	797.865371460415	1
2	3939	798.339457319403	0
2	3945	799.023151039003	1
2	3946	799.301341301022	0
2	3950	799.309051100397	1
2	3951	800.374398488743	0
2	3955	800.624820149594	1
2	3957	800.648854254552	2
2	3958	801.18282691483	1
2	3962	801.772864569922	2
2	3963	802.117038654076	1
2	3968	803.23561040769	0
2	3972	803.340786233112	1
2	3973	804.045780536352	0
2	3977	804.212264833009	1
2	3978	804.885425966705	0
2	3988	806.990603914926	1
2	3989	807.799736034504	0
2	4000	808.991415054803	1
2	4002	809.0261450282	2
2	4003	809.732483554638	1
2	4008	810.931398779347	0
2	4014	811.634553146597	1
2	4015	811.869388462983	0
2	4022	812.977775892328	1
2	4023	813.809504126485	0
2	4032	815.098859245649	1
2	4033	815.764401997539	0
2	4040	817.224536037481	1
2	4042	817.261683603051	2
2	4043	817.900219870923	1
2	4050	818.850499132095	0
2	4054	818.899889499033	1
2	4056	818.942579077666	2
2	4057	820.012247031467	1
2	4060	820.889164772076	0
2	4113	831.760516307502	1
2	4114	832.601723540579	0
2	4243	861.459143265998	1
2	4246	862.073423289232	0
2	4264	864.826807190302	1
2	4265	865.136896942932	0
2	4269	865.437254098449	1
2	4271	866.078227868965	2
2	4276	866.28450458283	1
2	4280	867.101139509634	2
2	4281	867.260678431396	1
2	4284	868.064556679413	0
2	4294	868.77346889184	1
2	4297	869.123429596056	0
2	4306	870.139260531391	1
2	4308	870.353084370285	2
2	4310	870.572401496373	3
2	4313	871.220518823531	2
2	4317	872.256995604439	3
2	4318	872.419484007363	2
2	4324	873.007253403691	3
2	4325	873.250511621502	2
2	4329	873.278700053654	3
2	4330	874.242571015474	2
2	4334	874.451081888666	3
2	4336	874.864988596626	4
2	4337	875.353308032457	3
2	4340	876.434282346912	2
2	4344	876.987892665011	3
2	4345	877.275318875913	2
2	4350	878.188903582845	1
2	4354	878.468472723441	2
2	4355	879.011914575663	1
2	4361	879.242298153372	2
2	4362	880.152435257011	1
2	4366	880.44950086513	2
2	4367	881.073852912621	1
2	4370	881.906957706348	0
2	4377	883.07817941999	1
2	4379	883.315751918836	2
2	4381	883.379729274191	3
2	4382	883.986199725237	2
2	4385	885.060537788276	1
2	4391	885.829821451893	2
2	4393	886.035399293594	3
2	4394	886.108077055034	2
2	4398	886.664908994561	3
2	4399	887.27989448356	2
2	4403	887.679106386065	3
2	4405	888.087817054372	4
2	4406	888.316955323615	3
2	4412	888.760760639911	4
2	4413	889.132962559448	3
2	4417	889.300264420897	4
2	4418	890.257762168632	3
2	4421	891.284997107838	2
2	4425	891.337713737179	3
2	4426	892.249253052943	2
2	4429	893.150096127488	1
2	4433	893.524225233736	2
2	4434	894.10307282601	1
2	4438	894.193355122339	2
2	4439	894.931847546906	1
2	4443	895.084101341288	2
2	4445	895.299624734663	3
2	4446	896.016666926821	2
2	4450	896.73120610576	3
2	4451	897.014643392158	2
2	4455	897.055068231232	3
2	4456	898.015809945674	2
2	4460	898.197350959223	3
2	4461	898.883617704553	2
2	4466	899.793937053071	1
2	4470	899.994968268592	2
2	4471	900.741142565483	1
2	4475	901.192735358487	2
2	4476	901.662231524946	1
2	4480	902.492913928976	2
2	4481	902.747342689341	1
2	4485	903.22462500474	2
2	4486	903.759988789639	1
2	4490	903.889329849113	2
2	4492	904.059014387755	3
2	4494	904.492427607424	4
2	4495	904.576624031464	3
2	4499	904.746922425986	4
2	4500	905.650645157049	3
2	4504	906.488611614517	4
2	4505	906.758371191571	3
2	4508	907.60370129422	2
2	4513	908.796429540782	1
2	4516	909.688707643847	0
2	4520	910.122886254056	1
2	4521	910.707573910343	0
2	4525	910.728893008809	1
2	4527	910.789390514731	2
2	4529	910.79741128639	3
2	4530	911.836813078734	2
2	4534	911.955369978688	3
2	4535	913.013708812098	2
2	4539	913.080973578867	3
2	4540	914.122019074864	2
2	4545	915.100387336786	1
2	4548	915.918749183702	0
2	4552	915.919251333381	1
2	4554	916.394405719726	2
2	4556	916.418954553054	3
2	4557	916.731318171142	2
2	4561	917.058454204852	3
2	4562	917.561215043633	2
2	4566	917.828739978699	3
2	4567	918.509220264765	2
2	4570	919.634723672463	1
2	4574	920.535473024621	2
2	4575	920.634402890975	1
2	4578	921.769130353356	0
2	4585	923.002293178286	1
2	4587	923.281135778069	2
2	4588	923.867213410797	1
2	4593	924.958498412097	0
2	4597	925.150249864514	1
2	4598	925.963099362055	0
2	4607	927.455939204826	1
2	4609	927.768672570592	2
2	4610	927.991144834372	1
2	4613	928.976222812204	0
2	4620	930.083116937997	1
2	4621	930.804137057444	0
2	4627	931.075782910989	1
2	4630	931.855404534569	0
2	4634	932.278826896039	1
2	4635	932.957078204123	0
2	4639	932.977677377798	1
2	4640	934.035962991794	0
2	4649	935.77301948753	1
2	4650	936.222649195423	0
2	4654	936.392864015903	1
2	4656	936.590537913488	2
2	4657	937.321905787574	1
2	4660	938.423601240856	0
2	4664	938.872665224693	1
2	4666	938.887459484348	2
2	4667	939.529704697063	1
2	4671	940.482043421702	2
2	4672	940.622260912141	1
2	4675	941.547151776688	0
2	4684	943.517393207444	1
2	4685	943.538643168664	0
2	4689	944.30581145838	1
2	4691	944.414554291377	2
2	4692	944.51901534787	1
2	4696	944.591658383729	2
2	4698	944.608921183889	3
2	4702	944.96898529771	4
2	4703	945.663212619727	3
2	4706	946.556332246778	2
2	4710	947.21673339494	3
2	4711	947.740818980621	2
2	4715	947.758743184463	3
2	4717	947.769991029504	4
2	4718	948.890479308372	3
2	4722	949.304903864668	4
2	4723	950.067260547733	3
2	4727	950.139659401195	4
2	4729	950.681891426806	5
2	4730	951.02919863789	4
2	4734	951.932901829529	5
2	4735	952.049542184087	4
2	4739	952.082727899879	5
2	4740	952.985222690652	4
2	4744	953.984505690379	5
2	4745	954.086377548805	4
2	4749	954.863820064889	5
2	4751	955.081080782821	6
2	4752	955.174915189861	5
2	4756	955.859906468855	6
2	4758	955.932698661056	7
2	4759	956.000193286973	6
2	4764	956.830126091286	5
2	4768	956.922907609268	6
2	4769	957.789489749547	5
2	4773	958.931538453647	6
2	4774	958.948876854692	5
2	4778	959.570112815598	6
2	4779	959.802572153423	5
2	4783	959.850547448371	6
2	4784	960.83119316344	5
2	4787	961.769204734274	4
2	4791	961.823590613374	5
2	4793	961.89023960807	6
2	4794	962.604170858216	5
2	4797	963.781795828984	4
2	4800	964.866394302443	3
2	4804	965.082428827841	4
2	4806	965.217666090473	5
2	4808	965.451809507279	6
2	4809	965.809923867144	5
2	4813	966.013918667091	6
2	4815	966.129005123764	7
2	4817	966.230073288041	8
2	4818	966.872237548519	7
2	4822	967.136036052115	8
2	4823	968.034895152699	7
2	4826	969.063491426509	6
2	4830	969.232347700699	7
2	4832	969.278899692475	8
2	4834	969.554582340845	9
2	4835	970.075301944193	8
2	4839	970.721404940864	9
2	4840	970.911907071628	8
2	4843	971.834285558582	7
2	4846	972.972434926227	6
2	4851	974.132335108619	5
2	4856	975.220165222704	4
2	4860	975.277145341894	5
2	4862	975.549060903053	6
2	4863	976.170726586699	5
2	4867	976.289889413286	6
2	4868	977.021154158849	5
2	4872	977.742151506477	6
2	4873	978.05537306071	5
2	4877	978.660063719065	6
2	4878	979.120180398512	5
2	4882	979.197927487897	6
2	4883	980.026644917584	5
2	4886	981.059198616265	4
2	4890	981.5473303247	5
2	4891	981.860874072003	4
2	4895	982.154519928401	5
2	4897	982.329429598608	6
2	4898	983.00103959954	5
2	4901	984.169911204191	4
2	4905	984.570635592457	5
2	4906	985.251726311917	4
2	4910	985.822935422622	5
2	4911	986.445397505543	4
2	4915	986.64152310864	5
2	4916	987.377802274103	4
2	4919	988.416809999763	3
2	4922	989.281975107553	2
2	4926	989.731158397293	3
2	4927	990.088116537693	2
2	4930	991.268979962549	1
2	4933	992.466954317882	0
2	4940	994.231675558611	1
2	4941	994.282752186626	0
2	4945	994.639328644623	1
2	4946	995.2775954553	0
2	4950	995.621946648016	1
2	4951	996.318471705642	0
2	4957	996.536427319213	1
2	4959	996.610330231759	2
2	4960	997.428458003335	1
2	4963	998.474390051801	0
2	4970	999.454929736579	1
2	4971	1000.394332235128	0
2	4978	1002.117250350707	1
2	4979	1002.524856657636	0
2	4985	1003.200347901052	1
2	4986	1003.528338011828	0
2	4993	1005.053688499116	1
2	4995	1005.120749002896	2
2	4998	1005.573017662399	1
2	5002	1006.056329444207	2
2	5008	1006.426790533708	3
2	5009	1006.713579451673	2
2	5012	1007.609076448445	1
2	5015	1008.625198103216	0
2	5022	1009.910580375974	1
2	5024	1010.737719927553	2
2	5025	1010.896412125145	1
2	5028	1011.850421029431	0
2	5032	1011.933006157696	1
2	5034	1012.26437559696	2
2	5038	1012.605146099926	3
2	5039	1012.919845048999	2
2	5043	1012.982942113009	3
2	5045	1013.064242364303	4
2	5046	1013.956138417786	3
2	5049	1014.916398918545	2
2	5052	1016.00886075032	1
2	5057	1017.017382751601	0
2	5061	1017.55845328347	1
2	5063	1017.867866414634	2
2	5065	1017.899265433733	3
2	5066	1017.998003091393	2
2	5069	1019.088157514026	1
2	5072	1020.115070873974	0
2	5084	1022.24164384929	1
2	5086	1023.077174001961	2
2	5087	1023.159235030981	1
2	5091	1023.330838898677	2
2	5093	1023.416923058005	3
2	5094	1024.006711551184	2
2	5099	1025.126292026891	1
2	5103	1025.236876913293	2
2	5106	1026.108135300046	1
2	5110	1026.233480175044	2
2	5112	1026.584003213011	3
2	5114	1026.75359724853	4
2	5115	1026.997229836984	3
2	5119	1027.308742764487	4
2	5121	1027.422468186368	5
2	5123	1027.971673024207	6
2	5124	1028.057129237531	5
2	5128	1028.506222615264	6
2	5130	1028.65372984351	7
2	5131	1028.936546540736	6
2	5135	1028.955934762884	7
2	5136	1029.983047096814	6
2	5139	1031.069591644323	5
2	5143	1031.0724816091	6
2	5144	1032.14234172321	5
2	5148	1032.807664264615	6
2	5149	1033.084681145671	5
2	5152	1033.99861049886	4
2	5156	1034.057907854691	5
2	5158	1034.249564221087	6
2	5159	1035.037227716401	5
2	5163	1036.034969315921	6
2	5164	1036.183331772789	5
2	5167	1037.375141548935	4
2	5170	1038.348708033573	3
2	5174	1038.34980481297	4
2	5176	1038.813306365667	5
2	5178	1039.194739682855	6
2	5179	1039.341185506817	5
2	5182	1040.434165930666	4
2	5185	1041.347752067178	3
2	5189	1041.717334222355	4
2	5190	1042.218181134212	3
2	5194	1042.517492002257	4
2	5196	1042.668423416605	5
2	5197	1043.216551174048	4
2	5200	1044.200257707771	3
2	5203	1045.137620819278	2
2	5206	1046.035946798615	1
2	5210	1046.884632803278	2
2	5211	1046.907328673463	1
2	5214	1047.743706889275	0
2	5224	1050.192087729713	1
2	5225	1051.106993773497	0
2	5229	1051.198366094861	1
2	5231	1052.291486523312	2
2	5232	1052.304416219808	1
2	5236	1052.808338971803	2
2	5238	1052.924028966303	3
2	5239	1053.251079183269	2
2	5244	1054.075908883299	1
2	5250	1054.631043749771	2
2	5251	1054.929608951147	1
2	5254	1055.935148501127	0
2	5258	1056.537035088101	1
2	5259	1057.129896704025	0
2	5263	1057.634198268719	1
2	5264	1058.177758636057	0
2	5271	1059.152323884211	1
2	5272	1059.955291841283	0
2	5276	1060.153571361412	1
2	5281	1060.849655121296	0
2	5285	1060.899657462316	1
2	5288	1061.96740629851	0
2	5292	1062.03356392253	1
2	5293	1062.997623948577	0
2	5297	1064.023106857355	1
2	5298	1064.151619218487	0
2	5305	1065.755359822489	1
2	5307	1066.014770724366	2
2	5308	1066.198671609081	1
2	5312	1066.416976699569	2
2	5315	1067.072005937818	1
2	5318	1068.174189841944	0
2	5322	1068.572955654765	1
2	5323	1069.155023578285	0
2	5330	1070.450408903562	1
2	5331	1071.298878272633	0
2	5406	1086.933631509417	1
2	5407	1087.12496955973	0
2	5423	1089.713315729464	1
2	5424	1090.259238159666	0
2	5482	1102.442322636456	1
2	5483	1102.96669725693	0
2	5510	1109.179143395075	1
2	5511	1109.571742968179	0
2	5520	1110.841642042552	1
2	5521	1111.621172343577	0
2	5528	1112.832978204379	1
2	5529	1113.556035499378	0
2	5536	1115.124416336974	1
2	5537	1115.423920144431	0
2	5541	1115.643927570597	1
2	5544	1116.339602966059	0
2	5580	1125.20714651253	1
2	5581	1125.629385044528	0
2	5590	1127.571539204978	1
2	5591	1127.832417149944	0
2	5608	1130.975981356022	1
2	5609	1131.813621165612	0
2	5633	1136.49467851635	1
2	5634	1136.572256830343	0
2	5645	1138.804204978041	1
2	5646	1138.826093802702	0
2	5658	1141.114752904194	1
2	5661	1141.905919072505	0
2	5680	1144.94009398636	1
2	5682	1145.244613252212	2
2	5683	1145.91244960456	1
2	5686	1146.91903011008	0
2	5690	1147.240295526418	1
2	5691	1147.775036402893	0
2	5702	1149.03979494684	1
2	5704	1149.537079386753	2
2	5705	1149.844845844255	1
2	5708	1150.918061335021	0
2	5718	1153.093003890157	1
2	5721	1154.089327707244	0
2	5754	1162.046708458185	1
2	5757	1162.788631907953	0
2	5766	1164.026684520104	1
2	5767	1165.014803534942	0
2	5774	1166.142258513246	1
2	5777	1166.922502892102	0
2	5790	1168.518006150172	1
2	5791	1168.67736954392	0
2	5802	1169.850318650866	1
2	5803	1170.465811470626	0
2	5815	1172.894220562202	1
2	5816	1173.537340186918	0
2	5820	1173.578712964221	1
2	5823	1174.393203739645	0
2	5827	1174.529652891227	1
2	5828	1175.42266952564	0
2	5842	1177.94693975809	1
2	5843	1178.357746867194	0
2	5860	1182.117112158199	1
2	5863	1182.404832988709	0
2	5870	1183.556920325226	1
2	5873	1184.484324997023	0
2	5877	1184.636336335994	1
2	5879	1185.079013013656	2
2	5880	1185.379357320361	1
2	5883	1186.436055846337	0
2	5887	1186.532236859743	1
2	5889	1186.652091348061	2
2	5890	1187.316551157843	1
2	5896	1188.264989451001	2
2	5897	1188.291749721031	1
2	5901	1188.356347515529	2
2	5904	1189.442910497274	1
2	5907	1190.522327691421	0
2	5914	1192.053491495843	1
2	5915	1192.591055906109	0
2	5919	1193.482501599148	1
2	5920	1193.684958549413	0
2	5924	1193.901977150681	1
2	5927	1194.5068116475	0
2	5931	1194.667285483896	1
2	5932	1195.68560993123	0
2	5942	1197.942191417844	1
2	5945	1199.014792844663	0
2	5954	1200.278394906197	1
2	5955	1201.351690342566	0
2	5964	1203.201608872738	1
2	5965	1203.303791779941	0
2	5972	1204.45398983637	1
2	5974	1204.569632946588	2
2	5977	1205.245871849833	1
2	5982	1206.281396046663	0
2	5988	1207.3974189551	1
2	5989	1207.468544766689	0
2	5996	1209.217510090174	1
2	5997	1209.536778135886	0
2	6001	1209.57025397029	1
2	6002	1210.47903545537	0
2	6006	1210.627077984866	1
2	6007	1211.280432196809	0
2	6011	1211.866985468809	1
2	6012	1212.129026743779	0
2	6019	1213.377316217196	1
2	6021	1213.380551705502	2
2	6022	1214.163300689971	1
2	6027	1215.087931389464	0
2	6031	1215.678278323431	1
2	6034	1216.128523192378	0
2	6038	1216.539356129987	1
2	6039	1217.001460925965	0
2	6043	1217.439768768943	1
2	6044	1218.159401240768	0
2	6048	1218.453451729812	1
2	6049	1219.312300114622	0
2	6053	1220.039366949877	1
2	6054	1220.250423557507	0
2	6066	1223.060198144305	1
2	6069	1223.292931360482	0
2	6121	1234.376459883399	1
2	6124	1234.875669389228	0
2	6130	1235.392019559411	1
2	6131	1235.940352893258	0
2	6135	1236.716759367274	1
2	6136	1236.826404085113	0
2	6146	1239.236000284303	1
2	6147	1239.805388829588	0
2	6156	1241.696050776659	1
2	6157	1241.942211862478	0
2	6279	1268.366006748947	1
2	6280	1268.552899221901	0
2	6293	1270.350926782103	1
2	6296	1270.878349961165	0
2	6315	1274.506929640256	1
2	6316	1274.85455005915	0
2	6328	1276.966199653856	1
2	6329	1277.642658285714	0
2	6363	1283.753948541523	1
2	6364	1284.624842115503	0
2	6371	1285.846108310758	1
2	6376	1286.708769586973	0
2	6383	1287.611796851148	1
2	6386	1288.65626779712	0
2	6395	1289.876051475572	1
2	6396	1290.673179145169	0
2	6405	1291.683141176542	1
2	6406	1292.486303093389	0
2	6415	1294.124675942807	1
2	6416	1294.564606169437	0
2	6425	1296.362632394931	1
2	6426	1296.513455286169	0
2	6433	1297.779967369413	1
2	6434	1298.553887855368	0
2	6441	1299.876827086539	1
2	6442	1300.557681011608	0
2	6449	1302.265686183775	1
2	6450	1302.652169448709	0
2	6469	1305.844815334521	1
2	6472	1306.588123315586	0
2	6476	1306.849378650496	1
2	6477	1307.699398622023	0
2	6484	1308.66989094446	1
2	6485	1309.466341987638	0
2	6489	1310.073250815882	1
2	6492	1310.397112718797	0
2	6499	1311.63226850559	1
2	6503	1312.316621464564	2
2	6505	1312.554256346296	3
2	6506	1312.654054432935	2
2	6511	1313.650647388319	1
2	6514	1314.703499547685	0
2	6518	1314.846931804847	1
2	6520	1315.278458050851	2
2	6521	1315.705422112825	1
2	6524	1316.904487932021	0
2	6530	1317.568289001794	1
2	6531	1317.743291880856	0
2	6538	1318.842651598394	1
2	6543	1319.556535886521	0
2	6552	1320.539258000246	1
2	6554	1320.548770007887	2
2	6556	1320.647636096204	3
2	6558	1321.043413833077	4
2	6560	1321.341052421898	5
2	6561	1321.449754095836	4
2	6564	1322.630023570372	3
2	6569	1323.496344368452	2
2	6573	1323.535948017584	3
2	6574	1324.368346163085	2
2	6578	1324.535229411699	3
2	6579	1325.203395124631	2
2	6582	1326.025119869051	1
2	6585	1326.833520017297	0
2	6589	1326.93340186275	1
2	6590	1327.694500405726	0
2	6594	1328.045333249901	1
2	6596	1328.139085885524	2
2	6597	1328.881460151461	1
2	6600	1329.683478106291	0
2	6604	1329.81624150598	1
2	6606	1330.247280455864	2
2	6608	1330.30178590421	3
2	6609	1330.559847442259	2
2	6613	1330.943052960832	3
2	6615	1331.146178073715	4
2	6616	1331.583010078699	3
2	6620	1332.241873455458	4
2	6621	1332.670956474554	3
2	6625	1333.673360985384	4
2	6626	1333.689208201889	3
2	6630	1333.94338135399	4
2	6631	1334.887594734609	3
2	6635	1335.776946928576	4
2	6636	1335.993986176245	3
2	6640	1336.705012472608	4
2	6641	1337.120793884911	3
2	6645	1337.757314631538	4
2	6646	1337.934313199308	3
2	6650	1338.150397086896	4
2	6651	1338.738679336488	3
2	6655	1339.001527122329	4
2	6656	1339.595224712707	3
2	6659	1340.559982913744	2
2	6662	1341.536577015847	1
2	6666	1342.05413086982	2
2	6667	1342.631024329748	1
2	6671	1342.97921983843	2
2	6673	1343.447853953544	3
2	6674	1343.517549475107	2
2	6677	1344.599914416682	1
2	6681	1344.602559957654	2
2	6683	1344.651147526538	3
2	6685	1344.727109405701	4
2	6687	1345.051537347554	5
2	6688	1345.590915261313	4
2	6691	1346.41835750417	3
2	6694	1347.519980125885	2
2	6698	1347.698668735997	3
2	6700	1348.245923661965	4
2	6701	1348.64454266607	3
2	6704	1349.778740280878	2
2	6708	1350.533037184158	3
2	6709	1350.669035898999	2
2	6715	1351.442145728753	3
2	6716	1351.599764430628	2
2	6720	1351.621882915478	3
2	6721	1352.749202501227	2
2	6725	1353.068471115802	3
2	6726	1353.662966661819	2
2	6730	1354.159910783873	3
2	6732	1354.235546872069	4
2	6736	1354.363377691568	5
2	6737	1354.565454584838	4
2	6741	1354.965802094615	5
2	6742	1355.490601811011	4
2	6746	1355.725374200804	5
2	6748	1355.770602748004	6
2	6749	1356.509325145756	5
2	6753	1356.582234045053	6
2	6754	1357.368926247222	5
2	6757	1358.531935400622	4
2	6761	1359.243579173373	5
2	6762	1359.340012597306	4
2	6765	1360.419383151843	3
2	6769	1360.760799614595	4
2	6772	1361.36793322341	3
2	6775	1362.299376867259	2
2	6780	1363.279897504406	1
2	6784	1364.124944498266	2
2	6785	1364.20015587035	1
2	6788	1365.243249343721	0
2	6803	1368.965474012522	1
2	6804	1369.089944588219	0
2	6810	1369.936521035261	1
2	6813	1370.057029210323	0
2	6817	1370.187995358199	1
2	6819	1370.818986853264	2
2	6820	1370.882728449361	1
2	6824	1371.453252958363	2
2	6825	1372.025738724334	1
2	6829	1372.229740235101	2
2	6830	1373.208230519028	1
2	6834	1373.477010517768	2
2	6835	1374.245639421245	1
2	6839	1375.21861226594	2
2	6840	1375.234088614968	1
2	6843	1376.062986266812	0
2	6847	1376.673085775063	1
2	6848	1376.895759311797	0
2	6852	1377.941490600148	1
2	6853	1378.091485537229	0
2	6860	1379.222632936551	1
2	6862	1379.247804477048	2
2	6864	1379.589485587951	3
2	6866	1379.732217211072	4
2	6867	1380.150315246651	3
2	6873	1380.992380922813	4
2	6874	1381.111104911113	3
2	6878	1382.097585476946	4
2	6879	1382.284947508307	3
2	6884	1383.443865939801	2
2	6888	1384.06020708694	3
2	6889	1384.628612987803	2
2	6893	1384.785751578517	3
2	6894	1385.462749244844	2
2	6897	1386.282892899321	1
2	6901	1386.93010357195	2
2	6902	1387.10000489523	1
2	6906	1388.07549873708	2
2	6907	1388.163909934008	1
2	6911	1388.688464618158	2
2	6912	1389.038033099113	1
2	6915	1389.868241867995	0
2	6919	1390.354139859517	1
2	6920	1391.036229833974	0
2	6929	1393.029095892307	1
2	6930	1393.03307732075	0
2	6938	1393.710642826292	1
2	6940	1393.73829824608	2
2	6941	1393.932632145765	1
2	6945	1394.89766956729	2
2	6946	1394.983115132167	1
2	6950	1395.810777180731	2
2	6952	1395.963123668033	3
2	6953	1396.139799196287	2
2	6956	1397.278026154838	1
2	6959	1398.171114318367	0
2	6972	1401.165069447184	1
2	6976	1401.824911300378	2
2	6978	1401.987428158945	3
2	6979	1402.060626640092	2
2	6983	1402.553638879651	3
2	6985	1402.866304875461	4
2	6987	1403.010312396658	5
2	6988	1403.076212761193	4
2	6996	1403.764636807152	5
2	6997	1404.164078361276	4
2	7001	1404.218346831902	5
2	7002	1405.03596893597	4
2	7006	1405.232088229102	5
2	7007	1405.840937027164	4
2	7011	1406.634034300564	5
2	7013	1406.939204777075	6
2	7014	1406.994823038034	5
2	7020	1407.352309797445	6
2	7021	1407.81452100623	5
2	7025	1408.705173643821	6
2	7026	1408.816735241204	5
2	7030	1409.242869250791	6
2	7031	1409.636050103433	5
2	7035	1410.399716504563	6
2	7036	1410.49693771686	5
2	7039	1411.457606377002	4
2	7043	1411.492476463408	5
2	7045	1411.725529782477	6
2	7046	1412.356770739906	5
2	7050	1412.931441149035	6
2	7051	1413.365669941918	5
2	7055	1413.36733257206	6
2	7056	1414.51733680872	5
2	7060	1414.628396775035	6
2	7061	1415.597611391002	5
2	7064	1416.755886743793	4
2	7068	1417.295160988614	5
2	7069	1417.684580473805	4
2	7073	1417.882163820853	5
2	7075	1418.676612725074	6
2	7076	1418.876856298855	5
2	7079	1419.982692345621	4
2	7082	1421.098114338813	3
2	7085	1422.065122714096	2
2	7088	1422.935406113339	1
2	7092	1423.688476955829	2
2	7093	1423.913153693934	1
2	7096	1424.880525789146	0
2	7100	1424.968157794977	1
2	7102	1425.049084337446	2
2	7107	1425.884935888105	1
2	7111	1426.144049275352	2
2	7112	1426.723760780149	1
2	7116	1427.29416509338	2
2	7117	1427.881313311511	1
2	7121	1428.57280320361	2
2	7122	1428.980225254705	1
2	7126	1429.553611038763	2
2	7128	1429.739936257568	3
2	7129	1430.065744669193	2
2	7133	1430.379480598332	3
2	7135	1431.141635296099	4
2	7136	1431.211059898434	3
2	7140	1431.782696424173	4
2	7141	1432.165675821172	3
2	7145	1432.313686306524	4
2	7146	1433.047066716773	3
2	7150	1433.648224910127	4
2	7151	1433.942392979765	3
2	7155	1434.765216790997	4
2	7156	1435.107081765325	3
2	7160	1435.238099931719	4
2	7161	1436.10123868847	3
2	7165	1436.30056092636	4
2	7168	1437.080834649054	3
2	7172	1437.563711763261	4
2	7173	1438.260168009361	3
2	7177	1438.392572913412	4
2	7178	1439.423491035791	3
2	7181	1440.456311638297	2
2	7184	1441.599250000359	1
2	7187	1442.698556199127	0
2	7191	1443.058511503455	1
2	7193	1443.220531424074	2
2	7195	1443.386134556515	3
2	7197	1443.621758650893	4
2	7198	1443.645393021793	3
2	7202	1443.848358211638	4
2	7203	1444.453231152535	3
2	7206	1445.324533977841	2
2	7210	1445.540645687549	3
2	7211	1446.404493977052	2
2	7215	1447.084082707505	3
2	7216	1447.279103084297	2
2	7220	1447.387353060523	3
2	7221	1448.123217271843	2
2	7225	1448.483342040528	3
2	7227	1448.557544691503	4
2	7228	1449.319147903674	3
2	7232	1450.246739667004	4
2	7233	1450.289796354637	3
2	7236	1451.15476671999	2
2	7240	1451.188717703852	3
2	7242	1451.2436720004	4
2	7243	1451.964650462211	3
2	7247	1452.344835000044	4
2	7249	1452.54886638353	5
2	7251	1452.890221693	6
2	7252	1452.94965558482	5
2	7255	1453.894161768739	4
2	7259	1454.060473193365	5
2	7260	1454.74637717569	4
2	7264	1454.85191998233	5
2	7266	1455.336180168645	6
2	7267	1455.648296001663	5
2	7271	1455.777662803695	6
2	7272	1456.493792133329	5
2	7276	1456.784537769615	6
2	7277	1457.346664200739	5
2	7280	1458.476025881634	4
2	7284	1458.623488490607	5
2	7285	1459.496481425331	4
2	7289	1459.815076979518	5
2	7291	1460.308226680184	6
2	7292	1460.447524702099	5
2	7296	1461.400102069227	6
2	7297	1461.59794984955	5
2	7301	1461.818954074664	6
2	7302	1462.772359965384	5
2	7305	1463.725467882134	4
2	7309	1463.836042405726	5
2	7310	1464.859605761819	4
2	7313	1465.874650641267	3
2	7317	1466.116317934557	4
2	7318	1466.888803379998	3
2	7322	1467.309322015063	4
2	7323	1468.005973060165	3
2	7327	1468.262431516109	4
2	7328	1469.09842948673	3
2	7332	1469.325013473326	4
2	7334	1469.661128054371	5
2	7335	1469.930830877476	4
2	7339	1470.750308519158	5
2	7340	1470.758695266039	4
2	7344	1471.439125545801	5
2	7345	1471.622859117591	4
2	7349	1471.767699775471	5
2	7350	1472.696881708891	4
2	7354	1473.016327782145	5
2	7355	1473.60251564711	4
2	7358	1474.513598814343	3
2	7363	1475.610151220036	2
2	7366	1476.586753867583	1
2	7369	1477.726786402164	0
2	7376	1478.810171291677	1
2	7378	1479.576861617382	2
2	7379	1479.728099294768	1
2	7383	1479.772693042863	2
2	7384	1480.859395461452	1
2	7388	1480.882870920011	2
2	7389	1481.915473739818	1
2	7394	1482.886498690319	0
2	7398	1483.506653148603	1
2	7400	1483.752787116127	2
2	7401	1484.008875290599	1
2	7405	1484.075804607082	2
2	7406	1484.957821516335	1
2	7410	1485.023736029033	2
2	7411	1485.887073063958	1
2	7415	1486.149904362502	2
2	7416	1486.958925216194	1
2	7420	1487.416153387467	2
2	7421	1487.902621322512	1
2	7425	1488.267969761351	2
2	7426	1489.051860700469	1
2	7430	1490.184595696121	2
2	7431	1490.213571784008	1
2	7435	1490.556847279844	2
2	7436	1491.097507541548	1
2	7440	1491.960725979278	2
2	7441	1492.00004196215	1
2	7445	1492.473158372599	2
2	7446	1493.113074741248	1
2	7450	1494.106530525328	2
2	7451	1494.231680181637	1
2	7455	1494.730971093869	2
2	7456	1495.388065058287	1
2	7459	1496.397874028157	0
2	7463	1496.75257919446	1
2	7464	1497.258412509333	0
2	7476	1499.975727063367	1
2	7477	1500.361432585601	0
2	7481	1500.508031137012	1
2	7486	1501.501669067439	0
2	7490	1501.544765891918	1
2	7491	1502.385119458117	0
2	7501	1504.806257311162	1
2	7503	1505.014028390244	2
2	7504	1505.343222615138	1
2	7507	1506.30811537515	0
2	7526	1509.230500837478	1
2	7528	1509.613836737514	2
2	7529	1509.644966508835	1
2	7536	1510.682671214375	0
2	7546	1512.751036371428	1
2	7547	1513.74460921885	0
2	7567	1518.148748421254	1
2	7569	1518.508825597316	2
2	7572	1518.598114541745	1
2	7577	1519.760346690113	0
2	7581	1520.135515623327	1
2	7582	1520.912032860251	0
2	7591	1522.181359446199	1
2	7593	1522.207022378806	2
2	7594	1523.019516157837	1
2	7599	1524.075582190243	0
2	7603	1524.153689102638	1
2	7605	1524.968158867828	2
2	7606	1525.151010298741	1
2	7610	1525.328821347346	2
2	7613	1526.190486387362	1
2	7617	1526.970013704094	2
2	7618	1527.364174456814	1
2	7622	1527.770151977034	2
2	7623	1528.196719735874	1
2	7626	1529.157339362161	0
2	7630	1529.898311717747	1
2	7631	1530.085347497476	0
2	7635	1530.385308853658	1
2	7636	1530.885820498237	0
2	7645	1532.629036997773	1
2	7646	1533.014322925371	0
2	7655	1534.46507515131	1
2	7656	1535.006349972089	0
2	7670	1537.370832936205	1
2	7671	1537.736846524303	0
2	7682	1539.404924280437	1
2	7684	1539.705228350147	2
2	7685	1539.917136840255	1
2	7688	1541.020537879982	0
2	7695	1542.591463360823	1
2	7697	1542.758468933858	2
2	7698	1542.95217493457	1
2	7701	1543.817344477784	0
2	7708	1545.249228362991	1
2	7709	1545.760780642007	0
2	7720	1546.946770392086	1
2	7724	1547.572943417774	2
2	7725	1547.753243437049	1
2	7730	1548.923774798692	0
2	7734	1549.036868302316	1
2	7736	1549.630883187852	2
2	7737	1550.113333331805	1
2	7741	1550.776435758663	2
2	7743	1551.011192809903	3
2	7744	1551.304263790243	2
2	7747	1552.23439050644	1
2	7750	1553.221984317818	0
2	7759	1554.43212397953	1
2	7761	1554.806313990618	2
2	7762	1555.13476435264	1
2	7765	1556.230659148855	0
2	7769	1556.533562224444	1
2	7770	1557.238232094249	0
2	7780	1559.307266655791	1
2	7784	1559.799512933822	2
2	7785	1560.116885251379	1
2	7788	1561.154404119788	0
2	7792	1561.22399178082	1
2	7793	1562.107323535079	0
2	7797	1562.251252861874	1
2	7798	1562.961693495804	0
2	7825	1568.371410081277	1
2	7826	1568.938487056841	0
2	7870	1577.993274042133	1
2	7871	1578.013006237998	0
2	7878	1578.956844986868	1
2	7881	1579.997386611636	0
2	7887	1581.028320497988	1
2	7888	1581.100239436339	0
2	7892	1581.442149541753	1
2	7893	1581.983435683894	0
2	7907	1584.176890346979	1
2	7911	1584.794496163479	2
2	7915	1585.040883028929	3
2	7916	1585.282422813225	2
2	7919	1586.295836104929	1
2	7923	1587.061106678549	2
2	7926	1587.171234835509	1
2	7931	1588.129967266798	0
2	7935	1588.273865749854	1
2	7937	1589.176882532437	2
2	7938	1589.187616430514	1
2	7942	1589.547513123257	2
2	7944	1589.864870530253	3
2	7946	1590.097650152694	4
2	7947	1590.152973247797	3
2	7950	1591.024589995959	2
2	7953	1592.090348128614	1
2	7956	1592.939099345275	0
2	7960	1593.304612782047	1
2	7961	1594.069771206205	0
2	7965	1594.287092078145	1
2	7967	1594.631295707723	2
2	7968	1595.186040100654	1
2	7972	1595.970332657517	2
2	7974	1596.067919720417	3
2	7976	1596.074831240906	4
2	7977	1596.303853530729	3
2	7981	1596.911526433284	4
2	7982	1597.166737883644	3
2	7985	1598.33961755318	2
2	7989	1598.389396391507	3
2	7990	1599.288297174791	2
2	7994	1599.597952242114	3
2	7995	1600.34511699622	2
2	8000	1601.486227893843	1
2	8003	1602.465267878226	0
2	8010	1603.551476854065	1
2	8012	1603.747933751714	2
2	8014	1604.319842110227	3
2	8015	1604.496404342647	2
2	8019	1604.811561435911	3
2	8020	1605.690496996246	2
2	8024	1606.079642136068	3
2	8025	1606.738042221419	2
2	8029	1607.215765940001	3
2	8030	1607.667954232092	2
2	8033	1608.865231301184	1
2	8036	1609.836163964509	0
2	8043	1611.002193117367	1
2	8045	1611.665072381301	2
2	8046	1611.695950571834	1
2	8052	1612.428299664308	2
2	8053	1612.805517891343	1
2	8057	1613.663127296934	2
2	8058	1613.92156561065	1
2	8061	1614.839790388024	0
2	8071	1617.625366803932	1
2	8072	1617.998009426626	0
2	8084	1620.297796915101	1
2	8085	1620.829684624834	0
2	8089	1621.589888946057	1
2	8090	1621.718655619597	0
2	8096	1622.016606808495	1
2	8097	1622.736297982106	0
2	8101	1623.172794964338	1
2	8103	1623.549732305193	2
2	8104	1623.789257275885	1
2	8108	1624.166552237897	2
2	8109	1624.679192740018	1
2	8112	1625.827209757375	0
2	8116	1626.008824400419	1
2	8118	1626.54519124645	2
2	8119	1626.814142063367	1
2	8123	1627.190813793755	2
2	8125	1627.729326304966	3
2	8126	1627.744294106043	2
2	8130	1627.889890840727	3
2	8132	1627.989903435132	4
2	8133	1628.728091687351	3
2	8137	1628.808842551875	4
2	8141	1629.58664487009	5
2	8142	1629.914348546151	4
2	8146	1630.602989385707	5
2	8147	1631.070021044105	4
2	8152	1631.993493577107	3
2	8155	1632.995920529138	2
2	8159	1633.417685066792	3
2	8160	1633.820599200312	2
2	8164	1633.870492840565	3
2	8167	1634.839203025136	2
2	8170	1635.999969987307	1
2	8174	1636.376442376195	2
2	8175	1636.875645522788	1
2	8178	1637.950612897254	0
2	8182	1638.5782685496	1
2	8184	1638.692730018846	2
2	8185	1638.97124179957	1
2	8189	1639.608037723476	2
2	8192	1640.127607462569	1
2	8196	1640.151515147869	2
2	8197	1641.009916216521	1
2	8200	1642.133433918389	0
2	8204	1642.450525488862	1
2	8206	1642.849286798781	2
2	8207	1642.989134886502	1
2	8210	1643.79890741968	0
2	8214	1644.710070527113	1
2	8215	1644.841981296813	0
2	8227	1647.163588505153	1
2	8229	1647.761560633852	2
2	8231	1647.797400409348	3
2	8232	1647.900120300906	2
2	8236	1648.16605686974	3
2	8238	1648.45394189487	4
2	8240	1648.618737949277	5
2	8243	1649.01823293121	4
2	8248	1650.077970287869	3
2	8252	1650.240879421713	4
2	8254	1650.722236518513	5
2	8256	1651.102964478662	6
2	8257	1651.108910358897	5
2	8260	1652.302251600301	4
2	8264	1652.309826279343	5
2	8265	1653.304576745549	4
2	8268	1654.290081180645	3
2	8271	1655.395966507042	2
2	8274	1656.474513293164	1
2	8277	1657.330487973256	0
2	8281	1657.592281183524	1
2	8283	1658.497605622492	2
2	8284	1658.501751283942	1
2	8288	1658.776039317923	2
2	8289	1659.457453000838	1
2	8295	1660.006534073401	2
2	8296	1660.600257719787	1
2	8300	1660.91812993358	2
2	8301	1661.545695877182	1
2	8305	1661.720809660153	2
2	8306	1662.633576114676	1
2	8312	1663.312435429237	2
2	8313	1663.565214097141	1
2	8317	1664.112441029176	2
2	8318	1664.601288341745	1
2	8323	1665.493745967294	0
2	8327	1666.028183526952	1
2	8328	1666.407705287929	0
2	8335	1667.470498111012	1
2	8337	1667.555338547399	2
2	8338	1668.418414769802	1
2	8342	1668.490816498362	2
2	8345	1669.252196006492	1
2	8348	1670.285467433479	0
2	8352	1670.526796590998	1
2	8354	1670.596841482493	2
2	8355	1671.468892521799	1
2	8358	1672.639606978853	0
2	8362	1672.900127146323	1
2	8364	1673.219079588228	2
2	8365	1673.518180573561	1
2	8368	1674.599979998094	0
2	8372	1675.275100752517	1
2	8373	1675.649530772694	0
2	8380	1677.209928437971	1
2	8381	1677.602770521228	0
2	8385	1678.636375135716	1
2	8386	1678.759319399313	0
2	8390	1678.795198865855	1
2	8394	1679.780289007258	2
2	8395	1679.884195622911	1
2	8399	1679.905586035134	2
2	8401	1680.403204049675	3
2	8402	1680.980003486031	2
2	8405	1682.023739193862	1
2	8409	1682.377967707256	2
2	8410	1682.859478642063	1
2	8414	1683.086093084068	2
2	8415	1683.891638587804	1
2	8418	1684.781858588026	0
2	8428	1686.866216261302	1
2	8429	1687.524178671573	0
2	8439	1689.695053614156	1
2	8440	1690.696884434033	0
2	8500	1703.847976780944	1
2	8501	1704.366870173083	0
2	8510	1706.115809580197	1
2	8511	1706.44728325877	0
2	8518	1707.769157519991	1
2	8520	1707.882609959736	2
2	8521	1708.578347471465	1
2	8524	1709.436267284785	0
2	8533	1711.108788040851	1
2	8536	1711.583654612225	0
2	8540	1712.204229259204	1
2	8541	1712.477256563973	0
2	8545	1712.545562100337	1
2	8547	1712.695360876251	2
2	8549	1713.480004692153	3
2	8550	1713.659230290648	2
2	8555	1714.766838585601	1
2	8558	1715.699956411139	0
2	8562	1716.278177412694	1
2	8564	1716.303752493328	2
2	8565	1716.874305726883	1
2	8568	1717.968408291244	0
2	8572	1718.467897906776	1
2	8573	1718.930645749454	0
2	8577	1719.261201257638	1
2	8578	1720.087334484995	0
2	8590	1723.050389076963	1
2	8591	1723.245170866061	0
2	8600	1724.988587224914	1
2	8602	1725.432516811825	2
2	8604	1725.439795249984	3
2	8605	1725.534904584863	2
2	8608	1726.417746274561	1
2	8612	1727.170054090881	2
2	8613	1727.606534734849	1
2	8617	1727.627708802799	2
2	8619	1728.092577861152	3
2	8621	1728.300967068166	4
2	8622	1728.445985477805	3
2	8625	1729.610884630229	2
2	8628	1730.641047240063	1
2	8632	1730.687675258258	2
2	8633	1731.806874821629	1
2	8637	1732.6642430247	2
2	8638	1732.718679899644	1
2	8641	1733.585616045833	0
2	8648	1735.540799285077	1
2	8649	1735.797189427089	0
2	8653	1735.887477223548	1
2	8657	1736.602185742149	2
2	8659	1736.880915405649	3
2	8660	1736.920852713954	2
2	8664	1737.842227870485	3
2	8665	1738.032370559793	2
2	8669	1738.897361093209	3
2	8670	1739.119569403414	2
2	8673	1740.208766712822	1
2	8677	1740.462247167124	2
2	8678	1741.036959678322	1
2	8682	1741.927842868597	2
2	8683	1741.960138075069	1
2	8689	1742.498021065405	2
2	8691	1742.640922105167	3
2	8692	1742.923088123851	2
2	8696	1743.300018702356	3
2	8698	1743.651780136958	4
2	8699	1743.85077793311	3
2	8702	1744.903771821145	2
2	8705	1746.058373324402	1
2	8709	1746.405598844001	2
2	8710	1747.094121773184	1
2	8715	1748.154821134374	0
2	8719	1748.528085428202	1
2	8720	1749.213752040748	0
2	8727	1751.080975413504	1
2	8728	1751.502499730901	0
2	8732	1751.96503053061	1
2	8733	1752.538984624964	0
2	8737	1753.226679247849	1
2	8738	1753.440295438764	0
2	8751	1757.254026111635	1
2	8752	1757.540686847472	0
2	8759	1759.069610649512	1
2	8760	1759.223463736491	0
2	8764	1760.007658265799	1
2	8769	1760.280915371811	0
2	8773	1760.391884775893	1
2	8775	1760.425332959631	2
2	8777	1760.595974403027	3
2	8778	1761.080960315762	2
2	8785	1761.960129469743	1
2	8789	1762.077760453772	2
2	8791	1762.473152502452	3
2	8793	1762.510579673265	4
2	8794	1762.836740858497	3
2	8798	1762.94357370669	4
2	8800	1763.180198958781	5
2	8802	1763.290485752412	6
2	8804	1763.678004082342	7
2	8805	1763.830560680868	6
2	8809	1764.30462867391	7
2	8811	1764.472934874532	8
2	8812	1764.958434698282	7
2	8816	1765.142821563418	8
2	8817	1765.917590974102	7
2	8820	1767.084117325319	6
2	8823	1768.165261017175	5
2	8829	1768.443377870492	6
2	8830	1769.298210382385	5
2	8834	1770.237112853102	6
2	8835	1770.363774832262	5
2	8839	1771.188854067768	6
2	8840	1771.38357420286	5
2	8843	1772.478735151252	4
2	8847	1772.524625787557	5
2	8849	1772.913445814562	6
2	8851	1773.106896035821	7
2	8852	1773.32032062888	6
2	8858	1773.947092616646	7
2	8860	1774.083656249291	8
2	8861	1774.335265541932	7
2	8866	1775.4089240133	6
2	8870	1776.298845466264	7
2	8871	1776.399379396176	6
2	8874	1777.208246521296	5
2	8877	1778.22421796249	4
2	8881	1778.39604404587	5
2	8882	1779.122691119851	4
2	8885	1780.290664739923	3
2	8889	1780.455478543498	4
2	8891	1781.147468662894	5
2	8892	1781.447824240213	4
2	8896	1781.823262826238	5
2	8898	1782.015322837454	6
2	8899	1782.529091216268	5
2	8905	1783.644750684077	6
2	8906	1783.707802305387	5
2	8910	1783.724412812802	6
2	8913	1784.674182922503	5
2	8917	1784.707603623959	6
2	8920	1785.547491220402	5
2	8924	1785.618332469672	6
2	8925	1786.557940965163	5
2	8928	1787.485030890832	4
2	8933	1788.367641570529	3
2	8936	1789.291960583737	2
2	8940	1789.741069136831	3
2	8943	1790.25148282537	2
2	8947	1790.555406985967	3
2	8950	1791.426985235529	2
2	8954	1791.550108338487	3
2	8956	1792.338749273326	4
2	8957	1792.526957598438	3
2	8961	1792.605992273606	4
2	8962	1793.52681742247	3
2	8965	1794.687636589741	2
2	8969	1795.068733903099	3
2	8970	1795.658215129392	2
2	8974	1796.249155970745	3
2	8975	1796.571157266496	2
2	8979	1796.658009093395	3
2	8980	1797.504640667716	2
2	8983	1798.553787005896	1
2	8986	1799.478621156158	0
2	8990	1799.60213292089	1
2	8992	1800.278534040014	2
2	8993	1800.62408890195	1
2	8996	1801.715193028672	0
2	9003	1803.109558964074	1
2	9005	1803.327005556319	2
2	9006	1803.785286730732	1
2	9010	1804.232197775944	2
2	9011	1804.744571663737	1
2	9015	1805.27011516394	2
2	9018	1805.687948661223	1
2	9022	1806.646658197508	2
2	9023	1806.784625075217	1
2	9027	1807.402812292144	2
2	9028	1807.808466069884	1
2	9031	1808.86462497713	0
2	9035	1809.989747212085	1
2	9036	1810.030192063115	0
2	9042	1810.789101070697	1
2	9043	1810.880479027815	0
2	9047	1811.215817695577	1
2	9049	1811.758101428276	2
2	9050	1812.068111275621	1
2	9054	1812.286544826696	2
2	9055	1813.154462846667	1
2	9058	1814.314864309524	0
2	9062	1814.714877126175	1
2	9064	1815.219733929511	2
2	9066	1815.269534051086	3
2	9067	1815.499907337335	2
2	9071	1815.529938269233	3
2	9072	1816.346408872698	2
2	9076	1816.754477464961	3
2	9078	1817.224720826479	4
2	9079	1817.367792271749	3
2	9082	1818.563931781446	2
2	9086	1819.409805965731	3
2	9087	1819.467224115991	2
2	9090	1820.474686876611	1
2	9093	1821.368935902064	0
2	9097	1821.848947342534	1
2	9099	1822.467657472269	2
2	9100	1822.509458503333	1
2	9104	1822.608130401781	2
2	9105	1823.470269732756	1
2	9109	1823.569961583509	2
2	9110	1824.375200640244	1
2	9114	1824.953501275449	2
2	9115	1825.199216156659	1
2	9119	1825.865176977226	2
2	9120	1826.0299267119	1
2	9123	1827.014340207001	0
2	9127	1827.075236185425	1
2	9128	1827.958369124794	0
2	9132	1828.750811866941	1
2	9133	1828.988107263876	0
2	9137	1829.019582808674	1
2	9138	1830.174810796717	0
2	9142	1830.700251141976	1
2	9143	1831.303678196037	0
2	9153	1833.873449442448	1
2	9156	1834.498030217478	0
2	9163	1835.670902010161	1
2	9168	1836.448511728478	0
2	9180	1838.570096745899	1
2	9183	1839.693125855943	0
2	9189	1839.974479749552	1
2	9190	1840.826090547649	0
2	9197	1842.170086509161	1
2	9199	1842.624014237001	2
2	9200	1842.915669582804	1
2	9205	1844.071451544688	0
2	9215	1845.966332817402	1
2	9217	1846.634291509196	2
2	9218	1846.750901675523	1
2	9223	1847.689519450367	0
2	9227	1847.757497411374	1
2	9230	1848.585715194904	0
2	9234	1848.615418186615	1
2	9237	1849.615515042954	0
2	9241	1849.747703346054	1
2	9244	1850.800234613773	0
2	9248	1851.589553431036	1
2	9249	1851.854626269937	0
2	9253	1851.9609840028	1
2	9254	1852.805965147466	0
2	9258	1852.918886045741	1
2	9259	1853.679258399476	0
2	9266	1854.791093372756	1
2	9267	1855.719335642849	0
2	9271	1855.868620961019	1
2	9272	1856.678957098556	0
2	9276	1856.681775624143	1
2	9277	1857.660062258338	0
2	9284	1858.694634087639	1
2	9285	1859.67202436125	0
2	9289	1860.029165999867	1
2	9293	1860.24195854293	2
2	9295	1860.420197832857	3
2	9296	1860.599200391603	2
2	9300	1861.031731638586	3
2	9301	1861.426129766853	2
2	9305	1861.90796267545	3
2	9306	1862.402301288882	2
2	9310	1862.554253061035	3
2	9315	1863.312864479908	2
2	9319	1863.785873058453	3
2	9320	1864.427305579392	2
2	9326	1865.155757025559	3
2	9327	1865.559620205892	2
2	9331	1865.900551321917	3
2	9332	1866.521399677472	2
2	9336	1866.885790065551	3
2	9337	1867.539989662656	2
2	9341	1867.94640408186	3
2	9342	1868.652032615637	2
2	9345	1869.70029507477	1
2	9349	1870.390633029521	2
2	9350	1870.607802354658	1
2	9354	1870.615104868186	2
2	9355	1871.419223497083	1
2	9358	1872.445680401867	0
2	9373	1876.239716999426	1
2	9374	1876.537246499882	0
2	9378	1877.523816923896	1
2	9379	1877.551802741011	0
2	9393	1880.418540311035	1
2	9394	1880.726919933242	0
2	9400	1881.009485399892	1
2	9402	1881.792774828585	2
2	9403	1881.804722532277	1
2	9406	1882.661792584994	0
2	9410	1883.291871487157	1
2	9412	1883.500680721765	2
2	9413	1883.638117138316	1
2	9417	1884.040967402807	2
2	9419	1884.478025548073	3
2	9420	1884.578722297513	2
2	9423	1885.73999298785	1
2	9427	1885.747850611771	2
2	9428	1886.765070845486	1
2	9431	1887.746867972819	0
2	9435	1888.041097921606	1
2	9436	1888.735758302754	0
2	9449	1892.471639048079	1
2	9450	1893.184438201899	0
2	9457	1894.377646298991	1
2	9461	1894.508128522373	2
2	9462	1895.348098087052	1
2	9470	1896.260412954918	2
2	9471	1896.269595607298	1
2	9476	1897.216937602146	0
2	9482	1897.312432801228	1
2	9483	1898.072088265812	0
2	9487	1898.497364224242	1
2	9488	1899.048712904586	0
2	9495	1900.046345302135	1
2	9497	1900.436015145002	2
2	9498	1900.655433842654	1
2	9501	1901.808531483004	0
2	9505	1901.951670885181	1
2	9506	1902.756459026897	0
2	9510	1903.299703064654	1
2	9511	1903.867128666045	0
2	9515	1904.250748655246	1
2	9516	1904.767622182352	0
2	9520	1905.019738675941	1
2	9521	1905.864877737427	0
2	9531	1907.897153023043	1
2	9532	1908.60815472223	0
2	9536	1909.270183673624	1
2	9537	1909.700300528688	0
2	9541	1909.968361391854	1
2	9543	1910.179983388004	2
2	9545	1910.406177954135	3
2	9546	1910.586780671702	2
2	9550	1911.590638309503	3
2	9551	1911.739249424097	2
2	9555	1912.441093119079	3
2	9556	1912.89701152688	2
2	9564	1913.713282723604	3
2	9565	1913.837590390743	2
2	9569	1914.442637542417	3
2	9570	1914.681630609204	2
2	9575	1915.69305283513	1
2	9579	1915.708820203322	2
2	9580	1916.62703776762	1
2	9583	1917.640085464829	0
2	9590	1918.86207200912	1
2	9592	1918.87078351927	2
2	9594	1918.90404743686	3
2	9596	1919.703067161808	4
2	9597	1919.86488633549	3
2	9603	1920.622420108573	4
2	9605	1920.779493649508	5
2	9606	1921.01025290901	4
2	9610	1921.17038154765	5
2	9611	1922.061862797217	4
2	9614	1923.217728388236	3
2	9618	1924.23131558281	4
2	9619	1924.315668635928	3
2	9623	1925.224703969312	4
2	9624	1925.277813406681	3
2	9628	1925.558149111941	4
2	9630	1925.853294350735	5
2	9632	1926.018868186993	6
2	9633	1926.140031670706	5
2	9637	1926.592340168898	6
2	9638	1927.185729789288	5
2	9642	1927.83092385096	6
2	9643	1928.264238513095	5
2	9646	1929.321092807801	4
2	9650	1929.585392433589	5
2	9651	1930.391649396458	4
2	9655	1930.393860795385	5
2	9656	1931.415670355802	4
2	9660	1931.928796132665	5
2	9661	1932.219625987319	4
2	9665	1933.048653667109	5
2	9666	1933.353676127569	4
2	9670	1933.510540805852	5
2	9671	1934.162373809722	4
2	9674	1934.999329240267	3
2	9678	1935.146775181831	4
2	9680	1935.23338971932	5
2	9681	1936.071951705982	4
2	9685	1936.61287078649	5
2	9686	1937.239097147361	4
2	9692	1937.708672047681	5
2	9694	1938.103701142234	6
2	9695	1938.437451074012	5
2	9698	1939.537836729475	4
2	9702	1939.553604657772	5
2	9703	1940.427598415334	4
2	9707	1940.505865241805	5
2	9708	1941.269296538942	4
2	9714	1941.394357194214	5
2	9715	1942.239233498946	4
2	9719	1942.734389781905	5
2	9720	1943.243412551396	4
2	9724	1943.664375961196	5
2	9725	1944.253414999806	4
2	9729	1944.288546509929	5
2	9732	1945.320211987217	4
2	9738	1945.88531292126	5
2	9739	1946.467479648368	4
2	9743	1946.821566885521	5
2	9745	1946.898811429426	6
2	9747	1947.112149213367	7
2	9748	1947.52335744735	6
2	9751	1948.660639780501	5
2	9755	1949.090970845185	6
2	9756	1949.817910643501	5
2	9759	1950.799382552618	4
2	9763	1950.840693619594	5
2	9764	1951.98830252506	4
2	9767	1952.877708027811	3
2	9771	1953.517463789349	4
2	9772	1953.949537990914	3
2	9775	1954.897574806699	2
2	9778	1955.885063721818	1
2	9782	1956.083985817445	2
2	9783	1956.811793642324	1
2	9786	1957.959353989661	0
2	9790	1958.366063612037	1
2	9793	1958.868523408864	0
2	9797	1959.103914802065	1
2	9799	1959.189316470916	2
2	9801	1959.283968999939	3
2	9802	1960.057185951174	2
2	9806	1960.083935917396	3
2	9807	1960.961457905751	2
2	9811	1961.115926074974	3
2	9813	1961.30849431113	4
2	9815	1961.632738618285	5
2	9816	1962.063192457352	4
2	9820	1962.145366524511	5
2	9821	1963.036767531112	4
2	9825	1963.142041776486	5
2	9826	1963.847444488499	4
2	9829	1964.763905545715	3
2	9832	1965.721140978504	2
2	9836	1965.790664114982	3
2	9837	1966.706683083922	2
2	9843	1967.008396812872	3
2	9848	1967.899289897755	2
2	9852	1968.40414091691	3
2	9853	1969.062798204106	2
2	9856	1970.018438950573	1
2	9860	1970.615031136724	2
2	9861	1970.940214162153	1
2	9864	1971.840189680476	0
2	9868	1972.032071621951	1
2	9870	1972.252850133949	2
2	9872	1972.727644923055	3
2	9873	1972.744748174418	2
2	9876	1973.830301986374	1
2	9880	1974.003318660998	2
2	9881	1974.648530304823	1
2	9884	1975.637109675463	0
2	9888	1976.334666771898	1
2	9890	1976.413220197952	2
2	9891	1976.648270756118	1
2	9895	1976.765175650682	2
2	9896	1977.653436948378	1
2	9900	1977.798835153275	2
2	9901	1978.837976501156	1
2	9905	1979.073095543328	2
2	9906	1979.742033910491	1
2	9910	1979.869966412966	2
2	9911	1980.589607909061	1
2	9915	1980.729924599312	2
2	9916	1981.646566476878	1
2	9919	1982.788409323637	0
2	9926	1984.229169663588	1
2	9928	1984.599719025063	2
2	9929	1984.79638833359	1
2	9933	1985.693845961897	2
2	9934	1985.936890619175	1
2	9937	1987.019215560724	0
2	9941	1987.248344636122	1
2	9944	1987.821361246725	0
2	9951	1988.805097026837	1
2	9953	1989.568160790702	2
2	9954	1989.848561949116	1
2	9958	1990.484232564323	2
2	9959	1990.762508381736	1
2	9963	1990.978664130787	2
2	9965	1991.139348243201	3
2	9968	1991.939608434048	2
2	9971	1992.971677951627	1
2	9974	1994.065775965732	0
2	9978	1994.345276939764	1
2	9979	1995.133800441698	0
2	9986	1997.067901882334	1
2	9987	1997.133028675635	0
2	9991	1997.368136969822	1
2	9992	1997.946769303661	0
2	10065	2016.345108007748	1
2	10066	2016.742404413522	0
2	10072	2017.696002304039	1
2	10073	2017.852617316899	0
2	10077	2018.357601224823	1
2	10078	2019.028604224158	0
2	10082	2019.785547771825	1
2	10083	2020.0953743919	0
2	10087	2020.453073688227	1
2	10088	2020.963514836805	0
2	10102	2022.915773801307	1
2	10104	2023.356477181979	2
2	10105	2023.662191257926	1
2	10112	2024.537353111452	0
2	10116	2024.678498728829	1
2	10117	2025.63600260813	0
2	10126	2026.706862591925	1
2	10130	2026.884397332647	2
2	10132	2026.899073395886	3
2	10133	2027.502969221046	2
2	10136	2028.585870455412	1
2	10140	2028.637592177205	2
2	10141	2029.471991112755	1
2	10145	2030.323983017145	2
2	10146	2030.631311128122	1
2	10150	2030.635790000099	2
2	10152	2030.901923478185	3
2	10154	2031.0032531376	4
2	10156	2031.441956466103	5
2	10157	2031.829395562337	4
2	10160	2032.904549261761	3
2	10164	2033.289640594705	4
2	10165	2033.705853321795	3
2	10168	2034.539033290204	2
2	10172	2034.78920940774	3
2	10173	2035.725161474869	2
2	10177	2036.403295058246	3
2	10178	2036.919472118393	2
2	10182	2037.082165466073	3
2	10184	2037.348316766267	4
2	10185	2037.838365298156	3
2	10189	2038.366869864477	4
2	10190	2038.755863079634	3
2	10194	2039.387397592281	4
2	10195	2039.94253742138	3
2	10199	2040.52478388774	4
2	10201	2040.559684586152	5
2	10202	2041.105108997618	4
2	10206	2041.145349753665	5
2	10209	2042.298049968408	4
2	10213	2043.134207240022	5
2	10214	2043.375611075872	4
2	10218	2043.56160801311	5
2	10219	2044.1877800137	4
2	10223	2044.362232231981	5
2	10224	2045.335432034378	4
2	10227	2046.400313899499	3
2	10231	2046.550872170831	4
2	10233	2046.576326748972	5
2	10234	2047.29140228035	4
2	10237	2048.468305055165	3
2	10241	2049.076678940444	4
2	10242	2049.623046813832	3
2	10246	2049.727992998367	4
2	10249	2050.427409090401	3
2	10252	2051.554771624805	2
2	10256	2051.62879832808	3
2	10257	2052.433924125062	2
2	10261	2052.724583984805	3
2	10265	2053.002962792322	4
2	10266	2053.590264139345	3
2	10269	2054.55064967938	2
2	10273	2054.630421500622	3
2	10275	2055.399896032588	4
2	10276	2055.591019603165	3
2	10279	2056.519413925449	2
2	10283	2056.80810599321	3
2	10285	2057.362064744839	4
2	10286	2057.385975912234	3
2	10289	2058.26736869246	2
2	10293	2059.216367764162	3
2	10295	2059.352199582945	4
2	10296	2059.400117741453	3
2	10299	2060.316601584686	2
2	10303	2061.322259634648	3
2	10304	2061.359313127605	2
2	10308	2061.470401023537	3
2	10309	2062.276385523027	2
2	10313	2062.731875346342	3
2	10314	2063.255222187026	2
2	10317	2064.111973720903	1
2	10321	2064.32885562444	2
2	10323	2064.568099899521	3
2	10324	2065.072032872143	2
2	10328	2065.104053868894	3
2	10329	2065.919619801569	2
2	10333	2066.199338468297	3
2	10334	2067.071864189881	2
2	10337	2067.883592238764	1
2	10341	2068.50812696717	2
2	10342	2068.765879216159	1
2	10346	2068.904908706801	2
2	10348	2068.93491181694	3
2	10351	2069.793828797361	2
2	10355	2069.862848738725	3
2	10356	2070.897536208687	2
2	10360	2070.971127300792	3
2	10361	2071.752893241794	2
2	10365	2072.479324422039	3
2	10366	2072.752598159128	2
2	10370	2073.077278937547	3
2	10372	2073.614401369951	4
2	10373	2073.750318687988	3
2	10377	2073.869344540323	4
2	10378	2074.672479727419	3
2	10381	2075.763102251684	2
2	10385	2076.040933856864	3
2	10386	2076.925846647864	2
2	10390	2077.140281615344	3
2	10391	2077.952559455132	2
2	10395	2078.395513418163	3
2	10396	2079.082891417129	2
2	10400	2079.489479183866	3
2	10402	2079.946505799696	4
2	10403	2080.04942553865	3
2	10406	2081.132246048769	2
2	10409	2082.281935867967	1
2	10413	2082.85335875447	2
2	10414	2083.431778504347	1
2	10418	2083.507737698875	2
2	10419	2084.288681953234	1
2	10422	2085.199004857262	0
2	10429	2086.590108471555	1
2	10430	2087.361745009032	0
2	10437	2088.970092000397	1
2	10439	2089.060127060083	2
2	10441	2089.341040350616	3
2	10442	2089.461589580887	2
2	10445	2090.636049855054	1
2	10449	2091.144375825384	2
2	10450	2091.817220924348	1
2	10453	2092.816538574752	0
2	10457	2093.194603963501	1
2	10458	2093.800142337028	0
2	10468	2095.691740421399	1
2	10469	2096.564376152698	0
2	10476	2097.735049382774	1
2	10478	2098.125702358151	2
2	10479	2098.785012291111	1
2	10482	2099.619976929966	0
2	10486	2100.305307016036	1
2	10487	2100.70206148412	0
2	10499	2103.251357599792	1
2	10502	2103.655508292112	0
2	10513	2104.864962548757	1
2	10516	2105.418347042258	0
2	10525	2107.224487089847	1
2	10526	2107.617240825965	0
2	10566	2116.136485457252	1
2	10568	2116.412045497054	2
2	10569	2116.98018714452	1
2	10572	2118.120006015262	0
2	10576	2118.496741079134	1
2	10577	2119.22582716273	0
2	10586	2120.243956308174	1
2	10589	2120.983691149688	0
2	10598	2122.943845033598	1
2	10599	2122.946484261209	0
2	10661	2137.067985895959	1
2	10662	2137.934073772856	0
2	10666	2138.660765409099	1
2	10669	2139.046322034222	0
2	10673	2139.081219122649	1
2	10677	2139.869336780581	2
2	10678	2140.218303184227	1
2	10681	2141.223669507929	0
2	10760	2156.879348465866	1
2	10761	2156.924853484161	0
2	10782	2159.90332196803	1
2	10783	2160.740194909848	0
2	10796	2162.105517621457	1
2	10799	2163.051414924503	0
2	10810	2164.184007245855	1
2	10812	2164.514354397955	2
2	10813	2164.909819042325	1
2	10818	2165.860717124134	0
2	10838	2170.930752964084	1
2	10839	2171.282015126214	0
2	10854	2174.322092076822	1
2	10858	2175.132547906149	2
2	10859	2175.161712817119	1
2	10868	2176.235452711599	0
[...]
6	121641	24255.908399283671	2156.1478997934
6	121679	24264.103102963668	1029.7475650449
6	121707	24270.085332741093	265.83197844323
6	121727	24273.817323980637	2046.9868192508
6	121738	24276.80322532567	2011.8999958376
6	121758	24280.85707618377	4764.9278617041
6	121840	24297.241102131148	1809.9248299151
6	121865	24302.045386389055	1300.6690803033
6	121878	24304.989379457728	564.82833605646
6	122008	24330.53398822534	1272.8213731111
6	122014	24332.463905958711	4470.3655459064
6	122019	24333.361458062447	1269.6113086069
6	122210	24369.994027735639	557.68732107898
6	122246	24377.663445865243	1706.5224298702
6	122261	24380.457169833194	1697.3932211236
6	122266	24381.623032539684	2798.9459344981
6	122300	24389.65112220782	937.1295967049
6	122340	24397.424055328659	4739.6473255149
6	122367	24402.908840336252	4438.2533213603
6	122390	24407.587256347921	247.81723522479
6	122411	24412.704672794671	528.32028451476
6	122424	24415.509991861482	4381.376033479
6	122432	24417.632601878395	874.00342857447
6	122438	24419.934092088578	4346.0814211623
6	122443	24420.858510611927	4333.5036417554
6	122458	24423.80504798924	4321.7738404997
6	122464	24425.993394156987	245.653293888
6	122515	24436.292027309792	5403.6886677999
6	122518	24437.352402354101	2681.5658095381
6	122521	24438.299768578423	6825.5568750904
6	122532	24441.454185645258	507.27997770897
6	122538	24443.495949926203	8609.8989869185
6	122552	24445.555993069032	1646.9369788272
6	122566	24449.328474471135	3834.3239015033
6	122597	24454.38948088677	226.10865446508
6	122600	24455.517153810592	495.60985862123
6	122635	24462.345833294628	215.70425394835
6	122638	24463.392106510488	2379.4745176754
6	122681	24471.786617253696	813.64318630548
6	122779	24489.305313780411	2231.4726265261
6	122798	24494.228198038852	2216.777302444
6	122838	24501.836032529612	1533.6232036625
6	122856	24506.038008357277	2008.405667381
6	122913	24516.982300741013	1215.1223283173
6	122926	24519.749122151241	1216.849033231
6	122965	24529.007257039821	1959.7054289167
6	122986	24533.878334755519	1469.152252503
6	123057	24547.217771868103	751.21997411778
6	123060	24548.335522567083	192.14460355032
6	123097	24555.561008840495	1941.9433252499
6	123147	24565.400946662828	1110.8649469216
6	123209	24577.755046100143	707.12559932993
6	123631	24658.549754609612	1155.2505542446
6	123845	24700.682146498631	529.17180066216
6	123904	24712.076311785145	533.40249777787
6	123983	24729.040438867803	3436.4147352195
6	124013	24734.571478330693	805.30527165066
6	124321	24796.312062746729	1598.5472989016
6	124347	24802.343315072055	340.30551403897
6	124492	24829.227939528577	840.32569862911
6	124542	24839.888987642598	2720.0650053144
6	124884	24905.84177755357	1648.2518003799
6	124994	24928.245251004281	2602.5390500443
6	125063	24940.715758151723	1236.1249439012
6	125124	24954.048179968608	440.89696671227
6	125139	24957.053391958562	13190.660987996
6	125147	24959.145932888401	436.02284519908
6	125167	24963.12399593971	907.22758418608
6	125197	24968.989730273348	435.67093919094
6	125218	24973.866415062987	1209.9812618264
6	125228	24976.042558261074	2398.9523961527
6	125254	24981.905602400445	623.93977094608
6	125283	24988.346273307848	5685.2733183971
6	125286	24989.418175171009	2309.436422947
6	125301	24992.510662596087	428.21320467468
6	125324	24997.243656966529	420.79584291377
6	125353	25001.854141832954	401.27609762242
6	125378	25008.981993962611	385.27082143212
6	125389	25011.588303102898	368.74701540359
6	125666	25064.432184704642	325.49009226512
6	126175	25163.151054757894	3138.9022053748
6	126662	25258.386072240554	1300.9893143429
6	126674	25260.509392445971	2450.1543408754
6	126684	25262.62532850678	1026.8345659463
6	126694	25264.476530993794	1027.6617268004
6	126714	25268.520496310358	460.10222832304
6	126759	25278.189482158953	461.68701298284
6	126892	25304.528971936804	474.51415837973
6	126917	25309.770156388329	6540.9258117114
6	127026	25330.725477042671	456.01005361366
6	128136	25548.199518314251	652.10200425692
6	128227	25565.09554798311	631.37628054475
6	128260	25572.153488851119	3172.2502972045
6	128268	25573.870694839549	1866.4820127288
6	128271	25574.773211682741	625.76260948808
6	128304	25581.79096079661	619.84261718795
6	128708	25660.481963447444	1895.0431177067
6	128731	25665.519504421913	1878.7118936618
6	128775	25674.85193774054	4894.1940298161
6	128807	25680.665602633323	3072.9955563014
6	128836	25687.456107644982	1098.4369639619
6	128847	25690.317624917313	1548.7935474938
6	128857	25692.346683401766	1059.903430492
6	128880	25695.50045471309	2223.3261193758
6	128931	25704.20929662768	2590.4551254552
6	128987	25716.71534403913	1031.168949834
6	129123	25746.039655995893	3007.8614792983
6	129134	25749.361315856001	1321.518974029
6	129262	25773.747657110603	708.07260867965
6	129312	25784.058529779283	1587.2329195942
6	129343	25791.08566299506	3003.872784938
6	129358	25794.03113697941	723.78768841007
6	129384	25800.131127885698	671.1541477919
6	129491	25821.446247634072	573.27854657497
6	129548	25832.940128551205	563.1934549612
6	129670	25856.966708902237	1599.0691079604
6	129750	25872.895522154184	1878.7191918828
6	129869	25895.50367640151	519.00985259823
6	129924	25905.789225380553	3758.9236894486
6	129997	25920.507979117485	442.11624463691
6	130010	25923.735095903056	390.14949199818
6	130291	25976.578444299437	1962.6282965369
6	130309	25980.41167318901	2695.1097902899
6	130346	25987.703235486113	3451.066446799
6	130354	25989.552147949823	2958.2150825087
6	130418	26003.83371588137	358.62615530079
6	130803	26077.334734764844	2558.4406549591
6	130811	26079.367671789005	2558.2071234097
6	130824	26082.379269616547	1375.2431878741
6	130860	26090.328486478104	1034.8036078936
6	130877	26093.429062845333	2169.4083665764
6	130920	26101.628426395876	1346.2148139951
6	130949	26106.646253249197	292.31402344099
6	130958	26109.58682978466	293.7915910431
6	130966	26111.824655003621	1330.1940904806
6	131001	26118.856574947907	295.99971509737
6	131051	26128.76228972213	865.9227317371
6	131107	26140.505834892444	1672.4491779479
6	131122	26143.85560321366	280.55038679458
6	131180	26155.418968291447	1278.1530742196
6	131206	26161.447062983137	261.71569741032
6	131211	26162.606476574444	783.74031533506
6	131234	26167.600708439999	720.96942076286
6	131253	26170.369803958346	253.95756042021
6	131309	26182.514425278601	255.96725530411
6	131327	26186.241709850594	258.2316200694
6	131352	26191.182006146717	630.16793932378
6	131368	26195.234712230372	236.1615724656
6	131546	26229.156025498225	1719.9688570389
6	131692	26258.312784510806	272.82237307275
6	131765	26273.609294876876	685.15326529361
6	132055	26330.564507935522	1777.5810360942
6	132064	26331.448454829818	2506.3197054008
6	132070	26333.530041377945	288.37999749713
6	132143	26347.704524917949	4729.8809527774
6	132148	26348.870939106543	6408.7928590308
6	132168	26352.838042420104	1729.8490923059
6	132961	26504.262603635574	1479.6770444767
6	133082	26529.242840903861	2618.0660559827
6	133172	26546.686950657753	773.21596177792
6	133535	26617.068323670097	512.49840562442
6	133561	26623.421936837259	1854.4141210284
6	133569	26625.271666176013	1428.7188711436
6	133580	26626.346210979718	1426.0067808394
6	133683	26647.257930260106	1414.5316144476
6	133740	26660.182717959909	1877.935941231
6	133810	26673.590645502463	3825.1420970188
6	133875	26686.81552109751	1859.063468603
6	133892	26689.981772382605	1381.0192577035
6	134048	26721.617566610919	3487.3299385572
6	134081	26728.646903970512	576.51826215527
6	134094	26731.706376237749	854.3318521249
6	134150	26743.050613782789	3486.5101891429
6	134177	26748.147739996623	4525.6205846562
6	134180	26749.110994827423	1190.0443002674
6	134185	26750.277778713267	559.93959726301
6	134193	26752.078123170093	800.08813733424
6	134206	26755.391223404232	1191.6975041688
6	134231	26760.795728427778	545.44711017511
6	134338	26781.844911672314	2250.707827869
6	134350	26783.89502714076	776.04794621317
6	134447	26803.453692178195	781.63795952009
6	134498	26814.497466791189	776.13395034977
6	134521	26819.257487153962	2957.6910678799
6	134603	26835.521397443536	771.29545918131
6	134644	26844.020482539899	476.85454285175
6	134726	26859.884489041335	2193.562006013
6	134729	26860.77865054668	395.86635551318
6	134740	26863.753617292504	385.91499913078
6	134753	26866.798954855047	371.48923895358
6	134815	26878.58159409282	6725.375375859
6	134838	26883.451591147717	787.6659998685
6	134843	26884.412024383295	334.34097920995
6	134851	26886.549074002404	2147.4128316569
6	134857	26888.538894205496	321.61747218716
6	134860	26889.351021570016	319.77574072347
6	134877	26892.255228729968	1092.3015604683
6	134955	26908.718913481341	1670.7330114533
6	134971	26912.31240706607	2459.8582616579
6	135109	26938.308657265412	1624.5331645755
6	135193	26956.465471467331	4036.3694465955
6	135329	26983.567514896906	220.04755719749
6	135394	26996.477422943946	5542.8679449426
6	135417	27001.561712869399	227.79107441375
6	135420	27002.490835096457	732.90860725133
6	135458	27010.02737236326	3251.319156497
6	135581	27033.866207256963	997.89208298317
6	135603	27037.598663885942	2683.8937918662
6	135617	27041.284570962335	4441.3081517808
6	135629	27043.427456939923	2942.9812992077
6	135650	27048.353348002448	5458.2077705513
6	135682	27054.622464496787	702.14885317634
6	135706	27060.697274730965	1362.597102209
6	135715	27061.845390665024	679.02363371707
6	135847	27088.198208364991	610.89657177131
6	135946	27106.857014465294	2084.3022768295
6	136299	27177.462408934777	1425.5645493705
6	136312	27180.612391139531	2135.9706164443
6	136367	27191.383320929446	4022.379760754
6	136407	27199.25429564059	6981.7064600002
6	136491	27215.254564504477	297.35232233351
6	136535	27224.920324735123	1946.7947704393
6	136553	27228.676080784727	531.3981019491
6	136565	27230.716833496153	3997.0705934744
6	136578	27233.44977729196	1911.5523321524
6	136588	27235.556655485894	2380.1194249753
6	136628	27243.589618925157	1879.514879658
6	136671	27252.484908525146	293.24321411294
6	136698	27257.384050323873	1732.9050545311
6	136711	27260.397260235961	5054.6982956252
6	136805	27277.638043633535	2376.5259720494
6	137042	27324.288398761546	2403.6167982683
6	137073	27331.428022503537	1360.920263969
6	137110	27338.238667543848	352.49500574322
6	137113	27339.099282353708	4060.7700592721
6	137135	27344.901375072506	2381.1021540306
6	137140	27345.966780592651	2379.9791827432
6	137147	27346.941110514906	8502.1710633544
6	137200	27357.894692219852	1058.8091977481
6	137210	27360.185840006045	1337.1922869731
6	137220	27362.242774048878	4790.8914240479
6	137251	27369.303181931155	3021.3368339776
6	137427	27403.492354637815	357.26419032453
6	137807	27474.946293051501	5564.8986994205
6	137874	27488.923450547508	1425.0594311373
6	137954	27504.662851354345	1142.5112117889
6	138071	27527.805923932378	1112.0252101855
6	138133	27542.267259476945	1051.6523532575
6	138143	27544.222207114525	426.00025716437
6	138162	27549.355162601599	1020.2993083864
6	138214	27559.191938323302	3642.4453109903
6	138256	27567.874772020577	3955.9435016682
6	138340	27584.555412233303	2827.0160170598
6	138542	27623.408600665497	3998.0505994203
6	138589	27632.400209951362	985.59325822119
6	138766	27668.338897775542	453.45195672845
6	138779	27671.550244165361	4827.3333093307
6	138816	27678.553746137823	4785.466914773
6	138877	27691.973033880776	2321.6243598575
6	138890	27695.143253471384	2277.1790871018
6	138916	27700.906807689794	424.95850808362
6	138942	27706.685948156525	1765.630273087
6	139042	27726.932101209792	2078.5314215593
6	139057	27730.150623894812	2072.5219566317
6	139068	27732.949216524468	371.32689357793
6	139071	27734.062695857001	2071.5673830166
6	139105	27739.824347345115	697.85881556521
6	139186	27755.560231922056	300.8576855495
6	139196	27757.575589949034	4658.7541226124
6	139290	27776.149555323975	3139.2990356288
6	139298	27777.977613772781	1415.5670768691
6	139375	27793.364427413749	940.71761851013
6	139391	27797.335728764305	3639.2546914186
6	139472	27814.322695280478	1299.8964470536
6	139480	27816.352816610929	944.18963595739
6	139485	27817.222504439071	3930.7135270644
6	139513	27823.479765488073	263.18576981104
6	139518	27824.368280234705	3901.5461381844
6	139521	27825.504642748419	940.56433384583
6	139524	27826.346339307871	1269.0647483294
6	139551	27831.66993515655	6854.7089032176
6	139569	27835.719607160479	2736.310076933
6	139587	27839.356625902891	255.18614760676
6	139628	27847.746764971181	259.48136670496
6	139731	27868.570657179276	254.9253163088
6	139738	27869.50251552002	2650.4868135763
6	140091	27938.339063729396	727.81954014362
6	140317	27983.242145533536	2724.1176075818
6	140415	28002.391397481274	2162.7815525844
6	140719	28061.917290277546	1328.6157000923
6	140903	28097.547919306856	1123.3171574598
6	140914	28100.770464133516	1351.2166137311
6	140971	28113.058257342731	1876.0513466636
6	141007	28120.628219477409	2531.0544069766
6	141021	28124.668053985336	387.24738196294
6	141386	28190.060354826641	6655.8105340966
6	141533	28219.767620200522	823.92907626135
6	141573	28228.280602609038	774.7994610696
6	141599	28232.422657991711	761.27653416646
6	141673	28248.412521373155	1846.2812374893
6	142034	28317.95579028339	6631.2572536848
6	142415	28392.033605012341	799.64256669638
6	142421	28394.051737289267	1492.5154187707
6	142426	28394.935704256917	785.86500992216
6	142457	28401.864013110145	523.13729466604
6	142538	28416.633902879103	528.89468403614
6	142721	28453.696085892944	3200.6379279921
6	142780	28466.88408469907	793.15068018522
6	142804	28473.073845122336	439.81931611835
6	142826	28476.641684771005	4486.2642755138
6	142839	28479.666563145771	1758.982571171
6	142842	28480.718320680364	3998.7757968697
6	142845	28481.677987442865	417.25826696293
6	142864	28484.873486840958	418.66305953466
6	142891	28489.640135462628	2607.1191084656
6	142902	28492.565325323352	417.62677233348
6	142964	28504.342027599131	2335.0537068204
6	143009	28513.672605186095	2587.2080175258
6	143053	28523.265056911435	1235.3125466672
6	143086	28530.356579623045	1554.9900351676
6	143355	28579.683458531137	2613.4048469823
6	143421	28593.504175021082	3022.3267427208
6	143437	28597.4427376878	1827.2315130312
6	143471	28605.789720423474	3022.3127065751
6	143504	28612.420482849563	2601.6845982143
6	143509	28613.404903310771	15007.008099259
6	143514	28614.447694089125	1813.4280246087
6	143539	28619.90083725867	483.01774087141
6	143564	28625.116740967941	474.36411014021
6	143577	28628.124251735912	452.81716479681
6	143606	28633.414878439208	1249.6160714446
6	143717	28656.735022433896	461.28350027036
6	143720	28657.834270646006	1265.9317182915
6	143791	28670.208799266956	1252.3026464826
6	143842	28681.350947646474	1629.134515602
6	143850	28683.40771905524	1204.7670605386
6	143871	28688.964126430315	909.20578029269
6	143884	28691.868540631937	1165.4362736226
6	143891	28692.797656446746	1164.0986642301
6	144060	28726.172959625215	425.01177238548
6	144091	28732.745289398503	1863.6925482331
6	144130	28740.001496029792	919.36790438485
6	144133	28740.931553345227	416.59463023756
6	144139	28742.944578443521	2982.0304375022
6	144150	28745.740080408526	3615.6535715676
6	144163	28748.998814371934	405.08947304695
6	144175	28751.292868175597	387.43292488087
6	144203	28757.082847078663	907.54434665611
6	144276	28769.885358539649	3536.0515725345
6	144448	28803.514377345105	376.94198838575
6	144483	28810.649331186859	367.42923006305
6	144678	28849.505262829323	914.68681807915
6	144968	28905.900784427913	1238.2726292879
6	145074	28927.68421413559	4945.5225365388
6	145197	28950.914347911865	1271.627126905
6	145303	28973.313294514041	4715.1253167875
6	145453	29004.458106681475	518.60646099274
6	145463	29006.478007206277	512.55486144831
6	145471	29008.381505047766	3643.9619761355
6	145588	29031.571486247382	459.70802430564
6	145613	29036.178199553075	2267.6224355181
6	145621	29038.231126648798	1312.4752915855
6	145632	29041.419150841567	5305.4630603395
6	145669	29048.531478871083	2259.437198631
6	145812	29077.044433020199	445.85210962623
6	145845	29083.647684087562	1332.9190989936
6	145873	29090.10246907934	426.79353015008
6	145915	29097.917446400741	429.77684336652
6	145947	29104.142446085862	878.79198766502
6	145962	29107.130684703919	437.50111813667
6	146100	29134.492023741041	2789.6979018551
6	146233	29163.045351710875	5012.094599735
6	146269	29168.604428446345	870.95029408971
6	146287	29172.184903920028	870.60914421486
6	146316	29177.369787235051	2084.1522818896
6	146365	29188.819095059071	2009.1183940084
6	146372	29189.791106404044	452.41068806961
6	146381	29192.708223578293	2009.6963647144
6	146406	29197.873426141642	845.87162834869
6	146414	29199.788767654687	826.92545665058
6	146417	29200.920294114347	823.50604656731
6	146422	29201.938449169561	801.25708478849
6	146438	29206.05157285906	1546.4961738329
6	146480	29214.793060005229	428.661642389
6	146525	29223.501558513245	1559.3351646909
6	146570	29234.214487924013	2025.5080809178
6	146581	29235.190218350716	414.53509382347
6	146631	29245.738802164938	376.14146479257
6	146720	29266.507263613824	265.44449385853
6	146785	29277.758504344298	3896.0365702999
6	147427	29398.776958428005	867.68576643197
6	147482	29409.495591859575	1695.0476249056
6	147598	29433.172111180665	3147.8448526773
6	147681	29449.959195709564	1265.2367192725
6	147718	29457.099879353829	363.83882537337
6	147721	29457.933042853195	3780.8956817245
6	147742	29463.328347032945	2419.7109100981
6	147766	29469.145806129053	5346.9950711571
6	147789	29473.609915701821	3412.7342513374
6	147815	29477.809189127628	4462.8353032763
6	147835	29482.004417533298	1968.6233666056
6	147866	29486.823815010638	1700.2466782798
6	147917	29497.562876007017	792.15372282833
6	147937	29501.729469164704	3777.4715661315
6	147996	29514.906220558996	771.06701881962
6	148004	29516.851196062158	4449.0085234216
6	148043	29523.955397442136	321.0084500793
6	148054	29526.660130586629	762.97645139612
6	148202	29554.087524510237	769.75565021437
6	148210	29555.935945835586	2348.7658759313
6	148220	29557.718138724256	1145.4339820832
6	148250	29563.676920579251	1125.5931333419
6	148264	29567.614377841231	746.13458941094
6	148269	29568.629871007771	734.57702699541
6	148347	29586.29468069679	7784.7459977644
6	148362	29589.484665081994	4318.3850996924
6	148370	29591.404048036756	663.48650567641
6	148373	29592.311396739697	5611.5340892147
6	148378	29593.321544562997	656.59070471518
6	148410	29599.611602544851	1541.9305304851
6	148509	29618.328963737255	257.95793446951
6	148882	29690.949624607031	660.83622736872
6	149087	29731.902387656055	1122.3240770958
6	149107	29735.748081664153	2954.8467195342
6	149122	29738.425634582777	692.60136769691
6	149146	29744.617295968502	3709.8770950158
6	149158	29746.69398277222	1604.4014365657
6	149189	29752.068027123686	1126.9784350333
6	149198	29755.046323888347	1606.4977383837
6	149277	29772.177477776323	310.42995504065
6	149287	29774.001472820778	1552.9062549003
6	149302	29776.990158607968	679.97505108557
6	149305	29777.813811903418	1554.4127936832
6	149313	29779.890760586289	2960.1984741467
6	149316	29780.927245421586	675.4131801101
6	149332	29785.326546035213	1111.4430699603
6	149340	29787.416438281415	309.59279669604
6	149409	29799.977074302425	1502.0776657884
6	149490	29816.280361094296	6277.3504031886
6	149611	29839.560089358936	1952.6795881012
6	149629	29843.086161365701	1919.891621123
6	149877	29889.897677622609	999.58167596284
6	149885	29891.976363922342	2972.6125048924
6	149942	29902.84555820428	1415.8253645901
6	149962	29906.39866500782	1402.2844174808
6	150132	29937.944786310532	2639.2455873471
6	150146	29940.109806365856	575.91513915959
6	150198	29952.084370512293	319.87050543201
6	150216	29956.143835956846	289.25355043037
6	150219	29957.203175116573	1424.3483307345
6	150222	29958.319155356717	4001.4135474776
6	150233	29961.214483133481	5473.2479943966
6	150248	29964.481902517435	1386.0257092506
6	150256	29966.587370585893	249.34404582595
6	150319	29981.609958677237	5639.4359141976
6	150354	29990.347117180618	1792.4791478925

