version 2
run Second_exit_5-1-20191114-11:42:34-8908
attr configname Second_exit_5
attr datetime 20191114-11:42:34
attr experiment Second_exit_5
attr inifile omnetpp.ini
attr iterationvars ""
attr iterationvarsf ""
attr measurement ""
attr network ResponseTimeNetwork
attr processid 8908
attr repetition 1
attr replication #1
attr resultdir results
attr runnumber 1
attr seedset 1
param **.Source.interArrivalTime exponential(5s)
param **.jobPriority bernoulli(0.6)
param **.PS.serviceTimeU1 "uniform(0.8s, 1.2s)"
param **.PS.serviceTimeU2 "uniform(1.8s, 2.2s)"
param **.SS1.serviceTime exponential(1s)
param **.SS2.serviceTime exponential(1.2s)
param **.PS.exitProbability bernoulli(0.5)

vector 0 ResponseTimeNetwork.sink lifeTimeU1:vector ETV
attr interpolationmode none
attr title "lifetime of arrived jobs U1, vector"
attr unit s
vector 1 ResponseTimeNetwork.sink totalServiceTimeU1:vector ETV
attr interpolationmode none
attr title "the total time spent  by arrived jobs U1, vector"
attr unit s
vector 2 ResponseTimeNetwork.sink lifeTime:vector ETV
attr interpolationmode none
attr title "lifetime of arrived jobs, vector"
attr unit s
vector 3 ResponseTimeNetwork.sink totalServiceTime:vector ETV
attr interpolationmode none
attr title "the total time spent  by arrived jobs, vector"
attr unit s
vector 4 ResponseTimeNetwork.sink lifeTimeU2:vector ETV
attr interpolationmode none
attr title "lifetime of arrived jobs U2, vector"
attr unit s
vector 5 ResponseTimeNetwork.sink totalServiceTimeU2:vector ETV
attr interpolationmode none
attr title "the total time spent  by arrived jobs U2, vector"
attr unit s
vector 6 ResponseTimeNetwork.QueueU2 queueLength:vector ETV
attr interpolationmode sample-hold
attr title "queue length, vector"
vector 7 ResponseTimeNetwork.QueueU1 queueLength:vector ETV
attr interpolationmode sample-hold
attr title "queue length, vector"
vector 8 ResponseTimeNetwork.SS2 queueLength:vector ETV
attr interpolationmode sample-hold
attr title "queue length, vector"
vector 9 ResponseTimeNetwork.SS1 queueLength:vector ETV
attr interpolationmode sample-hold
attr title "queue length, vector"
0	19660	10005.562540062754	1.024362738524
0	19727	10045.177381328377	6.697541351482
0	19755	10058.488882103288	4.741851690615
0	19774	10089.181558845796	2.007862114886
0	19779	10090.346105660729	1.930908252086
0	19790	10093.205928036429	6.09869590383
0	19795	10094.510753199222	0.947378227115
0	19825	10115.137531594893	4.106248686248
0	19832	10117.362108473466	1.042560947593
0	19847	10124.096624992195	0.883514328394
0	19857	10126.110042931012	4.099552209026
0	19894	10133.011474467291	1.014570272363
0	19897	10133.958543918131	5.255657234777
0	19905	10135.941783083917	1.491541490074
0	19930	10155.913098492635	2.291847926931
0	19935	10161.134219603028	1.157280996721
0	19954	10165.535553833213	2.284814781734
0	19970	10173.392370094768	10.560422592534
0	19975	10175.94062774901	1.001109479833
0	19982	10177.838668953244	1.125822176039
0	19985	10178.815457313683	1.608050089847
0	19995	10181.378098598391	1.457619187323
0	20005	10185.427415966454	6.231438403054
0	20075	10210.648198686545	3.625295937948
0	20090	10215.655170027961	0.809410622623
0	20095	10219.537974980978	0.956980559975
0	20117	10232.924276900939	1.448567301767
0	20122	10233.994391143224	9.19262015475
0	20140	10244.161487338399	1.060902257822
0	20150	10256.674454571737	2.940411003266
0	20169	10270.999386409772	0.980232625757
0	20174	10271.947679363666	0.983307333633
0	20195	10291.71301668511	1.737923967821
0	20207	10298.639834793751	0.849408232421
0	20225	10313.998391827737	6.240367416944
0	20230	10318.953438320365	0.807044626772
0	20235	10322.778981320073	1.032372575346
0	20247	10329.643755610998	1.374431822883
0	20250	10330.519645856659	2.792022653483
0	20260	10367.467537708967	2.306452125268
0	20265	10379.034796760693	1.019579169154
0	20284	10382.915704627215	3.168262045831
0	20290	10384.79904019951	4.068157682665
0	20307	10389.700846701939	1.171968965691
0	20312	10390.546474673864	8.585452454592
0	20320	10392.784021297126	2.339494237394
0	20337	10398.55101065242	0.966947385482
0	20360	10404.451651515936	2.900609223172
0	20370	10408.592190045936	7.007427668532
0	20390	10415.63149866348	5.713102485591
0	20400	10421.576129406403	5.095301336675
0	20405	10428.29883258575	1.137144533172
0	20415	10448.284618149294	2.110854883789
0	20449	10455.126439362912	4.959058032951
0	20452	10456.18599780226	7.780833203326
0	20465	10460.408655763683	10.419306260559
0	20480	10464.891610087658	3.336150454721
0	20510	10476.946387039306	11.283242963711
0	20515	10480.344735088518	0.924266793672
0	20525	10483.55627033971	3.014220256558
0	20540	10489.405797751026	3.44877314464
0	20560	10514.110067730948	1.063598727621
0	20570	10522.189766318734	1.197274318803
0	20595	10530.094202146756	6.956178436266
0	20610	10544.350338214758	2.267880903708
0	20642	10560.761535420248	5.308424785478
0	20655	10566.296069723647	0.964503355511
0	20682	10603.535847289201	1.394135632252
0	20707	10611.232764590573	7.704924571584
0	20715	10613.96771876636	6.699464388347
0	20725	10619.405439125845	1.787470792375
0	20742	10623.610446483283	0.917137639046
0	20745	10624.573115032646	2.883921006415
0	20750	10632.173910878685	1.114537743852
0	20815	10667.800980015514	2.870029640864
0	20832	10674.476361631482	3.384800581943
0	20842	10677.682801106802	1.111376743019
0	20850	10679.984868607191	2.92286361083
0	20909	10699.562868086859	5.004695386115
0	20925	10703.665507450367	8.188542370476
0	20937	10708.369955492072	1.101288547367
0	20940	10709.325607512292	1.697257695332
0	20950	10724.628407063898	2.913573207042
0	20960	10729.789347157372	2.104518566231
0	20967	10733.438194022938	0.925762136094
0	20977	10735.337200920615	0.894921679339
0	20987	10737.406985093519	1.508684668661
0	21055	10758.072236709462	4.347374634937
0	21060	10770.077926212534	1.182194597367
0	21080	10779.092857026635	0.907766700443
0	21100	10787.402417734979	2.207766830723
0	21110	10790.967687024681	2.97078337422
0	21117	10795.224045897812	0.983417764027
0	21120	10796.388933076222	1.485584524789
0	21125	10805.383074197303	0.990589532442
0	21135	10815.829276829759	2.249421745854
0	21164	10837.179075217082	4.012276572641
0	21172	10838.950276049527	4.950160674068
0	21184	10840.723327901701	6.500262852908
0	21189	10841.52560613353	4.976825959396
0	21219	10847.699995658102	3.698865082526
0	21259	10856.125873937364	16.178494767838
0	21264	10857.005490409023	7.087835361028
0	21267	10858.197600219491	2.010261582052
0	21282	10863.867378177465	1.143969235662
0	21322	10883.882201224887	1.822621009579
0	21342	10888.588078980775	10.721756176628
0	21345	10889.626712358718	3.404805309024
0	21370	10906.2445825369	6.49973390041
0	21390	10917.005551142191	1.794770558895
0	21400	10926.919673196024	2.599304985675
0	21443	10939.331152669429	2.052252492091
0	21466	10944.100774431596	1.586050950367
0	21471	10944.978010159819	8.255856334417
0	21489	10948.9467479716	11.617854358619
0	21524	10957.79236670412	1.227539502339
0	21537	10960.832918579745	27.688006051206
0	21550	10972.95242690253	1.058505753241
0	21555	10976.54902008184	1.10478110034
0	21577	10996.632071722871	1.060067912944
0	21580	10997.699315828191	5.120030595654
0	21600	11005.429104697402	0.89406431783
0	21630	11026.36202700871	1.662966357514
0	21645	11033.398153824378	3.548956876459
0	21650	11035.707135266051	0.838078066241
0	21660	11045.077731736414	0.886043057777
0	21715	11057.617389501766	8.910997270419
0	21720	11060.157336013993	0.811272262316
0	21740	11073.258172215821	8.308415160179
0	21760	11082.910604656128	5.961155722069
0	21765	11084.289948610209	1.158391386364
0	21770	11098.957383639312	1.165099676233
0	21800	11106.601782171631	7.593073877042
0	21814	11121.388317174917	3.998017841317
0	21817	11122.265697158208	1.053916243805
0	21830	11135.186203755078	0.8014810903
0	21835	11142.70501522403	1.148282255139
0	21855	11157.701762505006	4.361869974101
0	21905	11192.760870836022	1.105309301708
0	21915	11196.337187129241	0.809770633932
0	21922	11199.690450931469	0.884535840619
0	21940	11208.990319015413	1.936288883991
0	21957	11216.790673792594	1.967266786217
0	21960	11217.645893699721	3.313378234937
0	21970	11229.717831959536	1.131890169624
0	21982	11233.189805281659	0.918699186668
0	21985	11234.054215209217	1.294109495578
0	22035	11256.61517297053	1.041455796175
0	22040	11259.548163212721	12.156919093132
0	22057	11266.025745485341	3.050473466329
0	22072	11271.393281859855	1.189196140133
0	22085	11276.834001547647	0.840760769974
0	22090	11282.10124865886	0.999146206584
0	22127	11298.713802233638	0.975453876797
0	22130	11299.630878601616	1.432248803593
0	22135	11302.471144775517	0.949015671108
0	22167	11331.718808499555	0.894256004225
0	22175	11334.117658819282	2.499506082977
0	22180	11341.475096916984	0.913513985462
0	22190	11343.862041435835	1.033015391696
0	22205	11351.435258436379	0.980079412088
0	22210	11353.277465533363	1.026278618816
0	22235	11377.465649707963	5.989649655576
0	22240	11383.205064102947	1.124769068323
0	22262	11395.047328062697	11.541471013061
0	22270	11397.408896421861	3.179172206496
0	22275	11403.289245805623	0.919694865122
0	22312	11413.832490372132	9.717663996421
0	22346	11435.380055598475	1.857312490573
0	22357	11438.303016154402	2.999712750157
0	22360	11439.236768728056	4.87387123921
0	22367	11440.347603464233	6.921122598822
0	22377	11442.360934489481	2.626328345573
0	22390	11448.813960694491	0.884062344674
0	22407	11458.95332721974	5.495073686318
0	22419	11463.560236371901	6.878280289325
0	22422	11464.673043921623	1.224732911624
0	22464	11481.656651545786	9.045139903547
0	22472	11483.406495473445	2.315148224278
0	22485	11487.27649790381	7.684256246187
0	22502	11498.320498904522	1.431264256006
0	22527	11505.402306717847	1.197577617282
0	22570	11520.426195259563	7.022073888509
0	22585	11528.502558786908	5.444825173943
0	22632	11556.028336555744	7.502205962811
0	22662	11561.864327953524	9.352442240785
0	22665	11562.977288527182	14.780465303316
0	22685	11592.225583204597	1.071815775149
0	22705	11609.054421580526	5.624314399869
0	22720	11621.749295170398	1.096977098659
0	22730	11625.368767448954	0.997796093738
0	22745	11639.799609715715	0.84474812625
0	22760	11665.357801533284	4.666431765671
0	22775	11672.964012008388	3.22322925209
0	22780	11673.908042749427	0.903823851421
0	22792	11682.155416710738	2.884302828894
0	22824	11697.662343245424	1.035424374603
0	22832	11699.810720137093	2.336404106366
0	22840	11701.922960145823	6.900075374785
0	22877	11713.486120561117	10.688079199265
0	22880	11714.619616185667	8.484788750542
0	22892	11724.395384004464	0.994884097017
0	22902	11726.350692766191	1.639337551563
0	22915	11730.599348693682	7.061905005417
0	22940	11754.762957908041	0.975598038267
0	22950	11760.333228509916	1.07857717476
0	22974	11770.761388734496	1.884056329685
0	22992	11775.626201786078	17.295675482256
0	22995	11776.587700073584	1.141104887014
0	23000	11778.489635947941	1.062791146152
0	23021	11791.037608738931	1.430252168775
0	23029	11792.923067239707	2.235019354064
0	23057	11796.88991009997	7.038313788524
0	23060	11798.01164673859	5.617579809325
0	23063	11799.06411942871	10.896732836216
0	23071	11801.264036876743	12.671578067296
0	23087	11805.306365028524	9.850108792857
0	23100	11808.912468920561	5.505910875494
0	23140	11821.630254748809	7.782966444646
0	23152	11834.290726996212	1.841160157588
0	23162	11836.259992046374	1.276613880693
0	23199	11845.117601094716	6.743948175886
0	23209	11847.200372712728	13.138617667059
0	23212	11848.306389677659	6.369924510147
0	23237	11853.31865377668	3.592742449598
0	23240	11854.220628456396	10.887977192618
0	23245	11857.626453581275	0.921022523008
0	23250	11870.252231695042	0.891883492563
0	23255	11879.673175422451	0.875560892001
0	23260	11883.99240928235	0.950495890062
0	23272	11887.532097834815	0.939499821718
0	23282	11889.630505903252	3.864887469168
0	23295	11899.250778888467	3.212221732102
0	23305	11914.923752121375	4.107791829341
0	23310	11919.983136696213	1.000035445299
0	23317	11922.830915882105	1.161734317988
0	23320	11923.870537954049	1.743632529832
0	23334	11936.677919417143	1.669932388184
0	23337	11937.583056224965	2.513039095975
0	23355	11942.476644245259	1.09528302364
0	23397	11961.557204020718	1.675501818692
0	23409	11963.98385433253	3.128014596244
0	23427	11968.162923062928	1.069264696982
0	23459	11982.394335962492	1.469053077762
0	23462	11983.40400466233	2.903272976074
0	23487	11990.762043443879	4.993409920372
0	23495	11992.955743487782	3.197652975219
0	23500	12002.459984033284	0.88840685077
0	23544	12011.567403008691	8.961397193226
0	23554	12013.809506537388	3.91826286111
0	23570	12019.011880190334	6.544184290919
0	23602	12080.835388583536	1.171494157147
0	23622	12084.86439513387	6.314588682073
0	23625	12085.963568167387	13.138565630753
0	23635	12087.805873161328	1.7378612155
0	23645	12107.721476317954	1.181558584142
0	23680	12126.375280990424	0.998823990766
0	23685	12128.664319655761	1.142355158646
0	23697	12131.315238665038	2.21632397999
0	23712	12134.617451253476	4.002436819791
0	23720	12136.749052229861	4.282763548031
0	23730	12143.82062132324	1.048132866155
0	23835	12212.221599952657	8.330169927405
0	23879	12235.930118554964	3.497947116141
0	23906	12241.167568339541	15.559507864079
0	23912	12242.945522571303	7.244480664666
0	23922	12246.248149348922	5.911440160999
0	23947	12252.586218939857	5.464353161576
0	23950	12253.744465753758	2.820848316401
0	23965	12273.608905532902	1.186544007715
0	23975	12276.566774090951	0.911733567435
0	23985	12284.199635916409	2.638379898758
0	24000	12293.502937119835	0.871274839994
0	24005	12294.540785344935	5.656006393369
0	24027	12300.551209050989	4.377862651491
0	24054	12305.608529066681	4.867543803094
0	24074	12309.540209560763	4.090576390118
0	24087	12312.646935889512	9.794831799833
0	24125	12328.064965124812	4.54870285828
0	24147	12346.584390677761	0.827644336224
0	24154	12347.649968756053	1.074891936406
0	24157	12348.811705139249	8.009603077095
0	24167	12351.385918476548	1.030742639024
0	24170	12352.354808998596	4.817922971319
0	24180	12354.546275886304	2.013245537993
0	24195	12359.07505093645	2.996660796944
0	24219	12365.089016773591	1.466674973808
0	24230	12368.183003386853	11.63298186217
0	24235	12369.990615749328	1.138351097517
0	24240	12372.846681733926	1.033110862039
0	24262	12389.559940635004	1.116875805426
0	24294	12397.069325698229	6.721498668408
0	24299	12398.214864392641	8.766278880979
0	24342	12408.839367399961	6.602434275493
0	24362	12413.399899361588	15.485271572121
0	24370	12416.150767853557	3.375340411866
0	24382	12426.615644506061	3.030598739766
0	24390	12443.978737581017	1.146669040248
0	24400	12447.449110219915	2.250579422497
0	24429	12459.735820102618	7.233727553162
0	24452	12470.99491014281	14.400085224445
0	24467	12478.647500700581	2.178656469025
0	24475	12480.951391236135	25.617488728475
0	24480	12496.364199332322	0.882658252772
0	24509	12512.783396615708	1.146960712389
0	24520	12516.500507806851	0.925046698842
0	24527	12526.83022757103	0.842640332878
0	24535	12530.069520471041	3.655400058
0	24540	12536.210841182735	1.017433257587
0	24550	12550.271384926837	2.856386905779
0	24555	12559.192520932242	0.920831617899
0	24565	12562.856576888883	2.43680534184
0	24575	12566.433630227006	2.023981186781
0	24614	12577.84672863482	6.675945219583
0	24639	12582.678838375102	8.065328503181
0	24720	12599.730000108056	17.010850834301
0	24727	12601.394241822657	1.191797734518
0	24735	12604.125669424426	0.965987260453
0	24767	12616.214840294318	1.370489701531
0	24777	12618.078331449246	4.163160174854
0	24812	12629.505967949145	5.668866714674
0	24822	12631.479259111453	1.425733254422
0	24825	12632.281485485193	5.387865999172
0	24840	12638.460115679012	1.820923136626
0	24877	12657.593534316207	1.944966187665
0	24885	12665.860770273134	0.885672347713
0	24911	12675.250346697714	1.205953772333
0	24937	12691.022844285434	1.160192017909
0	24975	12704.915254621366	6.258717625177
0	24980	12706.298191627166	0.974148707278
0	24985	12708.394090490051	0.873187844735
0	25002	12721.325853157521	1.407822819126
0	25015	12739.756060607303	1.540811991103
0	25040	12751.898214927072	3.116334896656
0	25045	12764.911355266338	1.165601456445
0	25084	12780.743248533921	1.442198320837
0	25125	12790.800160585039	16.309719055639
0	25135	12794.584447228965	2.384106218536
0	25140	12803.918214602707	1.017511088774
0	25200	12821.884830823894	16.973823231511
0	25205	12823.190487315427	8.681176019389
0	25210	12824.489324389796	18.570660149774
0	25220	12829.425531365054	1.983039022187
0	25225	12830.963848365417	1.156663635001
0	25240	12838.366528919362	3.908456480622
0	25260	12848.848523182957	5.423696944097
0	25267	12866.364476471013	1.157292558346
0	25272	12867.265624044454	1.445807878654
0	25280	12869.34334394586	1.031506404839
0	25290	12875.107603114291	2.135332488917
0	25325	12896.118376714109	11.531394255325
0	25352	12903.448058550215	1.247978007154
0	25372	12908.25879339879	1.062598209176
0	25390	12913.169142289048	3.112135891265
0	25407	12922.032619824491	2.037558010569
0	25410	12923.053619342062	4.676271205462
0	25415	12941.339151491177	0.806926513184
0	25420	12942.68533049247	1.184190969635
0	25425	12948.910707382614	1.123998479918
0	25450	12975.535863950009	1.055507208221
0	25455	12976.555380625737	0.936678634956
0	25485	12994.061042821207	4.156248540618
0	25535	13013.104374577472	6.288067730241
0	25542	13014.419805000868	0.823843616806
0	25550	13022.705106348381	12.294171773033
0	25560	13036.255754981469	2.128509469155
0	25565	13038.663292496429	1.019511520304
0	25570	13048.78851383817	1.004139087629
0	25575	13050.383418409304	1.076053773798
0	25592	13055.672126644516	4.90112944861
0	25600	13058.450271972267	3.046003017617
0	25634	13068.528271007523	1.32312537396
0	25652	13073.540655687382	1.097312921878
0	25660	13078.176587889062	1.031924209837
0	25665	13081.463317488696	1.047818041127
0	25670	13085.586168994849	1.094335346296
0	25705	13106.785698196952	15.70888485684
0	25722	13111.363381110835	3.607471650821
0	25732	13113.428898575683	2.688050420199
0	25740	13116.460923239485	3.101587894857
0	25752	13119.441599750229	2.079137788536
0	25755	13120.409475201544	3.206865947879
0	25765	13122.586213012541	2.027780091886
0	25775	13130.240065669528	1.034943752829
0	25780	13133.690153167312	1.07365131937
0	25785	13142.544584951485	0.911742019001
0	25815	13158.520646598477	6.18601372056
0	25835	13175.215997963623	3.800400308893
0	25854	13191.546380812965	3.734921581249
0	25867	13194.152548758604	3.447703549237
0	25872	13195.217149034713	4.026189844535
0	25875	13196.130894454673	1.125975476017
0	25890	13206.125564425245	0.889959968999
0	25895	13211.033806192866	0.997410703637
0	25905	13213.669626806586	2.337362363792
0	25920	13227.359646401788	2.63396362093
0	25925	13229.038029557452	3.833035027179
0	25935	13237.346981799946	1.026017898693
0	25945	13240.695583828748	5.325186363473
0	25955	13246.808796376379	1.47063326073
0	26005	13277.075588896507	5.319357024134
0	26042	13284.253233320928	1.054248813227
0	26047	13285.091685886505	5.632327699754
0	26124	13301.971335828484	3.650944005712
0	26135	13305.094915614922	13.58377573512
0	26155	13310.527455706181	2.626794328974
0	26160	13333.237498829611	0.903345364891
0	26179	13341.854336371985	4.050084158961
0	26182	13342.994144322411	1.504315968182
0	26190	13347.258930370835	1.092474297248
0	26195	13352.871302810245	1.1754104672
0	26205	13365.843778165668	2.894646796703
0	26210	13374.130995423649	0.889503204171
0	26257	13406.237649740563	1.751642480151
0	26260	13407.074014265375	2.663120432106
0	26265	13410.064669123064	1.156794580165
0	26275	13414.568527727248	2.547689736661
0	26280	13421.830522047495	1.197075165156
0	26307	13429.260114533789	6.004287322712
0	26315	13432.970232396874	5.666319682975
0	26337	13441.483589155824	5.197177399039
0	26340	13442.433161603046	4.751123357231
0	26355	13448.863392550911	0.828387933224
0	26372	13457.827564394976	1.258920490714
0	26375	13458.896997645627	3.214100990631
0	26454	13481.681378014902	2.463820448817
0	26491	13488.937545092919	27.024407843944
0	26535	13517.288026966711	1.079182149004
0	26545	13525.758407002504	2.624736748527
0	26564	13529.928458008485	1.579883707178
0	26569	13530.810967214068	4.287447351974
0	26600	13538.134661361047	9.993161172042
0	26635	13547.127734030425	3.843519130814
0	26640	13548.41041252833	0.801839592028
0	26652	13550.614288367454	9.796928883412
0	26660	13554.091957361927	23.405246810645
0	26670	13567.181857306234	1.159013250936
0	26680	13576.670906282462	3.354263716133
0	26685	13577.767094663396	0.99983379785
0	26700	13583.956311062645	5.133222206316
0	26715	13590.692682372737	3.057510681349
0	26747	13612.090285249262	1.912359882896
0	26750	13612.956451131611	6.656015225321
0	26765	13622.476867402712	2.070288347751
0	26782	13629.923964201861	4.982254620028
0	26792	13632.26254295094	0.849096903019
0	26795	13633.431196130738	3.976258586041
0	26817	13647.597001669563	1.241347559352
0	26830	13650.736235871639	7.479505553047
0	26845	13653.931836584029	11.221484534544
0	26885	13665.852671905722	14.198688909529
0	26890	13668.245005554083	1.069062357023
0	26897	13669.52260879342	1.100244679954
0	26922	13674.907914840746	1.02259255778
0	26925	13675.980261980499	1.336220079706
0	26945	13702.555638959984	1.491685007202
0	26975	13726.974006768855	0.936584383994
0	26980	13729.368335309563	0.988316990901
0	26985	13730.85603131156	0.99954637913
0	26990	13747.822333945079	0.883165922668
0	27000	13751.609879414281	3.304614941141
0	27038	13767.126825226722	5.038926776424
0	27041	13768.30408132446	4.014646747858
0	27065	13775.157361169864	0.904170759395
0	27080	13786.892101211359	5.859525226575
0	27105	13798.27629668385	3.475224485272
0	27112	13803.914202797753	0.934541105386
0	27122	13806.023868175041	0.869052017853
0	27135	13809.243933798251	3.122269870168
0	27160	13817.881216736555	4.143181692661
0	27165	13820.046854828868	4.090553712439
0	27175	13822.512418285126	1.783055280026
0	27207	13835.354155102401	6.335837250462
0	27210	13836.412608453753	1.190811662364
0	27217	13846.125451249573	1.066910106316
0	27237	13854.368665632678	1.173720833287
0	27242	13855.430369925013	1.267125268468
0	27252	13858.531466347911	0.978442796972
0	27257	13859.631485635695	13.873045052708
0	27277	13867.022820968687	2.542826822569
0	27295	13882.234046869796	3.501182582031
0	27300	13899.94824819425	1.00992737785
0	27367	13932.01729452485	1.764924692923
0	27390	13940.519212607146	8.847870620754
0	27402	13943.924046279024	0.872820563801
0	27425	13949.564877479541	25.335863985406
0	27450	13971.826434689111	3.286788223312
0	27477	13978.741964187908	1.364600205239
0	27480	13979.849539668082	2.460779186351
0	27485	13981.252586265279	5.4135540804
0	27527	14013.626376461524	7.622970331222
0	27550	14027.112394494941	1.084642729163
0	27562	14031.053802187313	1.197097447421
0	27600	14041.403973579664	5.782428844666
0	27610	14046.040283638743	2.42900343837
0	27622	14048.592937045876	2.184784826364
0	27625	14049.51734254086	3.183610512409
0	27635	14063.342651173072	1.172794753592
0	27640	14065.316777305028	0.999071600195
0	27645	14078.576754463225	1.099328668602
0	27671	14085.205988101826	1.279294850249
0	27681	14087.117130459917	1.145208569847
0	27732	14099.117069027474	9.363234543383
0	27760	14107.406873068609	12.266375794874
0	27770	14113.214927579624	2.683710092898
0	27799	14125.293188085873	4.418598586622
0	27811	14127.357330092322	1.264358243053
0	27827	14131.444892262108	6.454063841948
0	27845	14139.492886248473	1.333629883949
0	27852	14142.67813744605	1.048358365055
0	27855	14143.486610925798	1.604108298588
0	27862	14148.393263636863	0.947211424168
0	27877	14151.50983728418	1.461422920951
0	27880	14152.589787319543	4.752795989186
0	27890	14163.430134223413	2.592187754129
0	27895	14170.111360796849	1.176799909864
0	27907	14174.110071395533	0.898817363475
0	27915	14176.664330988751	2.876426511071
0	27940	14197.464869479232	3.513264731669
0	27965	14215.241777333387	1.02480296893
0	27975	14220.888586412944	1.015745335942
0	27980	14227.899662667703	0.978065682761
0	27985	14235.2051106277	1.001282058936
0	28029	14276.845426262785	6.866223213158
0	28032	14277.815723792613	2.385162564712
0	28045	14281.364237179677	10.172120702699
0	28061	14285.21227522998	8.708541376405
0	28081	14289.122606147573	2.410719808979
0	28084	14289.92939184022	5.880443385101
0	28092	14292.289662512418	2.24450853357
0	28104	14295.129355386242	20.197468029808
0	28107	14295.929472284268	16.492150266461
0	28120	14307.787090117034	1.036412704922
0	28125	14323.280160486779	1.071199543402
0	28130	14341.610763935841	1.049333869852
0	28172	14354.620916730957	3.032209877483
0	28207	14365.566940586072	5.426550248958
0	28227	14374.332483254071	0.832173147146
0	28230	14375.340532772593	10.50848346513
0	28235	14378.896313582878	1.166843451839
0	28245	14386.134783296323	2.068489261896
0	28255	14393.993165567459	3.017099901545
0	28280	14411.408052423062	5.440577001414
0	28297	14415.845537979411	4.022869077425
0	28300	14416.927510281535	3.29063666733
0	28320	14434.900098612029	6.23736876651
0	28332	14441.227245038903	3.092302846348
0	28335	14442.34640140847	1.826842188498
0	28345	14446.78255030579	2.110413399875
0	28365	14454.530078309402	2.115722378737
0	28380	14479.426379975021	0.803619890474
0	28385	14486.291340473935	0.928233700618
0	28390	14492.557916997051	0.821534669399
0	28400	14499.376470920201	2.628502936883
0	28405	14501.791816364751	0.979302310944
0	28422	14507.947099109911	3.664920467426
0	28432	14510.315063652825	4.387811926637
0	28435	14511.135804320649	1.531837760064
0	28450	14520.096849750467	3.642318195056
0	28460	14525.785337205972	2.15712761566
0	28470	14536.69277590098	0.923648396973
0	28480	14543.660787052788	1.195413666219
0	28494	14546.44667410853	1.105117510445
0	28527	14555.545035961653	11.440679364408
0	28634	14589.785095983617	6.377384018922
0	28659	14595.260413703755	5.115611670802
0	28705	14632.342142265506	2.601249332632
0	28720	14650.969126067433	3.705900242278
0	28725	14653.213918035548	1.14960143948
0	28747	14664.180588431986	1.45455395729
0	28750	14665.21635294394	5.948292147976
0	28755	14672.022564710925	1.121585979592
0	28760	14674.21224818676	0.850452875812
0	28770	14683.977450708677	3.367813454195
0	28780	14691.819228510423	1.614714316815
0	28785	14693.144852982618	3.184460371466
0	28800	14700.671473815054	0.816195424926
0	28805	14709.114724980079	1.008541039843
0	28822	14730.35178965043	1.105958785489
0	28850	14745.531505144197	7.273593824203
0	28855	14747.924827721604	0.970819236618
0	28872	14757.949230550513	1.615890423323
0	28890	14766.125487767243	0.997580731194
0	28902	14782.881914082824	2.354306129331
0	28905	14783.682613906453	1.942352358646
0	28967	14812.254593427605	0.833576904796
0	28990	14819.695932227073	12.908916195597
0	29025	14846.573858903889	10.164809521313
0	29076	14869.671676151523	4.836991697188
0	29091	14872.987388170486	6.094210276744
0	29101	14875.15964677974	1.675557109376
0	29104	14876.341327844722	4.05359525535
0	29135	14884.691224708272	3.98007624354
0	29140	14889.91751515306	1.189881881047
0	29176	14899.596819986656	5.629889290934
0	29181	14900.634588918063	8.432334199473
0	29184	14901.614382299195	2.692369489619
0	29187	14902.567981881528	3.487783484779
0	29190	14903.661896361011	9.734216243087
0	29210	14918.569601532366	2.559244037885
0	29255	14935.406198924603	0.977283202764
0	29270	14944.750630156514	4.189143275627
0	29315	14992.850089095237	1.163021521457
0	29330	15000.096196833969	4.159704173057
0	29342	15002.804512897484	1.729275576463
0	29399	15022.21704501864	9.284756080112
0	29404	15023.41486933418	5.376710139702
0	29439	15033.636382677169	2.778655284829
0	29462	15042.968950322723	1.080315776076
0	29470	15046.069609565735	5.655605027583
0	29485	15056.678370464147	1.17687369439
0	29490	15061.113156286033	0.942301215697
0	29495	15067.096084108546	1.065972214472
0	29510	15083.56553985879	0.832488839794
0	29537	15119.318093041052	2.134447847713
0	29562	15130.46439880405	1.026031886693
0	29565	15131.320809016213	1.634660471065
0	29585	15136.753965541203	1.181020728312
0	29590	15139.146087322637	7.096316584727
0	29605	15144.000219496915	2.88643860558
0	29625	15158.357019568393	1.050871759187
0	29635	15163.387294769514	1.070685763843
0	29655	15178.955762571629	3.928514649073
0	29704	15189.580476792183	3.282580925912
0	29761	15202.847128771932	20.640404101733
0	29781	15206.81398226231	11.689638013012
0	29840	15224.224070937478	0.94051820403
0	29854	15228.19901200693	1.092253464926
0	29857	15229.341613654065	2.148979433819
0	29877	15234.665210929954	7.07985636811
0	29900	15244.568870072235	2.470453729482
0	29950	15262.974434674204	8.794000202724
0	29955	15264.36029887155	0.983120344859
0	29965	15267.91861805238	2.33499451072
0	29975	15271.765936055359	1.003525133431
0	29992	15289.194705998876	1.39185371327
0	30020	15300.779291296923	3.118602374186
0	30030	15312.259781540199	1.057929476351
0	30035	15316.566187212226	0.983119846508
0	30040	15320.853997779613	0.874267134629
0	30045	15322.276417637991	1.127763969917
0	30050	15340.550631486706	1.101670779474
0	30055	15344.15477215884	0.886393112876
0	30060	15345.432985036658	1.167846862506
0	30085	15371.32266027871	7.928072815899
0	30090	15378.147777899993	0.919983919524
0	30117	15384.760826002508	5.889507484596
0	30127	15386.554795937128	3.983647465017
0	30152	15393.101924569053	7.157942061158
0	30155	15394.186212396515	3.773814794395
0	30160	15395.806591710016	0.937857981119
0	30180	15406.474314617776	1.464133701792
0	30190	15409.636844409055	9.914996568101
0	30207	15417.726072753471	4.448766528525
0	30210	15418.80885214337	2.385069331645
0	30237	15438.671851811092	1.394985134679
0	30245	15442.374011796443	5.578063833444
0	30277	15489.112949793229	2.764310639473
0	30280	15490.049480433764	1.284527717196
0	30295	15502.487356129968	1.058020255435
0	30300	15503.717065315344	5.916193409099
0	30355	15530.82306285377	4.250878011403
0	30360	15534.920325222189	1.001664346736
0	30365	15536.30057422021	0.823210182507
0	30375	15546.700940256115	1.196678319015
0	30385	15555.842617197279	3.314474969109
0	30390	15559.108226680029	0.946483338811
0	30400	15567.398447059482	0.899908529874
0	30417	15575.96704872953	3.059648980424
0	30425	15589.889553473139	1.001178416517
0	30430	15592.697438345231	1.073893512413
0	30435	15594.783413764548	1.112508828752
0	30450	15601.568760807781	3.763364109278
0	30465	15606.27707549937	3.197711336006
0	30480	15624.834986807466	5.912638754755
0	30485	15635.707359773814	1.148939641099
0	30527	15651.38701888007	4.344608721271
0	30530	15652.383988264398	1.808231612916
0	30535	15653.582031669871	1.096671233512
0	30550	15664.035372268543	5.265196598671
0	30555	15665.901415678355	0.817091052793
0	30570	15673.275092172458	2.326607280886
0	30612	15690.679507254817	2.348458682083
0	30620	15693.462077629447	3.218591239855
0	30645	15717.615969756426	1.534181382288
0	30657	15737.746517381402	1.531930828948
0	30675	15745.734168447507	9.985448284256
0	30680	15746.88078685518	4.240933396761
0	30705	15759.835731453169	1.117802673485
0	30720	15765.204546821818	1.842917758199
0	30735	15777.688063679929	0.940565738082
0	30752	15783.384540992943	0.991190256923
0	30760	15785.298507349044	5.592302301363
0	30777	15790.800628567206	1.961378710889
0	30797	15797.217535178878	5.912532860524
0	30805	15799.627048462848	7.751676476681
0	30810	15801.92788649209	0.879925909266
0	30820	15819.312603720492	1.155384948384
0	30827	15835.244276911452	1.170608234685
0	30830	15836.272965940706	2.132656766923
0	30835	15839.727319609864	0.906390798837
0	30840	15841.163030789797	1.087714465149
0	30877	15863.585888497484	1.291057480338
0	30890	15868.821296757971	9.657697410919
0	30895	15869.983759101998	1.06958272839
0	30915	15890.9353999467	2.596511835293
0	30937	15895.933318748342	1.162400797892
0	30950	15899.794932605644	8.338911191582
0	30957	15900.65354387187	0.821626999602
0	30960	15901.723451445387	1.424661068002
0	30965	15905.514287557158	0.915970064234
0	30981	15912.396078879803	1.892558267035
0	30993	15914.138999425105	3.777249674499
0	30996	15914.972346007589	3.06824616616
0	30999	15915.819648156173	2.339453619026
0	31002	15916.679832721732	5.804994424276
0	31010	15919.360610380135	1.123594434652
0	31015	15921.448105415369	7.585876577401
0	31020	15922.983374444343	1.187986850273
0	31025	15927.024268609966	1.065785732865
0	31035	15932.534290967581	2.25923114563
0	31047	15935.217952213979	1.7466862309
0	31080	15949.052969235578	1.161440410186
0	31110	15969.12180296355	4.359289169002
0	31115	15975.922062608456	1.182471661083
0	31120	15984.45842145305	1.011955134012
0	31125	15994.352681311656	0.846597773954
0	31130	16002.433171708878	0.946010097302
0	31135	16005.691067551186	0.887773387879
0	31147	16008.059976748801	1.523493085409
0	31150	16009.014121951494	3.064861558471
0	31166	16014.453649823406	1.630164694912
0	31169	16015.638131988366	2.038879466486
0	31195	16023.461913754565	1.121616213303
0	31229	16033.758385127518	1.652473748449
0	31246	16037.013123930353	2.478997595961
0	31249	16038.088013830888	2.189355078177
0	31260	16041.824898243793	7.875862439353
0	31290	16058.509819083653	3.592275020971
0	31295	16059.871316836064	3.534059460597
0	31305	16071.367673117832	1.110178789496
0	31345	16089.920107046219	1.048645477184
0	31359	16091.880023068559	1.066968115237
0	31362	16092.726710236349	2.645983203594
0	31392	16105.628627017435	8.582353852423
0	31402	16117.474837130271	0.815061556362
0	31410	16123.999378798674	0.903495326452
0	31420	16128.402114976278	2.215206101302
0	31430	16132.207618233302	2.145413084123
0	31435	16134.521528406036	0.860957638361
0	31440	16138.826252999084	0.855690927431
0	31460	16144.053190901242	4.865839141237
0	31480	16149.566371901653	1.722873858005
0	31526	16161.394495597345	6.086303093076
0	31560	16169.408960423396	13.018113130305
0	31585	16181.829913510218	1.068668276072
0	31607	16190.826424644557	0.876085354155
0	31619	16198.389529913275	1.160591707844
0	31634	16201.026984253231	3.470116838119
0	31645	16204.4851978023	6.133152061205
0	31662	16210.549730934595	3.903345532962
0	31675	16214.077924427403	4.355221604115
0	31685	16223.922177768165	5.002656734461
0	31690	16230.743271558399	1.060381981637
0	31720	16244.23638995781	7.463073194487
0	31767	16274.461207739961	1.158840732742
0	31770	16275.385315343317	2.003378885274
0	31780	16277.941587706092	2.16148672707
0	31810	16300.301677939848	0.919631050713
0	31830	16309.359872579538	14.484848554444
0	31840	16313.426323955605	7.468400269644
0	31845	16317.450787238249	0.822567916662
0	31850	16331.075470967696	0.922720799875
0	31860	16335.395083531503	2.41372458111
0	31867	16361.177082677431	0.845836127829
0	31870	16362.357465272083	1.911836915387
0	31875	16363.812960468309	0.993710538652
0	31890	16374.988748263332	2.621079663068
0	31902	16377.194181033738	2.097923916622
0	31922	16381.400700380384	1.808204703038
0	31942	16386.480903379636	3.756039381235
0	31945	16387.653277106507	1.35309407
0	31955	16397.939110665969	3.843216757897
0	31970	16410.096817902315	2.944176295493
0	31980	16413.883004149294	1.765391265334
0	32000	16419.520229595471	2.714863632529
0	32020	16427.842894485114	0.896089586988
0	32025	16429.512509567593	1.01656315485
0	32030	16431.735292702302	1.063987655565
0	32047	16449.874907214057	5.092109128928
0	32050	16450.979996159163	1.163164689479
0	32074	16462.140732679704	1.345746202431
0	32077	16463.274132864831	8.516843642091
0	32090	16471.080037801804	1.0693190719
0	32095	16472.799948798853	1.158824198321
0	32100	16479.518869899544	0.82074440401
0	32105	16485.167521141101	1.031757190824
0	32160	16516.789706720435	10.233148765929
0	32179	16522.364862710802	4.278250598765
0	32200	16527.332274267082	3.893793372541
0	32212	16530.946222267731	0.974084544182
0	32215	16531.88831269691	11.465684626211
0	32235	16548.28300704035	0.997799252439
0	32260	16553.882394646748	2.54643984245
0	32279	16566.953112227431	6.163402446096
0	32282	16568.022838932889	1.422220102101
0	32295	16573.813422966107	7.012927103687
0	32310	16598.034623526975	3.819509019845
0	32315	16601.323740999008	0.961246403493
0	32322	16607.267012700618	0.89812510414
0	32342	16613.229802944418	4.563677263319
0	32345	16614.418174994178	1.304410630913
0	32352	16621.198577034843	0.894020420033
0	32405	16667.602087270285	1.154389843531
0	32425	16678.19334009764	4.420035548035
0	32450	16695.022917727591	3.930934311719
0	32495	16715.754737512947	2.921375343948
0	32510	16725.682997247576	1.218601397577
0	32539	16731.32615448594	1.97132372634
0	32542	16732.310496917403	3.479182641225
0	32555	16737.025852367307	2.140031152488
0	32580	16743.566297395952	8.73154430895
0	32595	16753.553093612164	3.087307704478
0	32605	16760.900686026375	4.20466065414
0	32619	16766.108451843067	1.344932539025
0	32622	16767.079518015302	1.692867784243
0	32657	16782.692057326628	1.509037146354
0	32660	16783.584984766139	2.114146090654
0	32675	16798.951769898507	1.085213816073
0	32700	16807.604156256604	4.177597905654
0	32705	16809.532942768091	1.074840698298
0	32710	16824.903300879388	0.905793241411
0	32715	16841.214955339616	0.926725378819
0	32734	16864.988661638394	2.098502347425
0	32746	16866.852655129347	4.012066402752
0	32751	16867.717501501858	4.716701977209
0	32754	16868.53557309604	1.741659170096
0	32765	16871.104749850023	3.753050540607
0	32775	16899.648779541795	1.14053981863
0	32814	16919.037960093247	5.223473327552
0	32817	16920.004701837117	1.202789241908
0	32822	16920.980794646369	1.998149362337
0	32860	16967.588967587381	4.008111883999
0	32907	17004.530653890895	1.155251644179
0	32922	17008.492305848026	1.79175672064
0	32937	17012.297385718764	0.986140103638
0	33012	17036.649360247449	12.035841610681
0	33032	17041.800309613435	1.877061780442
0	33065	17062.111550770156	10.299484331808
0	33085	17084.918063517851	1.159995270055
0	33140	17107.813048570726	2.387242267288
0	33150	17117.538824227969	0.809680303559
0	33155	17127.799973643089	0.838413920719
0	33160	17146.466090996842	1.136708692089
0	33169	17147.63022278936	0.987235300243
0	33190	17157.204874094494	4.964341774305
0	33204	17163.062624037395	2.433103130559
0	33207	17164.195366510133	1.742684752494
0	33237	17173.064850701101	5.950391703937
0	33245	17174.702517629217	1.117032686262
0	33262	17179.555426952423	1.272681176787
0	33313	17189.813544480557	3.524238048666
0	33319	17191.710967072247	15.119148268424
0	33348	17197.144746733231	2.314389765209
0	33356	17199.09492044268	4.829771705528
0	33359	17200.166483112479	3.226036284512
0	33364	17201.05889873715	15.457525865649
0	33401	17208.490570123949	1.807388754829
0	33411	17210.486894468301	9.869465894664
0	33427	17217.92051263277	0.910846282076
0	33440	17221.852770126081	4.54747631634
0	33447	17227.256652659625	0.994389551319
0	33455	17230.325071345087	1.16115664579
0	33460	17236.217782456595	0.869072248787
0	33465	17238.353038116051	0.842734297086
0	33499	17255.018766744107	4.244891596336
0	33509	17257.170131428026	2.643683726689
0	33519	17259.037928546637	4.941625945108
0	33524	17260.224905641049	2.300669624026
0	33529	17261.110731418382	8.856436642828
0	33532	17262.208923112087	1.287155817308
0	33540	17269.0901252596	1.111831123754
0	33547	17276.310628281432	0.970652545523
0	33555	17284.376413050701	0.95917563159
0	33580	17297.951006061379	1.177301331609
0	33592	17304.178671638075	4.714669659753
0	33617	17310.586321771375	1.662005631705
0	33625	17318.756552158133	1.154541737959
0	33632	17323.654023536482	0.900881368294
0	33635	17324.671615462099	1.773483371697
0	33645	17333.847719737483	1.150172631443
0	33670	17348.326673444492	4.834205941555
0	33675	17349.59232309018	0.803614575975
0	33690	17364.717974979164	1.149879174
0	33695	17370.422636674043	1.198119161092
0	33719	17377.430191680603	1.111956403292
0	33722	17378.230223253928	3.234584022437
0	33742	17399.678073303812	0.973919510748
0	33780	17410.418019631482	14.839617590825
0	33787	17411.775812079626	1.18052295642
0	33807	17415.500748415999	0.870195214633
0	33827	17429.536411726457	6.931135831266
0	33855	17438.203663750452	3.54108639967
0	33882	17454.737306007211	1.878498984148
0	33930	17484.208752707931	1.004318781663
0	33935	17485.879941874672	1.088698242418
0	33952	17503.833471450139	0.934503178578
0	33955	17504.956299931765	3.331596621548
0	33975	17520.373063001672	4.7914110327
0	34000	17533.909041057019	0.924811795633
0	34005	17535.413962170646	9.704397136325
0	34010	17536.650285078738	1.155933374166
0	34015	17542.647850344817	1.020391898695
0	34030	17553.642666752857	1.03886266565
0	34050	17558.518956008908	10.038998374894
0	34055	17560.646379434838	1.083126597293
0	34060	17575.93419462038	1.062435453571
0	34080	17593.980429951341	6.007314113121
0	34095	17619.144107701071	2.42444222005
0	34100	17631.733798568544	0.826288050599
0	34105	17635.143340144619	1.148593534529
0	34137	17649.571827029437	3.318516780034
0	34145	17655.273351275931	1.076491313148
0	34152	17658.445075492911	0.929592168145
0	34182	17664.659225755147	7.121687177451
0	34205	17671.645371202426	3.995082183804
0	34225	17684.804546424585	8.204794218475
0	34264	17696.142220175302	5.925841553324
0	34267	17697.160363061389	8.868338768099
0	34305	17712.189598686728	6.289622611795
0	34312	17732.379567777949	0.93496133266
0	34325	17735.317821532327	3.700618834145
0	34345	17743.024170474972	6.726511039093
0	34350	17745.859905074138	1.117131639924
0	34370	17762.433585464754	6.04735206473
0	34385	17773.079958716467	1.043233191688
0	34402	17779.701034400319	3.512490088838
0	34405	17780.550925772903	2.629784523416
0	34430	17794.180985824439	9.898875749425
0	34442	17809.189828869663	1.484281663164
0	34452	17811.230788157657	3.72662601648
0	34457	17812.22020881312	4.283661688124
0	34470	17817.05088328087	1.955079058439
0	34477	17818.875592290319	7.489390451557
0	34535	17861.411455349542	0.959439350013
0	34540	17864.082822922104	1.12301263418
0	34552	17868.966887233323	3.596007839063
0	34564	17871.033495411566	1.935146971661
0	34575	17873.801579961255	5.189626343907
0	34582	17875.06136203642	1.10352683533
0	34605	17882.47614634261	11.900964088067
0	34662	17903.130933536406	0.836905008648
0	34667	17904.098678465936	4.788806572115
0	34675	17906.782256450693	13.793699250082
0	34690	17919.228744287641	0.80753340926
0	34713	17926.640139185247	2.956722488255
0	34726	17929.622712043003	3.163701735622
0	34734	17931.776896361803	5.510809172825
0	34747	17935.197465570996	9.971237907922
0	34752	17936.107578055168	1.863199910945
0	34757	17937.065895861553	1.601997154767
0	34824	17960.356251634446	4.838179312063
0	34827	17961.444021901556	2.283676475112
0	34842	17968.056284637633	1.135480539128
0	34863	17973.537622395649	11.003286685344
0	34866	17974.620210753593	7.40402083461
0	34872	17976.631075677394	16.686500824949
0	34884	17978.709664139909	5.491181756399
0	34905	17984.814448185715	0.985845345724
0	34925	18023.973816236411	3.62938286601
0	34940	18067.271603612279	1.007889806479
0	34945	18077.023458151232	0.985493476037
0	34975	18091.244044269291	6.979175555345
0	35025	18134.049275357507	4.432593169825
0	35030	18153.467482603574	1.017516819108
0	35045	18173.364146384069	0.952065801527
0	35079	18187.672440653433	2.988153646607
0	35094	18190.448431545355	5.626287034807
0	35115	18197.980145504845	2.266985214352
0	35132	18205.597296967998	0.961107496824
0	35135	18206.595135164808	5.149591543761
0	35145	18214.095586326223	1.981097013294
0	35223	18229.959984003927	13.391856148246
0	35226	18230.974720594461	13.405369219505
0	35240	18235.117105693636	10.644733470185
0	35245	18237.255119058414	1.032289012708
0	35255	18241.546188583372	1.382019198431
0	35275	18257.121613298948	0.893936923053
0	35280	18258.330769272656	0.986478733458
0	35316	18268.358206206767	2.118654758659
0	35346	18274.29972054262	6.662861023481
0	35355	18277.043307148034	5.727225336567
0	35370	18281.960508027263	21.569974946877
0	35375	18283.51525671417	21.829936342166
0	35382	18290.160809674953	0.907277171407
0	35405	18297.747752686791	4.71819018632
0	35444	18309.457337881294	8.095967234197
0	35460	18313.983115574885	2.757530763244
0	35474	18317.569007507076	1.183945596498
0	35479	18318.605019569227	3.32332345422
0	35512	18326.55256386246	9.571581911823
0	35547	18338.830661284799	1.855034054547
0	35550	18339.998014018281	15.47686864589
0	35585	18362.413946693903	3.732017253315
0	35610	18386.227803941759	1.156535549648
0	35629	18393.162118067983	3.399103205831
0	35632	18394.007596954442	1.756266057504
0	35645	18397.567360680082	4.815034572836
0	35655	18408.674072177041	2.659220889127
0	35660	18414.247365032344	0.858772058692
0	35681	18422.317595337648	1.713438018114
0	35684	18423.313443385661	2.249434542092
0	35687	18424.442927331236	5.364164545202
0	35695	18426.517757322212	1.701920297578
0	35721	18432.820582826092	1.612739232923
0	35731	18434.961016076087	15.774458530786
0	35736	18436.121990018181	2.867628430879
0	35774	18444.070814366109	14.229272774465
0	35799	18448.990065601963	2.787874051317
0	35802	18450.134475190035	3.390297622452
0	35826	18454.333743004343	2.246335461817
0	35829	18455.176735163881	11.809310825002
0	35834	18456.171185534942	17.290930130108
0	35840	18457.944297045591	2.695814016439
0	35845	18459.434265649082	8.106267431244
0	35850	18468.642832032024	0.942772296257
0	35870	18499.659009250852	1.149269231688
0	35875	18502.503361859547	0.937039230391
0	35912	18516.132658538339	9.250447924523
0	35915	18517.161494729412	5.817352002016
0	35947	18525.618168543759	3.505034955225
0	35960	18529.809702248968	12.492218054364
0	35980	18536.589988796851	6.698742918693
0	35985	18542.127168985609	0.810558507778
0	35995	18571.714652761406	1.025747953169
0	36000	18592.894621271673	0.810488486476
0	36020	18606.588539871658	1.713572354834
0	36060	18621.682100336577	1.195959112169
0	36077	18625.196163421634	2.800789041723
0	36100	18633.614060680971	2.211005070711
0	36105	18639.545454449042	0.911400649976
0	36110	18651.566290438451	1.094055023696
0	36132	18669.955884441705	0.845750574488
0	36172	18680.404514750352	4.91695601886
0	36212	18689.039361956162	19.212173240348
0	36234	18694.259639258022	9.798137483455
0	36245	18697.135132460195	6.297154087388
0	36257	18705.867554852775	1.178542304877
0	36260	18706.756646168454	1.431830893067
0	36287	18714.157800792254	3.500684901023
0	36290	18715.242624611318	5.177090787515
0	36337	18737.185677971191	3.403323176918
0	36374	18763.844783724396	6.396891412177
0	36424	18774.381947198249	16.199955876462
0	36449	18779.243546429575	11.499274520982
0	36467	18783.233173870129	21.108579428868
0	36475	18785.909777741361	8.146985251656
0	36484	18795.669127934251	1.164545928966
0	36487	18796.712772680458	1.132522129173
0	36512	18804.471893740713	6.17017509028
0	36515	18805.502227986592	6.343394190655
0	36580	18875.727506271129	1.038414583541
0	36602	18893.567782403927	1.137859461643
0	36620	18903.190574728834	1.196115098707
0	36635	18913.383777863505	2.42106784806
0	36679	18927.33023615618	3.324180431844
0	36682	18928.449026930227	7.901898988498
0	36685	18929.451519179146	2.261595219675
0	36690	18932.535428968617	0.904878296703
0	36695	18937.331486483445	0.805058341566
0	36735	18972.106484193675	4.054790932839
0	36745	18977.083155937964	2.780212303499
0	36750	18986.630337341724	0.892409438826
0	36762	19003.630117919073	1.069127985835
0	36765	19004.57828354599	3.537872903448
0	36774	19017.956328600596	0.848967189994
0	36802	19038.428033845152	1.369815653482
0	36830	19065.25886932099	1.150393619016
0	36857	19081.007904218284	1.024962059874
0	36870	19085.193311720362	0.883871916775
0	36877	19087.101425737103	0.803857629374
0	36880	19088.226902945859	1.689625627782
0	36895	19092.942585334088	3.758993155768
0	36910	19103.081098005753	2.330783046268
0	36944	19113.626620574237	1.666133686239
0	36957	19116.718576850794	8.329587298463
0	36967	19118.604632997471	9.884621691746
0	36970	19119.537777375481	6.12473819155
0	36982	19121.562019625253	1.436085292556
0	37004	19127.244940424841	7.675103019455
0	37007	19128.383287265934	1.922118822167
0	37022	19138.43383124003	2.634129025345
0	37030	19142.612039478082	4.646064414185
0	37050	19154.482855831313	6.16667785636
0	37055	19156.254635880941	1.138159823883
0	37067	19162.824828260238	1.736368992006
0	37074	19163.81259144166	2.91493768748
0	37085	19166.869396398621	3.552435129599
0	37167	19190.312186625217	8.149209596156
0	37177	19192.968442556103	11.509298758028
0	37194	19195.755549089731	2.322666132817
0	37197	19196.931932715168	16.686280331939
0	37205	19208.135908701514	1.180281248409
0	37217	19221.185777320915	6.005781880202
0	37230	19227.423801784237	7.181267511344
0	37245	19245.441809874001	4.311929106586
0	37265	19273.184516741823	4.806836250635
0	37270	19281.642969961514	0.868605006766
0	37292	19296.501098702426	5.060849379898
0	37304	19298.738669481265	4.467924688493
0	37315	19301.629516455389	5.826038704555
0	37320	19307.455524043187	1.108243330475
0	37337	19316.569326432915	2.100884088103
0	37340	19317.649778924537	5.433524001644
0	37360	19330.843382584813	1.135892666783
0	37372	19332.799919161397	6.534320287244
0	37407	19340.273888270485	1.020550977625
0	37425	19348.257773461194	0.908127546869
0	37435	19358.219013523613	0.859839102905
0	37440	19361.873077295705	1.179532904271
0	37470	19385.91417395771	5.087607425502
0	37507	19420.54675324984	1.006741657622
0	37542	19442.242895662831	7.120471008019
0	37545	19443.259516666038	4.78394734357
0	37550	19447.12889493166	0.967220206559
0	37555	19448.462826362334	0.989757049643
0	37569	19451.293257140385	1.630079675204
0	37572	19452.148425460903	2.900822010637
0	37600	19462.355013591482	8.3776231221
0	37610	19475.064231829537	1.02258771304
0	37649	19496.43928622339	2.265773633772
0	37652	19497.379961472154	10.354478704333
0	37665	19505.173251047549	2.330677375564
0	37670	19518.41814684711	1.029343298264
0	37680	19526.491962648338	0.964728959929
0	37692	19532.067976006469	1.020227831788
0	37724	19538.856858923153	4.632804742384
0	37734	19540.66732762601	6.920932019968
0	37737	19541.560889483483	1.764177902771
0	37747	19543.879573665435	1.004516629316
0	37765	19548.112543313397	3.940292326669
0	37787	19556.805044276793	3.677801843329
0	37790	19557.995784779046	3.232565561604
0	37795	19566.24599599022	1.057532310765
0	37800	19576.148607017135	1.106604630966
0	37841	19588.482206266722	5.978535187522
0	37873	19594.674113567894	9.709332289393
0	37876	19595.478773345774	6.076999366428
0	37879	19596.501313907163	6.168669600337
0	37882	19597.323229903983	14.57844708826
0	37900	19603.3591540023	3.405186856729
0	37910	19606.282533716075	1.354060229104
0	37915	19608.676163824807	4.314912253648
0	37922	19620.580621538001	0.811528839078
0	37930	19623.209692261137	3.349803084943
0	37935	19624.23546321877	1.015774160996
0	37952	19636.845393739656	2.981754337437
0	37995	19658.673634726181	0.973654110637
0	38012	19669.939628033335	2.995853594049
0	38027	19676.099478784154	8.815011383976
0	38037	19678.359860717747	1.068116617482
0	38080	19704.161663604662	5.034819859119
0	38092	19715.775628865506	6.298136864513
0	38105	19720.770444070753	1.016532659624
0	38110	19732.181051537541	0.915146309324
0	38132	19737.337601694099	4.857948115752
0	38162	19754.697591352703	0.822977759223
0	38190	19766.397193115463	1.191684787162
0	38195	19770.055414267132	0.930095834564
0	38205	19787.320911523222	1.140032807272
0	38220	19793.063582282953	5.570323988762
0	38326	19823.269541414556	1.189903671952
0	38339	19826.294395781596	8.186057561402
0	38365	19834.268431813774	1.84041926841
0	38377	19840.038286969554	1.002880118974
0	38380	19841.210107021615	10.009245116165
0	38385	19851.209625518437	0.99538184898
0	38407	19865.651047639446	1.950554514813
0	38415	19867.539327459773	1.766536988733
0	38425	19869.937437479672	7.420924375038
0	38432	19872.156724882717	9.324741378389
0	38435	19873.323430058392	1.229370030279
0	38480	19892.665812343756	10.827489299121
0	38532	19908.949811475959	10.628728296494
0	38551	19911.559613601167	11.055278897285
0	38576	19916.594204268467	2.053000673469
0	38592	19920.606156592491	18.235847789403
0	38650	19939.239470129032	2.27283879462
0	38662	19963.616387781831	0.874239166547
0	38665	19964.653819442032	4.202438805656
0	38680	19978.227377973552	2.416404430909
0	38700	19986.525656493589	2.495701738231
0	38705	19990.942181754198	1.129844061472
0	38720	20000.521164713102	0.939101106301
0	38725	20001.670235986316	0.907046661619
0	38735	20008.179942352452	1.187726620864
0	38745	20012.099151712474	6.935993604404
0	38750	20016.018082033684	0.926148842927
0	38767	20021.016526368237	2.898791205821
0	38777	20022.961183921504	4.965289777155
0	38792	20027.273934342311	1.083731208928
0	38795	20028.304876420059	6.112040466273
0	38812	20032.756432912963	1.68700340589
0	38846	20039.112702201492	4.14216122782
0	38897	20054.805334073659	1.482118846395
0	38900	20055.698464775719	23.216538843765
0	38920	20074.458054682433	1.100642602239
0	38925	20076.002778751714	4.300536128377
0	38959	20086.148047785785	2.319602552434
0	38962	20087.174284580581	8.866966891127
0	38977	20090.800313866021	2.638403459001
0	38980	20091.955285233421	1.829501602211
0	38990	20093.854818866231	1.252901774461
0	39035	20111.199591791015	10.189829911667
0	39045	20114.470491101507	9.484368247493
0	39075	20126.122104592963	2.180165354964
0	39085	20128.424396314691	1.008601927385
0	39090	20130.8346128226	1.185816156771
0	39100	20140.654046458607	2.803782919437
0	39110	20144.419830050426	2.441313661932
0	39125	20150.405117307585	4.4940037719
0	39130	20153.148679362663	0.942695737537
0	39150	20171.790111638319	2.386107672774
0	39155	20178.273271932542	1.042467107438
0	39179	20187.198036815509	1.057496041525
0	39189	20188.985234938286	1.210409203665
0	39210	20193.548331366949	7.291819544263
0	39220	20196.792255973053	0.927036118196
0	39275	20216.326889484335	1.025919449143
0	39280	20218.934605721738	0.837108347658
0	39302	20241.59444410405	1.176797644234
0	39307	20242.520350520824	2.888315011468
0	39327	20249.523082014884	7.429773604276
0	39335	20252.826515370672	3.394706247771
0	39345	20261.352167309847	3.627736818104
0	39350	20269.179553298357	1.042906226218
0	39355	20274.957355135414	1.084827009123
0	39380	20285.338205232322	4.312872769657
0	39385	20286.276677793922	7.174010504747
0	39390	20289.36252431973	0.927389189042
0	39397	20292.715423715326	1.109003571421
0	39405	20295.229761671013	3.530592573044
0	39415	20304.810489527012	5.19090040753
0	39420	20317.24579035839	0.83759732144
0	39460	20334.833618695947	6.032624256647
0	39485	20347.165787200766	3.567258833887
0	39490	20356.744904484982	0.805282584019
0	39520	20368.070229233679	3.924731295836
0	39550	20377.682996359348	1.092331765499
0	39565	20393.987123488783	1.169156306889
0	39585	20406.082579113514	1.014840696752
0	39595	20413.344714161958	0.99000996016
0	39647	20440.028959228063	9.171720584438
0	39657	20441.893637942115	5.727040753186
0	39685	20452.944917357599	0.969083583448
0	39712	20467.918251124985	3.894615901504
0	39720	20469.908045486297	1.754507380549
0	39737	20473.865241225042	3.336786169916
0	39742	20474.975004804858	3.044179246575
0	39745	20476.161208084484	1.464445793518
0	39752	20477.8353399554	1.119104126282
0	39757	20478.894265869699	1.13873548526
0	39760	20479.897333508517	1.172099299211
0	39765	20482.37271665829	1.119020291883
0	39785	20489.559530274266	5.553704489001
0	39794	20502.474910805241	1.032366291247
0	39830	20512.682858746264	8.182718226908
0	39835	20521.850664483114	1.115355081763
0	39855	20533.723273511636	4.88533887386
0	39905	20557.783379051558	10.811399108395
0	39910	20559.883490057311	0.977067122422
0	39932	20569.182158377521	5.138417362775
0	39960	20577.166252833873	3.84622542633
0	39970	20592.319558055079	1.191128350608
0	39980	20596.646496631574	3.928288693293
0	40030	20627.852099857447	3.302255602928
0	40045	20634.519771049057	1.378870033725
0	40060	20641.637429806744	3.24564876341
0	40067	20665.347890979169	1.190703508258
0	40070	20666.439418398613	1.174014349581
0	40075	20669.946400746396	0.913473005686
0	40102	20693.955753058906	5.289801180928
0	40135	20706.135462293224	4.635920297669
0	40165	20714.985298891729	4.846490534073
0	40179	20717.260177627085	1.298788609499
0	40190	20720.588008876397	11.419820931128
0	40195	20723.139828802237	14.148633855462
0	40240	20758.718805122033	1.190515749622
0	40250	20767.396243514038	0.815321154427
0	40255	20768.978519797951	1.143888471369
0	40260	20774.202453870219	1.086909749545
0	40267	20776.654539800659	1.12859946005
0	40325	20793.191807897687	4.743331533198
0	40340	20803.320048716253	3.583951976542
0	40357	20810.478621177123	0.868536741193
0	40422	20824.667956947376	13.73107288162
0	40452	20836.699251386276	2.699704213241
0	40470	20841.057553306659	5.088923466987
0	40507	20853.761798177412	8.538111629604
0	40510	20854.635635448279	1.18350829653
0	40520	20858.582345490393	2.276471895814
0	40568	20870.317348049807	9.538712622358
0	40576	20872.235100490826	7.222550817951
0	40579	20873.18983432608	4.393086066348
0	40620	20884.13654352103	1.047682390176
0	40642	20889.217107783265	1.662269611321
0	40665	20900.538723766275	1.04656123938
0	40670	20903.235273378439	1.160745778866
0	40690	20914.535205723332	2.850119832765
0	40704	20917.942384669488	1.153580599371
0	40719	20921.524842291061	11.206020687427
0	40743	20925.319136927199	3.346504502048
0	40750	20926.378863610808	3.752003897968
0	40753	20927.26731675129	9.390197190065
0	40773	20931.26761739898	5.290690045663
0	40776	20932.359844215042	4.215180714614
0	40779	20933.308171256087	4.866086519718
0	40786	20934.462116537444	5.130420443047
0	40789	20935.581121306788	11.427743706951
0	40797	20937.649045906976	15.953460670065
0	40822	20943.56347167343	22.16044300895
0	40830	20945.427918494121	1.1450132752
0	40857	20970.357039150709	0.92796607807
0	40895	21002.079129310334	1.134075973928
0	40920	21030.307423530428	0.846254864801
0	40925	21034.374364574985	0.842639260832
0	40939	21038.569471364737	2.050154402664
0	40945	21040.495220230323	2.140479902231
0	40957	21043.614275404547	5.955975840823
0	40982	21048.588492774021	5.740960728126
0	40985	21049.62203656527	1.859201704157
0	41012	21094.414487205874	1.050440637302
0	41027	21097.152057834267	1.583640832703
0	41037	21099.999552985083	9.182571739547
0	41060	21107.267234245453	8.317536063425
0	41065	21109.679144371894	0.972338128742
0	41074	21113.996521406565	0.957692824677
0	41086	21115.730889807307	1.689311995879
0	41097	21118.773713289425	5.273007750114
0	41129	21125.726742269421	5.289433907886
0	41132	21126.530363796787	5.06640272539
0	41154	21132.248290553728	1.043908746168
0	41170	21137.175781653944	5.834184978048
0	41175	21142.693454421093	1.070578725077
0	41185	21145.616728130226	0.993141673692
0	41197	21148.047661199172	0.904192090221
0	41200	21148.893586282835	5.235950393447
0	41207	21166.494121234935	1.099874813575
0	41227	21171.050466119358	5.212118857301
0	41245	21176.450335232098	1.172010408528
0	41250	21179.765604284949	1.004046205245
0	41257	21186.356958214931	0.989225464687
0	41275	21195.486875384912	9.77916718596
0	41282	21198.545705311564	6.931794322231
0	41290	21201.267800221031	3.423104380267
0	41295	21206.348004053954	1.030626966059
0	41320	21222.03141457597	1.145795288033
0	41325	21223.790721646907	1.139827547874
0	41337	21232.588918171248	0.930947209615
0	41340	21233.525849822054	1.562893111082
0	41355	21261.63944787661	0.966856667399
0	41360	21268.158236738403	1.173151942529
0	41365	21274.176383205815	1.032297540922
0	41370	21280.093236334352	1.05603521727
0	41407	21293.832270240262	6.339708230089
0	41410	21294.863138028923	1.68562699875
0	41420	21304.610974655031	3.438413281553
0	41430	21307.926352877214	1.935086087576
0	41457	21317.63305732223	6.36740407924
0	41462	21318.77887530566	4.873788060994
0	41470	21320.97113365826	2.0607630613
0	41480	21328.119685562613	13.391591371713
0	41505	21338.532989182642	1.989225560213
0	41566	21357.149322280742	2.988475530873
0	41589	21362.600626221102	8.065478019833
0	41602	21365.888782817487	2.080330784072
0	41620	21383.052128447475	1.181141478755
0	41630	21387.88021655997	4.283437993716
0	41635	21392.554438327233	0.878462303337
0	41680	21423.466132030644	17.877206657011
0	41722	21461.351517548487	7.975752177142
0	41727	21462.279229781013	9.582871320004
0	41740	21467.01825569795	1.156204361841
0	41750	21469.420544094455	2.007379213355
0	41782	21485.515716442887	0.928265535459
0	41785	21486.654783894077	9.641570630944
0	41835	21516.621349551664	0.95169502981
0	41857	21525.812043867964	4.45302337637
0	41862	21526.789440834481	4.271400844399
0	41865	21527.633952185843	1.294316653259
0	41880	21532.721770705378	4.295893202321
0	41890	21541.319589522537	2.538874129465
0	41895	21546.805201159023	0.804757396597
0	41920	21569.445495374318	3.419277677419
0	41935	21572.889330589772	1.469565183264
0	41947	21579.060720852318	0.996539976727
0	41964	21582.351202547385	1.967757727902
0	41984	21586.269433587439	3.39971531216
0	41987	21587.226290637649	6.625568726311
0	42005	21592.603861624365	4.661560341726
0	42020	21597.142819167558	3.395498269777
0	42060	21625.811754354258	0.910851986613
0	42082	21639.596893790969	1.060492058657
0	42087	21640.635299670277	1.323903754424
0	42090	21641.783136096643	1.266873505607
0	42095	21646.297644782997	1.139569734596
0	42100	21669.511827208544	1.136699103005
0	42105	21672.334540298437	0.807172549516
0	42122	21678.351743173085	1.042745790165
0	42142	21682.91607089602	0.876494174264
0	42145	21683.856217789469	1.270124968261
0	42165	21689.851489072521	3.005335823439
0	42205	21717.982185408919	16.076402236945
0	42210	21721.291436468665	1.083751175553
0	42237	21741.53741155057	2.86214848645
0	42245	21744.314208954862	5.634483267498
0	42250	21754.398986901633	1.034923474956
0	42320	21771.929649258141	5.40403811224
0	42323	21772.932719565943	4.462506406827
0	42326	21773.74061797123	3.246653407298
0	42329	21774.642552861865	5.782835841737
0	42371	21783.695240822505	0.979032426876
0	42387	21787.961682483938	0.920077359304
0	42412	21792.52884961908	3.60710180058
0	42430	21800.305176295298	0.86147974059
0	42460	21831.569733693549	1.035013246443
0	42470	21842.535315589134	2.689659883114
0	42477	21859.038275799898	0.943560510315
0	42500	21865.058195807298	3.588084382332
0	42520	21880.311465670682	1.195897787569
0	42547	21888.572808522697	1.014014820009
0	42560	21892.346841620914	6.685219699606
0	42602	21905.366135586754	5.048153484516
0	42607	21906.212961490501	7.238937694952
0	42627	21910.25470617092	1.135550286227
0	42630	21911.093965828836	1.552592078121
0	42635	21914.276553208567	23.917625711319
0	42655	21925.942831513499	1.18014205118
0	42695	21941.85315660811	0.977766490914
0	42705	21958.393136836579	0.894041208457
0	42725	21978.707248724568	1.084581429232
0	42750	21996.472545511921	5.020600151407
0	42755	21999.441426111048	5.190495661316
0	42762	22017.065520122628	1.086091486365
0	42787	22029.979234301593	5.379075392567
0	42815	22055.924882202361	8.6824239779
0	42832	22061.780576176522	3.500683761486
0	42867	22071.444343302624	1.103099812474
0	42877	22073.428402796779	0.879760667589
0	42880	22074.495571751725	8.440006505445
0	42905	22084.976467390049	9.182751387539
0	42910	22094.804683497113	1.016648887563
0	42915	22115.409383789563	0.952760056965
0	42942	22131.809019832219	2.131488766962
0	42947	22133.00296762511	1.93635378439
0	42955	22135.647719523652	3.654798322605
0	42960	22139.235664559865	0.835741175618
0	42965	22146.419142999679	1.03055622885
0	42994	22152.902544932476	1.651055305331
0	42997	22154.05002308864	2.504267547154
0	43000	22155.190373606271	4.346324861329
0	43005	22168.935373513992	1.186676764674
0	43010	22170.638072410863	0.994283679128
0	43022	22197.48422402635	1.004278265126
0	43044	22201.68540610721	1.680225701732
0	43057	22204.784767128247	8.263972393086
0	43065	22209.348109980209	0.839220005833
0	43070	22221.814834493611	0.977525973599
0	43080	22227.470318854595	2.930802005789
0	43085	22233.362677421581	0.803584700078
0	43090	22254.809783427809	1.135199297778
0	43100	22257.66684450882	0.806712589506
0	43110	22259.97918351372	4.428296112097
0	43127	22265.00409980889	2.059980663621
0	43150	22277.071373673933	8.534693097662
0	43155	22278.039089607417	0.867279432341
0	43165	22281.469589792889	1.071928376332
0	43170	22305.084663093363	1.1719068598
0	43210	22345.543713620066	7.260238360166
0	43215	22347.162926229981	4.668603475872
0	43242	22369.745318709001	4.068174595371
0	43250	22372.992658799255	5.478160010611
0	43255	22378.417240231001	0.961516560055
0	43282	22406.492220020662	1.067693566345
0	43305	22416.428226219869	3.288606515812
0	43310	22423.234809036855	0.881897905562
0	43325	22428.234364419711	3.416492449734
0	43342	22433.600217257945	2.264731909068
0	43350	22436.176945620151	3.17523617385
0	43377	22447.919741473793	4.256256446767
0	43380	22448.92636154143	6.299400968396
0	43392	22456.225605378662	0.901567143016
0	43397	22457.179750007846	1.544099495693
0	43430	22471.735237161336	1.153430277202
0	43440	22491.202483110325	0.820951652993
0	43457	22495.284365828876	3.383546351496
0	43512	22514.246261795604	1.878056532047
0	43552	22531.102781909733	2.378574534253
0	43579	22537.47411672748	9.027792785766
0	43582	22538.622900066202	1.277589668973
0	43617	22560.314587888082	1.162416608725
0	43620	22561.139886935761	4.948992322043
0	43644	22586.204289567878	0.86908129137
0	43667	22590.926565323992	3.599013290366
0	43684	22595.144744346803	1.005643479899
0	43697	22598.235518873251	2.178306052493
0	43722	22605.300424546766	19.30123959954
0	43727	22606.142263761553	11.701891101314
0	43755	22617.91996394159	2.797709797194
0	43760	22620.302592230863	0.986613898724
0	43770	22627.524283119041	2.379117450324
0	43782	22630.239449624654	0.968941830285
0	43817	22642.919853746727	7.104868693942
0	43820	22643.868178652249	9.336149882272
0	43825	22647.130404252988	1.127282131091
0	43852	22654.785100924765	3.864398343449
0	43870	22660.079339313382	0.837827195413
0	43889	22664.264280160677	3.188359105028
0	43934	22674.909410823723	11.981008112296
0	43937	22675.758602554286	2.97441281351
0	43956	22680.518858797775	1.180368087114
0	43959	22681.680727294294	1.205834254497
0	44004	22691.570665290537	1.637338254403
0	44007	22692.674701390094	3.209311338674
0	44090	22721.836688906314	11.824500894008
0	44110	22729.56223897318	1.02888515247
0	44139	22757.211141681794	3.152580203954
0	44152	22760.119743687875	7.308603740669
0	44160	22762.254883565458	3.044918179363
0	44170	22784.670475027009	2.531848768573
0	44180	22790.041311514523	0.968695508037
0	44185	22791.141134542598	0.994782833662
0	44190	22792.380171219528	1.000128968898
0	44200	22807.438454111783	1.265944913099
0	44210	22810.090750479218	0.927300510556
0	44222	22813.788040867838	1.107319811918
0	44246	22817.718268023448	3.738638288238
0	44256	22819.598012995551	14.369904648785
0	44285	22833.938356343005	1.181670483015
0	44312	22851.713701707699	2.889977550499
0	44320	22853.553793644827	6.174940275493
0	44360	22880.237831085309	0.95590358004
0	44399	22897.387748689955	2.467755990099
0	44402	22898.406287921226	2.094034949834
0	44407	22899.379998788895	10.034705744981
0	44425	22904.448924062309	12.361394830576
0	44430	22909.420352045039	0.869091182109
0	44437	22917.485793176357	1.062248987705
0	44440	22918.567934100207	1.534326719639
0	44445	22921.042020077077	1.072785936203
0	44455	22943.628686890162	4.813794411708
0	44465	22948.529786979859	2.463262397801
0	44470	22956.280612189717	1.184186913539
0	44507	22968.16105003547	1.054209293984
0	44515	22971.49610524547	3.64380279244
0	44542	22982.948419721954	9.145326529485
0	44577	22989.872251952317	9.747416574127
0	44580	22990.974187294178	7.858747373423
0	44595	23026.278033987661	1.708293612564
0	44625	23039.333724686878	1.102493747696
0	44630	23041.427419120464	1.012612806167
0	44645	23055.903427493665	0.895661496557
0	44650	23057.236324790492	0.977014752477
0	44655	23062.445912775945	1.157507283241
0	44685	23079.738400054585	7.90446071162
0	44728	23088.579413474011	7.619831217644
0	44731	23089.665103153358	2.576655544485
0	44734	23090.627774977903	3.264842579001
0	44757	23095.633869058485	11.627367419089
0	44780	23111.143397500281	0.876080990769
0	44810	23126.069397236845	1.715477055205
0	44815	23127.612236012265	8.759138466434
0	44820	23140.868730291936	1.02678035209
0	44855	23162.407600780394	0.804353012703
0	44870	23187.505615489983	0.993442748114
0	44885	23219.277222055746	1.030220946018
0	44900	23224.892550649142	4.849132326019
0	44922	23232.253601164415	5.057932070709
0	45004	23259.24575761969	4.318208179329
0	45025	23262.664749417946	14.204259667821
0	45035	23264.893188126785	2.61751477542
0	45046	23268.194177392619	3.809263347064
0	45058	23270.276751676882	30.656654749756
0	45063	23271.31777532327	1.521119804978
0	45071	23273.336489612451	1.384043886709
0	45086	23276.322807250852	1.557605930326
0	45089	23277.134529411262	1.530351848738
0	45130	23287.031565614921	7.835203016727
0	45167	23300.28944042935	1.331757300208
0	45227	23312.550859282117	5.593484687496
0	45240	23315.792534009506	6.58677020869
0	45253	23318.390326617052	15.928262511768
0	45258	23319.233255001017	7.106235723235
0	45263	23320.183650966314	9.353620743711
0	45274	23323.2391269634	4.142604328141
0	45300	23329.917460611715	2.16671610126
0	45337	23337.587239438111	1.921233752142
0	45342	23338.654272302521	8.368388666494
0	45347	23339.754462171999	1.870763725548
0	45360	23344.29673192028	8.729843094404
0	45365	23349.141604371865	0.842131380364
0	45390	23365.293719851834	6.526767989496
0	45425	23408.98177934748	4.34625021039
0	45430	23412.617562210886	0.910761003848
0	45447	23416.628219102591	1.84430162005
0	45450	23417.46145456488	3.9177836281
0	45460	23421.46150915701	0.883160046845
0	45470	23426.871551233336	0.892806038167
0	45475	23435.608027868686	1.117242648546
0	45492	23446.696700827597	4.261126767629
0	45577	23492.200232873185	4.678703798983
0	45612	23502.923591407326	20.013283317573
0	45624	23505.21987551994	1.463056525278
0	45635	23510.024488613979	7.187662565026
0	45645	23517.336661194941	2.001461232851
0	45689	23556.403671198844	5.425302438292
0	45692	23557.30071250465	2.174216239436
0	45700	23563.864974521662	0.838707517739
0	45717	23587.10291360847	2.762663714029
0	45729	23590.133324312158	5.728671636907
0	45745	23598.155359209096	1.158791903872
0	45750	23604.750768414089	1.041760475934
0	45755	23610.982957608803	0.927081305347
0	45792	23644.423487543453	1.186455899477
0	45800	23646.294729091697	2.353692923433
0	45809	23650.028497912212	0.867425018456
0	45812	23651.221810350137	1.800785624557
0	45815	23652.260606978217	2.465759830118
0	45835	23685.769282706305	5.203259941034
0	45847	23688.394634069219	0.806565889902
0	45860	23691.415542772147	0.895098124724
0	45885	23700.792639853387	2.79180553006
0	45920	23709.26831288488	0.832954256888
0	45923	23710.185792857887	5.636581790365
0	45926	23711.122769303353	2.459097020144
0	45929	23712.22155550971	3.548057340293
0	45940	23715.619737552397	6.73706691712
0	45945	23717.039777807971	0.87713335501
0	45972	23739.341178825308	6.43574476032
0	45980	23741.131952927817	1.081443249752
0	46000	23748.259739351427	10.315533295943
0	46024	23757.171020028467	1.465207117402
0	46044	23760.961803700781	3.042021816842
0	46057	23764.250476562328	0.819680603594
0	46098	23772.471135915528	1.99748441077
0	46101	23773.40089280353	2.467772557403
0	46118	23776.401993589653	7.785721008479
0	46129	23779.433808456817	4.727407085364
0	46147	23784.666207917804	1.357340039586
0	46150	23785.592460204871	2.878733038623
0	46162	23788.326152905543	1.05932455929
0	46175	23791.630838538112	1.587310444343
0	46220	23817.568299712635	0.824150861427
0	46252	23827.629574610214	7.372464869191
0	46272	23832.561603824928	18.672213919078
0	46280	23836.600686258938	1.139837674703
0	46310	23844.99523440092	3.168793111986
0	46340	23867.327420893332	5.231494095697
0	46382	23897.331237380538	8.555433116586
0	46385	23898.288386441726	1.413073686659
0	46395	23902.269440742743	2.253912258187
0	46410	23917.940898417721	0.966275124066
0	46415	23919.322534369694	3.564875692424
0	46420	23926.905563835697	0.955201173946
0	46440	23933.182079058371	0.992821588367
0	46465	23945.077411447592	3.203506681204
0	46470	23946.860964572446	1.000595470425
0	46487	23952.881746050414	1.153180656961
0	46490	23953.818145099167	2.753903385904
0	46495	23960.04303538935	1.195608876366
0	46505	23970.751784084792	0.943197150528
0	46535	23989.551653331083	3.328229772276
0	46540	23990.996269468313	1.032068257965
0	46547	23997.924904125832	1.097910546511
0	46574	24003.427898504042	1.854596010732
0	46577	24004.573059684613	7.02651246973
0	46597	24009.973850151012	1.546624880929
0	46615	24015.65747039192	1.354379532284
0	46624	24017.362275939013	1.172701149061
0	46702	24046.618222708682	2.318251220386
0	46707	24047.439529044329	17.380241983023
0	46712	24048.393685747272	1.585006167009
0	46735	24054.043002741837	10.173024988809
0	46750	24081.158347453285	0.810836632829
0	46755	24082.341649479415	0.890266613662
0	46775	24096.501291778849	0.984128994588
0	46782	24097.57989308129	0.803945424221
0	46785	24098.480391790186	5.152252584123
0	46790	24106.636021623725	1.080341694225
0	46795	24116.600679367054	1.060565242358
0	46816	24121.195561254798	1.844284310159
0	46829	24124.371191077149	4.033954764616
0	46835	24126.592182680341	8.998398219369
0	46859	24132.553915028705	12.461348178941
0	46896	24139.45452171095	1.28356745089
0	46912	24143.354544856271	9.60462790249
0	46922	24145.202349765471	6.713636096187
0	46925	24146.385719911906	5.931758683692
0	46937	24150.062451822775	2.013882539409
0	46940	24150.923929874877	1.356104509754
0	46955	24158.756864975354	3.841885302917
0	46960	24160.384694375138	0.880411176942
0	46979	24174.255313833566	1.642990213871
0	47049	24191.277583147223	2.875109711359
0	47056	24192.306706696479	2.338958258639
0	47067	24195.447833315851	3.674550001913
0	47079	24197.434911537738	17.178456966184
0	47099	24202.002278568809	1.837579442577
0	47143	24210.345268871757	7.161574436411
0	47148	24211.491300349618	16.290420526152
0	47178	24217.230751363496	1.564295274361
0	47181	24218.195035566511	8.395036200781
0	47194	24221.076211497217	29.70067647418
0	47197	24221.906898593466	9.574069746431
0	47214	24224.835166355438	2.136281699286
0	47222	24226.920222078852	16.839819079592
0	47235	24229.993486940703	7.843159840699
0	47255	24237.704559869035	25.086251323289
0	47265	24244.891860731393	2.462268559255
0	47332	24267.557925723527	7.555236286414
0	47335	24268.673866470844	2.065817069118
0	47352	24272.977284280141	3.003293156903
0	47355	24273.788551076804	1.117009422911
0	47360	24279.211937127684	1.114747655205
0	47375	24287.438890935041	0.979029719159
0	47382	24292.682174464143	1.027915039379
0	47385	24293.590718208454	1.88679885665
0	47412	24300.00399073441	6.259122874909
0	47437	24307.250038915945	0.972228246462
0	47450	24312.644703829517	1.144455803465
0	47457	24327.020271924118	1.004738652147
0	47460	24328.217458052727	1.473856479502
0	47465	24329.74467235162	0.967670738325
0	47470	24362.817281513916	1.103908189479
0	47475	24365.792654450791	0.852569057979
0	47487	24369.212514095677	1.073695489392
0	47505	24388.783801502239	1.546805496213
0	47515	24397.067658645912	0.886644808203
0	47551	24404.635519481832	6.741875047516
0	47554	24405.660309138624	2.467808116477
0	47565	24408.506428250214	7.660881191118
0	47570	24422.496767014943	0.92623082269
0	47590	24429.987129486196	4.114300088363
0	47615	24445.895663571344	3.76853494263
0	47632	24449.544728702556	9.934558061882
0	47652	24461.324492957443	3.724973488253
0	47667	24464.507582472436	3.509415194735
0	47675	24467.673043062629	5.095947965154
0	47682	24479.904593288922	1.087713664398
0	47692	24484.601563420261	1.183543580677
0	47697	24485.583274004909	1.429320025244
0	47737	24533.307827082383	1.118692903221
0	47775	24544.196204536549	9.805305576938
0	47785	24547.408980400812	2.683401433328
0	47790	24550.54668209449	1.182051222399
0	47809	24561.775908379174	3.02474816339
0	47822	24565.776736794672	6.869522715554
0	47825	24566.741624788362	5.123194310199
0	47830	24573.365617781432	1.069314539805
0	47879	24594.661814516895	10.288139532614
0	47911	24600.893421270998	13.446208972787
0	47918	24601.97595226953	2.355574493623
0	47947	24609.156466122832	13.095167778182
0	47954	24610.034846403472	24.151150197805
0	47960	24611.96811059371	21.239831453231
0	47975	24615.970126625487	26.402173805298
0	47985	24618.919085119113	5.706967706657
0	47995	24632.199524305929	1.100206754822
0	48027	24655.362261463573	1.463674940385
0	48039	24657.623226851612	4.100007451282
0	48070	24664.808456093273	7.328782252031
0	48080	24668.503323016257	1.995783526312
0	48100	24674.780518383344	3.877941131857
0	48110	24679.378201155546	0.995035791863
0	48145	24693.585569032889	7.179247964311
0	48150	24694.999814103385	3.570201532531
0	48174	24702.420581801154	1.085511005763
0	48189	24706.044352804496	4.440295262174
0	48192	24706.995015490147	1.801042458516
0	48195	24708.063030399288	11.334558109651
0	48200	24711.621609437749	1.136459340248
0	48252	24728.587868559162	5.419347077069
0	48255	24729.458025154739	1.425825834913
0	48270	24734.704288027737	4.461165265598
0	48321	24755.813380079163	1.99665637957
0	48339	24760.151693597534	9.801777430458
0	48342	24760.964345388213	8.766977198547
0	48365	24768.614175277025	16.060664897553
0	48382	24775.66909453525	3.702069918581
0	48402	24779.842341162521	1.069273872762
0	48420	24789.654192556706	2.904310547179
0	48430	24793.58839485776	1.898566155865
0	48449	24797.471781907496	5.874738551846
0	48485	24812.251849379134	7.420818123918
0	48494	24813.774029530604	0.994588069804
0	48509	24816.921293373704	4.130904425225
0	48512	24817.871288253944	4.595970250904
0	48520	24824.19990167851	1.095086313784
0	48547	24842.14805083782	9.956704288969
0	48550	24842.974410687709	1.264856596127
0	48555	24844.647916801873	0.891345412005
0	48567	24848.98898201739	1.489685354172
0	48590	24855.53314415466	8.620649028406
0	48605	24876.4036440334	1.163847030979
0	48640	24902.060207999144	4.315023212115
0	48682	24928.333510413951	6.818963846989
0	48690	24931.103237862403	4.850458376988
0	48700	24938.002101362259	2.391035128763
0	48715	24948.273393695479	1.093949416466
0	48720	24953.710118609659	1.162150454521
0	48730	24956.531203302349	1.955083830918
0	48735	24957.845786714754	1.174374019168
0	48740	24970.072897588119	1.16184674371
0	48755	24983.768513126758	5.566802320319
0	48795	24996.843110687996	9.579429629377
0	48827	25013.303767940507	5.261282643876
0	48837	25016.510218447525	1.180433721561
0	48897	25043.761466997728	1.838914330435
0	48922	25051.313303599956	4.70605904388
0	48925	25052.22676492369	17.392945345314
0	48939	25056.239601247604	1.186915041313
0	48942	25057.138833566322	2.842242797371
0	48975	25070.710906533482	1.509531668584
0	49011	25080.626104322265	1.003655382566
0	49014	25081.653662320043	1.778017153137
0	49024	25083.880682950563	1.414306049995
0	49035	25088.145829494337	1.025614149868
0	49045	25095.188103522099	1.047761290893
0	49055	25118.062654994348	5.879066257656
0	49080	25126.151899011278	4.705992827255
0	49085	25128.405761828873	9.927436084442
0	49102	25134.909821724587	2.871138835605
0	49115	25139.60783271301	7.284894907752
0	49125	25142.311626919748	2.596779712139
0	49135	25147.984878222547	2.617910709835
0	49165	25159.688734561688	4.768817247769
0	49170	25160.820246904694	0.999828871526
0	49211	25171.287586753906	2.493520670694
0	49216	25172.150026969516	8.081614859713
0	49224	25174.250233403684	2.798060146782
0	49232	25176.315213462429	9.301070954275
0	49240	25177.987337817995	5.480489961151
0	49250	25184.68851079319	1.928278788028
0	49259	25187.763602895745	0.964822598454
0	49270	25190.755870153465	3.183423492196
0	49275	25199.915944900014	1.033920061681
0	49300	25219.287934903814	4.204874528948
0	49305	25220.513355397132	6.790179496269
0	49315	25222.57667834932	6.454694130233
0	49320	25226.49379374493	0.811540790647
0	49325	25229.852149092998	1.10021291161
0	49350	25243.855625599046	6.598696570031
0	49400	25266.673123738283	2.984849045146
0	49422	25276.012714999805	1.403097660446
0	49432	25281.090387397168	0.856957412977
0	49464	25307.775656380067	3.25448910538
0	49502	25316.827946351032	1.056218424719
0	49505	25317.859567299607	12.396378806032
0	49525	25337.34449908596	6.156699559744
0	49535	25342.924967915381	1.138918143604
[...]
7	58625	29884.019487663597	1
7	58626	29884.564846650078	0
7	58680	29912.953878253548	1
7	58681	29913.675104149169	0
7	58745	29962.248913060907	1
7	58747	29962.539822036975	2
7	58748	29962.906597187109	1
7	58752	29963.533450797555	2
7	58753	29963.876042882092	1
7	58756	29964.991545781791	0
7	58760	29965.767870173738	1
7	58761	29965.882694625594	0
7	58765	29965.889777378117	1
7	58766	29966.99970496215	0
7	58775	29968.266108320713	1
7	58777	29968.827706313764	2
7	58778	29969.228333825187	1
7	58781	29970.164256251824	0
7	58790	29971.701838401471	1
7	58792	29971.856009725402	2
7	58793	29972.5591152803	1
7	58797	29973.281739616709	2
7	58798	29973.702839177657	1
7	58802	29973.762558259031	2
7	58803	29974.692581530377	1
7	58807	29974.925805774016	2
7	58808	29975.718897080883	1
7	58812	29975.934255465149	2
7	58813	29976.73026245059	1
7	58817	29977.564654851821	2
7	58818	29977.616832943536	1
7	58821	29978.483706064611	0
7	58825	29978.887169963039	1
7	58826	29979.394187967568	0
7	58835	29981.791181982954	1
7	58836	29982.520182671607	0
7	58840	29983.279518115552	1
7	58841	29983.700031534233	0
7	58850	29984.913844827518	1
7	58852	29985.500283073627	2
7	58853	29985.723975119222	1
7	58858	29986.684422934935	0
7	58867	29987.988925699767	1
7	58868	29988.797033760273	0
8	19865	10128.199352694827	1
8	19866	10128.675312011167	0
8	20162	10270.097092065038	1
8	20164	10270.61382786603	0
8	20865	10690.060020466571	1
8	20866	10690.15927402474	0
8	24495	12510.731842858003	1
8	24496	12510.91631291729	0
8	24687	12591.952476602031	1
8	24689	12592.415242178549	0
8	24904	12674.431383875418	1
8	24908	12674.632490297215	0
8	25315	12894.129455585963	1
8	25316	12894.149567351049	0
8	25322	12895.283332437674	1
8	25326	12896.405336068565	0
8	25615	13064.448903190216	1
8	25616	13065.277839664087	0
8	25620	13066.296981280759	1
8	25629	13067.749801167338	0
8	26015	13279.428247142916	1
8	26019	13279.884303087047	0
8	28577	14578.490839737525	1
8	28579	14578.952408867192	0
8	28582	14579.462196563335	1
8	28587	14580.616445327701	2
8	28589	14581.26160929397	1
8	28595	14582.600937949085	2
8	28596	14582.762556354948	1
8	28599	14583.161526014388	0
8	28925	14796.383075080794	1
8	28926	14797.6954893791	0
8	29225	14923.982127566388	1
8	29229	14925.419676017064	0
8	29792	15209.604446057543	1
8	29799	15211.337247262178	0
8	29802	15211.780926702764	1
8	29804	15211.929191387668	0
8	29807	15212.718292592593	1
8	29809	15213.569364519338	0
8	29815	15214.898917582852	1
8	29819	15216.779433436789	0
8	29825	15219.05870528028	1
8	29826	15221.003798933653	0
8	29910	15247.705815088371	1
8	29911	15248.478440060464	0
8	30495	15642.26483401605	1
8	30496	15643.49098217066	0
8	30500	15644.426749180049	1
8	30501	15645.54824131452	0
8	31055	15937.140916872847	1
8	31056	15937.84120576334	0
8	31060	15938.838838275976	1
8	31061	15939.30403962024	0
8	31215	16031.091146746921	1
8	31216	16031.965064332183	0
8	31537	16164.49130114266	1
8	31539	16164.571091774227	0
8	31905	16378.033081608221	1
8	31906	16378.347903782792	0
8	32507	16724.828146071638	1
8	32511	16726.086801083701	0
8	32930	17010.315170353582	1
8	32934	17011.907911716466	0
8	32940	17013.409029061531	1
8	32941	17015.473402079109	0
8	32985	17031.014995883454	1
8	32989	17032.138207203532	0
8	33105	17090.562474706936	1
8	33106	17090.894279888726	0
8	33110	17091.968133318785	1
8	33111	17095.3306288409	0
8	33296	17186.469715923405	1
8	33298	17186.72081917311	0
8	33877	17453.720512976617	1
8	33879	17454.464299431886	0
8	33885	17455.734881588005	1
8	33886	17457.052979809901	0
8	37100	19170.895198094822	1
8	37101	19172.655903408588	0
8	37392	19336.811596781025	1
8	37395	19337.830095383534	2
8	37396	19338.086091801876	1
8	37404	19340.116305936479	0
8	38265	19811.652045059904	1
8	38266	19812.084799320529	0
8	38270	19813.002627540192	1
8	38271	19813.432507001767	0
8	38280	19815.328946443061	1
8	38281	19815.773109338536	0
8	38610	19926.177476806664	1
8	38611	19927.510991462875	0
8	38620	19929.752520292621	1
8	38621	19929.911441750839	0
8	38965	20088.037775352363	1
8	38981	20092.057844662868	0
8	40220	20732.223292175035	1
8	40221	20735.246421657787	0
8	40387	20816.854218824048	1
8	40389	20817.259161209649	0
8	41537	21350.638465086221	1
8	41541	21353.020571663042	0
8	42340	21778.144563399643	1
8	42344	21778.759883588642	0
8	42380	21786.484043308883	1
8	42384	21787.950679404219	0
8	42665	21927.9385792148	1
8	42669	21928.940780732743	0
8	43460	22496.325848173984	1
8	43461	22496.730253254667	0
8	43855	22655.695160342177	1
8	43856	22656.282035268311	0
8	43962	22682.752518835218	1
8	43964	22683.834990115789	0
8	43985	22688.171322647266	1
8	43986	22688.628561600534	0
8	43992	22689.575202053929	1
8	43996	22690.547714316474	0
8	44835	23153.520220668999	1
8	44836	23154.433095467431	0
8	45127	23285.979563883171	1
8	45131	23287.519171574478	0
8	46050	23763.167840779299	1
8	46054	23763.70450690015	0
8	46195	23809.514854279793	1
8	46196	23810.448248865728	0
8	46640	24022.627411697233	1
8	46641	24023.29010404856	0
8	46990	24177.15742535791	1
8	46991	24177.859179947633	0
8	47280	24253.954061451179	1
8	47281	24255.641138404805	0
8	48057	24662.002253230023	1
8	48059	24662.160732247288	0
8	48067	24663.766155837676	1
8	48071	24666.334936349687	0
8	48077	24667.415331350301	1
8	48081	24670.722452811242	0
8	49829	25471.757068747005	1
8	49831	25472.172220773386	0
8	50405	25756.47057760393	1
8	50409	25758.120603568189	0
8	51250	26187.347761175751	1
8	51251	26188.468387557611	0
8	51255	26189.61526443702	1
8	51256	26189.622756612465	0
8	51745	26395.427080596658	1
8	51746	26396.249983587076	0
8	51772	26401.214457441582	1
8	51776	26401.799722394055	0
8	52077	26589.584223840751	1
8	52082	26590.685316982206	2
8	52084	26591.42204351096	1
8	52096	26593.274177524643	0
8	52770	26949.938630559493	1
8	52771	26950.270741352862	0
8	53465	27342.964483162006	1
8	53466	27343.062022825485	0
8	53470	27344.036933997428	1
8	53471	27344.456158679423	0
8	53485	27347.368576920477	1
8	53486	27349.078392417685	0
8	53590	27386.82654226091	1
8	53591	27387.339422553226	0
8	53595	27388.474739782054	1
8	53596	27388.902025496301	0
8	53820	27550.585033413399	1
8	53821	27550.604846036612	0
8	53943	27581.544502992699	1
8	53945	27582.141308336829	0
8	54307	27771.068374473964	1
8	54311	27772.882999962884	0
8	54520	27886.594834737627	1
8	54524	27886.912245939947	0
8	54592	27900.881330804339	1
8	54594	27901.409668965974	0
8	54897	28015.082074254694	1
8	54900	28016.269898387733	2
8	54901	28016.391391467415	1
8	54904	28016.416418551244	0
8	54907	28017.327008688655	1
8	54916	28021.59577698902	0
8	56450	28780.322262386544	1
8	56451	28780.460492298068	0
8	57405	29305.659101608519	1
8	57406	29309.395096544627	0
8	57617	29396.023279078985	1
8	57624	29398.612753526357	0
8	58115	29644.473749908068	1
8	58116	29644.533023044928	0
8	58322	29722.300513615843	1
8	58324	29723.113843152813	0
8	58875	29991.127290608311	1
8	58876	29991.279185592022	0
9	20427	10450.987412211446	1
9	20429	10451.41959947223	0
9	20432	10452.144389212651	1
9	20434	10452.230162295287	0
9	20444	10454.013457845206	1
9	20446	10455.008262417592	0
9	21157	10836.190253062661	1
9	21161	10836.863499542886	0
9	21169	10838.049412791918	1
9	21174	10839.573133319125	0
9	21237	10851.896045619563	1
9	21241	10853.035144499782	0
9	21247	10854.12765421411	1
9	21249	10854.590299315221	0
9	21449	10941.279501447729	1
9	21451	10942.078793924545	0
9	21454	10942.299829799025	1
9	21458	10942.585808700346	0
9	21461	10943.253985573812	1
9	21468	10944.567921828224	0
9	22605	11550.401042199134	1
9	22606	11550.650500309421	0
9	22622	11553.76999028218	1
9	22624	11554.735510481168	0
9	22862	11707.992710023855	1
9	22866	11711.403322022667	0
9	23014	11790.167913928477	1
9	23024	11791.883543479385	2
9	23031	11793.049216719462	1
9	23033	11793.271444046813	0
9	23036	11793.821773098817	1
9	23038	11794.743212736849	0
9	23170	11839.388969301998	1
9	23171	11840.518227973249	0
9	23196	11844.038106717304	1
9	23201	11845.703526924199	0
9	23204	11846.22337161316	1
9	23206	11847.174006923558	0
9	23230	11852.015926696029	1
9	23231	11852.269883294308	0
9	23595	12079.625835499912	1
9	23599	12079.987618281195	0
9	23605	12081.880350229642	1
9	23606	12081.885789496823	0
9	23865	12233.266943079329	1
9	23866	12233.820847455936	0
9	23870	12234.656904963276	1
9	23871	12234.762552089284	0
9	23894	12238.973968106549	1
9	23896	12239.372347121858	0
9	24057	12306.624160396229	1
9	24061	12307.142442310368	0
9	24190	12358.028292398319	1
9	24191	12358.070849558522	0
9	24275	12392.457229164858	1
9	24276	12392.763255629146	0
9	24280	12393.802682003861	1
9	24281	12395.023606430708	0
9	24322	12404.420533164342	1
9	24324	12405.169673657585	0
9	24335	12407.386460330089	1
9	24336	12407.967469220367	0
9	24415	12456.149363478006	1
9	24420	12457.474146985641	2
9	24421	12458.623334936724	1
9	24424	12458.66234204227	0
9	24435	12461.689690035136	1
9	24441	12469.100769634132	0
9	24805	12627.925790560881	1
9	24806	12628.556889596303	0
9	25170	12810.770560078626	1
9	25171	12811.074101753679	0
9	25185	12814.379896921997	1
9	25190	12815.487454109538	2
9	25191	12816.732450625038	1
9	25195	12817.656951043958	2
9	25196	12820.719747440777	1
9	25201	12822.318925359208	0
9	25915	13226.449405961357	1
9	25916	13226.489811684797	0
9	26330	13438.824200958665	1
9	26331	13440.408366592174	0
9	26590	13535.796749105152	1
9	26591	13536.043824486466	0
9	26615	13542.479422081404	1
9	26619	13543.379920173492	0
9	26627	13545.134301962625	1
9	26629	13545.795552804196	0
9	26632	13546.138978117719	1
9	26641	13548.50376961672	0
9	26805	13644.492782055397	1
9	26806	13645.727576534457	0
9	26812	13646.790546289838	1
9	26814	13647.048524674134	0
9	27375	13933.843769640716	1
9	27376	13935.266100270571	0
9	27380	13936.279858821528	1
9	27381	13938.874220238106	0
9	27722	14096.219536594258	1
9	27726	14098.153950791148	0
9	28015	14274.810214029669	1
9	28019	14275.345391495066	0
9	28024	14275.924722616244	1
9	28035	14278.893772003297	2
9	28039	14279.997733123004	1
9	28042	14280.309906386747	2
9	28046	14283.11823316601	1
9	28049	14283.54406250187	0
9	28054	14284.261451856074	1
9	28056	14284.573318665762	0
9	28069	14287.108204636377	1
9	28071	14287.496091837098	0
9	28076	14288.27039985082	1
9	28078	14288.697833483016	0
9	28089	14291.094431178857	1
9	28096	14293.967505910217	0
9	29152	14894.856220144227	1
9	29154	14895.240515322397	0
9	29157	14895.678560670007	1
9	29160	14896.835472004123	2
9	29161	14897.681022265341	1
9	29164	14897.743714341914	0
9	29390	15019.579232302353	1
9	29391	15021.203277652808	0
9	30145	15391.562179094938	1
9	30146	15391.978833366172	0
9	30670	15743.497558192662	1
9	30671	15744.543274786835	0
9	30790	15793.563579023162	1
9	30791	15796.218900225081	0
9	31509	16158.629206888148	1
9	31511	16159.011609915547	0
9	31825	16307.050872607089	1
9	31826	16308.263881735467	0
9	34249	17693.235868137179	1
9	34251	17693.753401891372	0
9	34570	17872.926357380031	1
9	34571	17872.965311252586	0
9	34655	17902.189175428827	1
9	34659	17902.898030771815	0
9	34835	17963.458100256241	1
9	34845	17969.202168885223	2
9	34846	17971.672111880619	1
9	34849	17971.713542105585	0
9	34854	17972.631040316287	1
9	34856	17972.775464495491	0
9	35179	18222.112261963065	1
9	35181	18223.026107965051	0
9	35187	18224.069042202725	1
9	35193	18224.527131343589	0
9	35295	18263.669999489989	1
9	35296	18264.465848746343	0
9	35300	18265.310044411762	1
9	35301	18266.165825440197	0
9	35327	18271.215281746651	1
9	35331	18271.988529013228	0
9	35334	18272.323825939673	1
9	35336	18273.030583916247	0
9	35339	18273.439213672581	1
9	35341	18273.507710382018	0
9	35352	18276.213669061402	1
9	35356	18278.396192320115	0
9	35360	18279.38907054733	1
9	35361	18279.905482677892	0
9	35505	18325.436286974977	1
9	35506	18325.50519793793	0
9	35676	18421.148118277211	1
9	35678	18422.278772913101	0
9	35757	18441.016506475798	1
9	35759	18441.671655842757	0
9	35814	18452.126082153647	1
9	35816	18452.60549086347	0
9	35819	18453.220935630361	1
9	35821	18453.41425046115	0
9	35940	18524.018847174764	1
9	35941	18524.701087684198	0
9	36160	18676.831628661689	1
9	36161	18678.450536219103	0
9	36222	18691.920051200586	1
9	36224	18692.010452323571	0
9	36360	18760.145990262999	1
9	36361	18761.633501571341	0
9	36409	18771.377467114124	1
9	36411	18771.634020294645	0
9	36414	18772.542181801535	1
9	36416	18772.633279718972	0
9	36427	18775.390332813859	1
9	36429	18775.818000629411	0
9	36437	18777.100019295998	1
9	36439	18777.558635661073	0
9	36502	18800.499333356555	1
9	36506	18803.612000536348	0
9	36670	18926.134444071999	1
9	36671	18926.219817301526	0
9	36939	19112.689158535597	1
9	36947	19114.693764249363	2
9	36951	19115.902499200176	1
9	36959	19116.747235167857	0
9	37162	19189.285271761184	1
9	37164	19190.294282482385	0
9	37170	19191.272696228874	1
9	37171	19192.106910396488	0
9	37532	19440.26883306629	1
9	37534	19440.826141070077	0
9	37712	19536.975191489194	1
9	37714	19537.298521804378	0
9	37851	19590.661392282484	1
9	37853	19590.820802896549	0
9	38005	19668.751422048159	1
9	38006	19668.923141990504	0
9	38412	19866.687919339528	1
9	38416	19867.786110988082	0
9	38514	19904.828717041437	1
9	38516	19905.448427341016	0
9	38529	19907.822418308866	1
9	38534	19909.514985251161	0
9	39025	20107.5077819164	1
9	39026	20109.126457663383	0
9	39375	20283.497188487555	1
9	39376	20284.339655829537	0
9	39637	20437.519696726767	1
9	39641	20439.070510740915	0
9	40152	20712.114543906776	1
9	40154	20712.871895697035	0
9	40157	20713.123992983149	1
9	40159	20713.750997466143	0
9	40162	20714.127804911593	1
9	40166	20715.256165549038	0
9	40547	20867.164366653881	1
9	40549	20867.505729730446	0
9	40680	20912.570644618323	1
9	40681	20912.63528600073	0
9	40710	20919.709929821758	1
9	40711	20920.378670660142	0
9	40738	20924.31730974048	1
9	40740	20925.255371799212	0
9	40765	20929.334420888606	1
9	40767	20930.054880779081	0
9	40770	20930.228114909879	1
9	40781	20933.594066577431	0
9	41115	21123.219846496682	1
9	41119	21123.735237860626	0
9	41265	21192.742256246284	1
9	41269	21194.099034198586	0
9	41452	21316.62999683867	1
9	41454	21317.28320321305	0
9	41705	21455.371058434417	1
9	41706	21457.967465850879	0
9	41847	21523.675683974154	1
9	41849	21523.876930388032	0
9	42582	21901.098719698798	1
9	42584	21901.253996785037	0
9	42597	21904.298099671353	1
9	42599	21904.506157244215	0
9	43360	22444.683118437851	1
9	43364	22445.05369994588	0
9	43694	22597.15619114372	1
9	43701	22600.802228518359	0
9	43707	22601.716601251781	1
9	43711	22603.162577234226	0
9	43795	22636.819254630068	1
9	43799	22639.578018922498	0
9	43807	22640.735277218394	1
9	43809	22640.743951704585	0
9	44392	22896.221391877351	1
9	44396	22896.386853368516	0
9	44960	23250.162640247096	1
9	44961	23250.363017579149	0
9	44975	23253.427133319601	1
9	44976	23254.238539115459	0
9	45001	23258.315048451468	1
9	45006	23260.266004326317	0
9	45195	23307.795951833278	1
9	45199	23308.975002776191	0
9	45233	23314.811116939642	1
9	45235	23315.059788463856	0
9	45562	23489.092189137152	1
9	45564	23489.323999099191	0
9	46227	23821.349906556955	1
9	46229	23822.080685578646	0
9	46245	23825.311507389037	1
9	46246	23826.434593958329	0
9	46697	24045.796795157491	1
9	46699	24045.89624784097	0
9	46904	24141.345673298149	1
9	46906	24141.555574013053	0
9	46909	24142.362266435439	1
9	46914	24143.51456725786	0
9	47062	24194.373826120524	1
9	47069	24195.781455018001	0
9	47085	24199.519271358857	1
9	47104	24203.115792216187	0
9	47119	24206.193922526697	1
9	47124	24207.357928813743	2
9	47126	24207.504443458932	1
9	47131	24208.641657037021	0
9	47160	24213.401105297013	1
9	47163	24214.277360118582	2
9	47166	24215.111760799429	3
9	47170	24215.697121398508	2
9	47173	24216.169806665397	3
9	47175	24216.731443310995	2
9	47184	24219.106937143142	3
9	47186	24219.701321546545	2
9	47191	24221.002808076526	1
9	47206	24223.357345910921	0
9	47610	24444.409073174632	1
9	47611	24444.808038939056	0
9	47815	24563.906564438074	1
9	47816	24564.582642616312	0
9	47845	24586.760358842308	1
9	47846	24587.262610125748	0
9	47852	24588.170262846743	1
9	47855	24589.095628647992	2
9	47860	24590.528104672018	3
9	47864	24591.524333236584	2
9	47867	24591.636261134296	3
9	47870	24592.447638769615	4
9	47871	24593.4935477026	3
9	47874	24593.750492903224	2
9	47876	24594.367250987291	1
9	47881	24595.195624602092	0
9	47884	24595.815973886215	1
9	47889	24596.983894355428	2
9	47892	24598.093673625049	3
9	47894	24598.11210622267	2
9	47896	24598.167339028373	1
9	47899	24598.996930319463	2
9	47904	24600.029909524714	3
9	47906	24600.13449475699	2
9	47908	24600.815715040571	1
9	47913	24600.919191915254	0
9	47924	24604.11198917052	1
9	47927	24605.090594321976	2
9	47929	24605.817286722875	1
9	47931	24605.977550584636	0
9	47934	24606.058309754937	1
9	47937	24607.231493616964	2
9	47939	24607.787260218881	1
9	47941	24607.796764331568	0
9	47944	24608.039936461508	1
9	47949	24609.594079126524	0
9	47970	24614.149272844494	1
9	47971	24614.831825571378	0
9	48140	24692.303371100633	1
9	48141	24692.398769365952	0
9	48180	24704.438083848089	1
9	48181	24705.053044154494	0
9	48309	24753.901049458148	1
9	48311	24754.068067381437	0
9	48332	24758.989829326333	1
9	48334	24759.054532962278	0
9	48675	24927.344567909594	1
9	48676	24927.39674525177	0
9	48910	25047.975590020091	1
9	48911	25049.056669053606	0
9	49070	25122.39420165733	1
9	49071	25122.611018646195	0
9	49075	25123.719925539627	1
9	49076	25125.301979989869	0
9	49292	25217.149019439808	1
9	49295	25218.037843917693	2
9	49296	25218.455256748306	1
9	49301	25219.712205699251	0
9	49780	25462.498103921139	1
9	49781	25462.56573808445	0
9	49977	25542.424509078626	1
9	49979	25543.006731320314	0
9	50447	25766.2304759285	1
9	50451	25768.130510779249	0
9	51095	26113.000230675227	1
9	51099	26114.740943151115	0
9	51107	26115.83860975391	1
9	51111	26117.315296216624	0
9	51337	26208.514888613925	1
9	51347	26210.668115425923	2
9	51349	26210.995687903558	1
9	51355	26211.275918512117	0
9	51361	26212.76088868405	1
9	51363	26212.853372061344	0
9	51381	26216.498418691077	1
9	51383	26217.338751373942	0
9	51386	26217.556475725	1
9	51388	26217.943786670717	0
9	51414	26223.878454087836	1
9	51416	26224.900981164934	0
9	52099	26593.625046146933	1
9	52115	26597.427412466231	2
9	52119	26600.931810584603	1
9	52124	26601.571200308089	0
9	52210	26622.048906964152	1
9	52211	26622.602689821677	0
9	52292	26676.450549367365	1
9	52294	26676.611449703073	0
9	52590	26851.594238696739	1
9	52591	26852.330731389015	0
9	52736	26941.962629503023	1
9	52741	26942.820984358865	0
9	53010	27105.077037029801	1
9	53011	27105.415816572816	0
9	53235	27253.133492122545	1
9	53236	27255.97568984067	0
9	53244	27257.103410293422	1
9	53246	27257.214911268398	0
9	53740	27490.831808004652	1
9	53741	27491.057641294218	0
9	53936	27580.586139341028	1
9	53938	27580.955491959216	0
9	54020	27596.702510111643	1
9	54022	27597.332769836248	0
9	54025	27597.740446479855	1
9	54030	27599.154934663112	0
9	54033	27599.560050329617	1
9	54035	27599.749436938038	0
9	54785	27966.659052540919	1
9	54786	27967.210459620829	0
9	54805	27971.241467294327	1
9	54806	27972.949866192662	0
9	54815	27975.283303099	1
9	54816	27976.553992499147	0
9	55075	28094.988899526738	1
9	55076	28095.844915683546	0
9	55445	28240.817197096406	1
9	55449	28241.619735244304	0
9	56160	28642.650414569312	1
9	56161	28642.705792671963	0
9	56267	28688.48662600731	1
9	56271	28689.537765787728	0
9	57025	29117.224503232032	1
9	57026	29117.659618488205	0
9	57342	29290.596760770533	1
9	57346	29291.835530977187	0
9	57542	29380.496362355473	1
9	57544	29380.834209174918	0
9	58470	29808.150427744324	1
9	58471	29809.516795857299	0
9	58475	29810.493488214958	1
9	58481	29811.723279576977	0
9	58484	29811.860293088057	1
9	58489	29812.88854978587	0
9	58770	29968.145635736194	1
9	58771	29968.226706363947	0
9	58782	29970.164256251824	1
9	58785	29971.32599102914	2
9	58786	29971.629038588233	1
9	58789	29971.701838401471	0
9	58822	29978.483706064611	1
9	58827	29979.394187967568	2
9	58831	29981.395965625741	1
9	58834	29981.791181982954	0
9	58837	29982.520182671607	1
9	58842	29983.700031534233	2
9	58849	29984.913844827518	1
9	58851	29985.500283073627	0

