version 2
run Second_exit_8-11-20191114-11:42:46-8957
attr configname Second_exit_8
attr datetime 20191114-11:42:46
attr experiment Second_exit_8
attr inifile omnetpp.ini
attr iterationvars ""
attr iterationvarsf ""
attr measurement ""
attr network ResponseTimeNetwork
attr processid 8957
attr repetition 11
attr replication #11
attr resultdir results
attr runnumber 11
attr seedset 11
param **.Source.interArrivalTime exponential(5s)
param **.jobPriority bernoulli(0.6)
param **.PS.serviceTimeU1 "uniform(0.8s, 1.2s)"
param **.PS.serviceTimeU2 "uniform(1.8s, 2.2s)"
param **.SS1.serviceTime exponential(1s)
param **.SS2.serviceTime exponential(1.2s)
param **.PS.exitProbability bernoulli(0.8)

vector 0 ResponseTimeNetwork.QueueU1 queueLength:vector ETV
attr interpolationmode sample-hold
attr title "queue length, vector"
vector 1 ResponseTimeNetwork.SS1 queueLength:vector ETV
attr interpolationmode sample-hold
attr title "queue length, vector"
vector 2 ResponseTimeNetwork.sink lifeTimeU1:vector ETV
attr interpolationmode none
attr title "lifetime of arrived jobs U1, vector"
attr unit s
vector 3 ResponseTimeNetwork.sink totalServiceTimeU1:vector ETV
attr interpolationmode none
attr title "the total time spent  by arrived jobs U1, vector"
attr unit s
vector 4 ResponseTimeNetwork.sink lifeTime:vector ETV
attr interpolationmode none
attr title "lifetime of arrived jobs, vector"
attr unit s
vector 5 ResponseTimeNetwork.sink totalServiceTime:vector ETV
attr interpolationmode none
attr title "the total time spent  by arrived jobs, vector"
attr unit s
vector 6 ResponseTimeNetwork.QueueU2 queueLength:vector ETV
attr interpolationmode sample-hold
attr title "queue length, vector"
vector 7 ResponseTimeNetwork.SS2 queueLength:vector ETV
attr interpolationmode sample-hold
attr title "queue length, vector"
vector 8 ResponseTimeNetwork.sink lifeTimeU2:vector ETV
attr interpolationmode none
attr title "lifetime of arrived jobs U2, vector"
attr unit s
vector 9 ResponseTimeNetwork.sink totalServiceTimeU2:vector ETV
attr interpolationmode none
attr title "the total time spent  by arrived jobs U2, vector"
attr unit s
0	49408	10000.258413850969	2
0	49412	10000.280028352502	3
0	49413	10001.098485184169	2
0	49417	10001.152314158757	3
0	49418	10002.212825311335	2
0	49422	10002.372994947488	3
0	49424	10002.68320413577	4
0	49425	10003.01565969762	3
0	49429	10003.954048257965	4
0	49430	10004.079456941677	3
0	49434	10004.630297164759	4
0	49435	10004.998458823642	3
0	49439	10005.136251460013	4
0	49441	10005.300099992532	5
0	49442	10006.102848169009	4
0	49445	10006.92104326476	3
0	49448	10007.792000300331	2
0	49451	10008.861670662356	1
0	49455	10009.370554740261	2
0	49457	10009.520649148614	3
0	49459	10009.531141671881	4
0	49460	10009.894645712325	3
0	49464	10009.998892518509	4
0	49466	10010.648962672758	5
0	49467	10010.795679025245	4
0	49471	10011.035346476907	5
0	49472	10011.611089298953	4
0	49477	10012.789040938471	3
0	49480	10013.785902310987	2
0	49484	10014.249373939677	3
0	49485	10014.732626076587	2
0	49488	10015.626879993625	1
0	49491	10016.489264781479	0
0	49495	10016.549847630393	1
0	49497	10016.8045916417	2
0	49498	10017.311066107623	1
0	49501	10018.46063665327	0
0	49505	10018.502796545756	1
0	49507	10019.205247876429	2
0	49508	10019.515477756209	1
0	49512	10019.760772837384	2
0	49514	10019.780750143971	3
0	49516	10019.914338673537	4
0	49517	10020.317254566851	3
0	49520	10021.43626194781	2
0	49523	10022.428831273488	1
0	49527	10022.866523013701	2
0	49528	10023.517640891004	1
0	49531	10024.582318838484	0
0	49538	10025.859712871817	1
0	49540	10026.253479016337	2
0	49541	10026.632666441224	1
0	49544	10027.704998356554	0
0	49548	10028.172788638861	1
0	49549	10028.645289062693	0
0	49568	10031.786462640291	1
0	49569	10032.336459891854	0
0	49601	10039.143003922691	1
0	49602	10039.583045835869	0
0	49611	10041.266275548176	1
0	49612	10041.603497289477	0
0	49632	10045.644066171298	1
0	49639	10046.537302662974	0
0	49648	10047.820201341514	1
0	49650	10048.048911879523	2
0	49651	10048.655352153146	1
0	49654	10049.681951863022	0
0	49661	10051.649256841456	1
0	49662	10051.695719128457	0
0	49669	10053.094647239135	1
0	49673	10053.717172839611	2
0	49674	10053.932005420775	1
0	49677	10054.737947627698	0
0	49687	10056.695916349533	1
0	49688	10057.444345091917	0
0	49697	10058.825281867411	1
0	49698	10059.591133526509	0
0	49723	10065.8337203821	1
0	49724	10065.840850858279	0
0	49740	10068.002194502687	1
0	49742	10068.563562749586	2
0	49743	10068.954824174456	1
0	49748	10069.85057852732	0
0	49752	10070.407187280682	1
0	49753	10070.731580267735	0
0	49760	10071.988216174526	1
0	49763	10072.86795698002	0
0	49767	10072.978317427794	1
0	49768	10073.723587894421	0
0	49772	10073.750848250241	1
0	49773	10074.644311579298	0
0	49777	10075.673066973889	1
0	49778	10075.741784764342	0
0	49793	10078.603046215955	1
0	49795	10079.379759558904	2
0	49796	10079.675610928126	1
0	49803	10080.869376242329	0
0	49807	10081.10168475131	1
0	49810	10081.989408576936	0
0	49814	10082.623295776841	1
0	49816	10082.850846641237	2
0	49817	10083.01525032565	1
0	49821	10083.393722421942	2
0	49822	10083.888910200708	1
0	49826	10084.232488852728	2
0	49827	10084.708167214394	1
0	49830	10085.557582981028	0
0	49834	10085.615793875832	1
0	49836	10085.734078974297	2
0	49838	10085.897469800192	3
0	49839	10086.465257763472	2
0	49842	10087.430427730904	1
0	49845	10088.537166118139	0
0	49849	10088.744942154397	1
0	49850	10089.477908317448	0
0	49856	10089.975305735465	1
0	49858	10090.383184923144	2
0	49859	10090.43484588096	1
0	49862	10091.340165009611	0
0	49866	10091.461242705746	1
0	49868	10092.261059316918	2
0	49870	10092.283492439126	3
0	49871	10092.440155606978	2
0	49875	10093.241260487148	3
0	49876	10093.428461310901	2
0	49880	10093.991231933664	3
0	49882	10094.340521901223	4
0	49883	10094.486424935311	3
0	49887	10094.774139830903	4
0	49888	10095.674612732027	3
0	49893	10096.861460591834	2
0	49897	10097.679455889302	3
0	49898	10097.956205723975	2
0	49904	10098.722629055432	3
0	49905	10099.094391193036	2
0	49908	10100.240206039213	1
0	49911	10101.153644931019	0
0	49915	10101.22151981902	1
0	49917	10101.578615699647	2
0	49918	10102.307533566915	1
0	49922	10102.470504740869	2
0	49923	10103.164119515643	1
0	49927	10103.904766408886	2
0	49928	10104.116511577443	1
0	49932	10104.410195951752	2
0	49933	10105.023730356508	1
0	49936	10106.005101775547	0
0	49943	10106.990050798603	1
0	49944	10107.856609668659	0
0	49956	10110.099867832072	1
0	49957	10110.737994106656	0
0	49964	10111.698969905496	1
0	49965	10112.447696031241	0
0	49969	10113.025622243501	1
0	49970	10113.554652013706	0
0	49974	10114.108057167896	1
0	49975	10114.744193556143	0
0	49979	10114.938629529163	1
0	49980	10115.661209004169	0
0	49984	10116.379682608105	1
0	49985	10116.530696192646	0
0	49989	10117.604707049224	1
0	49990	10117.725819944387	0
0	49994	10118.744334595407	1
0	49995	10118.905064086506	0
0	50002	10119.897021852833	1
0	50003	10120.646658141522	0
0	50015	10122.589981781726	1
0	50018	10123.316550028308	0
0	50068	10133.685015203183	1
0	50069	10133.881533488615	0
0	50075	10134.177319962535	1
0	50076	10134.958949505149	0
0	50080	10135.246278524388	1
0	50081	10135.895129723272	0
0	50090	10137.181815728798	1
0	50096	10137.392972469301	2
0	50099	10138.192031767855	1
0	50102	10139.208710882517	0
0	50106	10139.354956445144	1
0	50108	10139.652366469281	2
0	50109	10140.219726881834	1
0	50113	10140.516866848581	2
0	50114	10141.150699933043	1
0	50119	10142.158908648679	0
0	50123	10142.652215665284	1
0	50124	10143.064433248604	0
0	50134	10145.253589102794	1
0	50135	10145.605525295234	0
0	50149	10148.831182308017	1
0	50150	10148.83338298973	0
0	50162	10151.13818369303	1
0	50163	10152.019037283941	0
0	50172	10153.243561800318	1
0	50174	10153.301601793761	2
0	50175	10154.244671929519	1
0	50178	10155.265034571647	0
0	50182	10155.741202756793	1
0	50183	10156.438010553069	0
0	50190	10158.094332030444	1
0	50191	10158.39336089956	0
0	50197	10158.601040749017	1
0	50199	10158.813871806966	2
0	50201	10159.032225808086	3
0	50202	10159.570076480307	2
0	50205	10160.442311272383	1
0	50209	10161.311322743706	2
0	50210	10161.486196296647	1
0	50214	10161.731737832733	2
0	50216	10162.25139702065	3
0	50217	10162.334312511686	2
0	50221	10162.612644919929	3
0	50222	10163.528385180592	2
0	50225	10164.409425406422	1
0	50229	10164.434123702836	2
0	50231	10164.561418217334	3
0	50233	10164.571437019507	4
0	50234	10165.355080222416	3
0	50237	10166.361105980709	2
0	50241	10167.067605890321	3
0	50242	10167.419561425768	2
0	50245	10168.272395073235	1
0	50248	10169.298132009044	0
0	50252	10169.502663401492	1
0	50253	10170.185278611615	0
0	50285	10175.866190747753	1
0	50288	10176.900077714105	0
0	50295	10178.922322308183	1
0	50296	10178.967332696435	0
0	50306	10181.117411834373	1
0	50308	10181.436313791898	2
0	50309	10181.735317488467	1
0	50314	10182.55992993115	0
0	50318	10182.62180568384	1
0	50320	10182.694094861787	2
0	50323	10183.562410332714	1
0	50326	10184.640013682549	0
0	50330	10185.065739290785	1
0	50331	10185.824324262687	0
0	50335	10185.863127715634	1
0	50336	10186.80142397786	0
0	50343	10188.357413567953	1
0	50344	10189.020060189148	0
0	50356	10191.3303422699	1
0	50357	10191.886081719664	0
0	50368	10192.908197293117	1
0	50369	10193.74475787979	0
0	50376	10195.240073953053	1
0	50377	10195.780142353274	0
0	50386	10197.329653384959	1
0	50389	10197.641282845367	0
0	50398	10198.491015861149	1
0	50399	10199.420021912162	0
0	50418	10202.249306367809	1
0	50419	10203.140003611227	0
0	50428	10204.536572280629	1
0	50430	10204.753552269074	2
0	50431	10205.085802412764	1
0	50436	10206.108166481354	0
0	50443	10207.371172496744	1
0	50444	10207.843645368595	0
0	50487	10217.168735978234	1
0	50490	10217.689213834687	0
0	50530	10226.091816840184	1
0	50533	10226.949454652502	0
0	50547	10229.504724648934	1
0	50548	10229.618955238985	0
0	50565	10233.14903852268	1
0	50566	10233.591362523271	0
0	50570	10234.323171993072	1
0	50571	10234.594202108013	0
0	50575	10235.365245341282	1
0	50576	10235.479104438408	0
0	50583	10236.761132066501	1
0	50585	10236.912923092047	2
0	50586	10237.405360253046	1
0	50591	10238.39115523061	0
0	50603	10240.193710968557	1
0	50606	10241.173002634275	0
0	50617	10242.841048011041	1
0	50618	10243.160080525264	0
0	50633	10246.427196124109	1
0	50634	10246.952636837292	0
0	50641	10248.015350945736	1
0	50642	10249.0339733905	0
0	50649	10250.729521743345	1
0	50650	10251.226805494431	0
0	50666	10253.852650743732	1
0	50669	10254.277524447146	0
0	50693	10259.021781919978	1
0	50696	10259.059615608383	0
0	50708	10261.700788870572	1
0	50709	10262.127864170526	0
0	50721	10264.575777811295	1
0	50722	10265.194440093064	0
0	50726	10266.152331586366	1
0	50727	10266.329353483101	0
0	50733	10267.269146865221	1
0	50734	10267.358548325194	0
0	50738	10267.71327297292	1
0	50740	10268.289898022918	2
0	50741	10268.414052502798	1
0	50746	10269.318473592853	0
0	50753	10270.644620993816	1
0	50758	10271.24866584389	0
0	50765	10272.99584003853	1
0	50766	10273.391313955267	0
0	50775	10275.453668007206	1
0	50776	10275.489581305147	0
0	50785	10277.047296158106	1
0	50787	10277.205499502149	2
0	50788	10277.51090300743	1
0	50792	10277.853361788071	2
0	50793	10278.5181798037	1
0	50797	10279.020391501695	2
0	50798	10279.373883608528	1
0	50802	10280.249833586627	2
0	50803	10280.432221388523	1
0	50806	10281.297215154846	0
0	50810	10281.668300086978	1
0	50811	10282.127752493867	0
0	50830	10285.62363889062	1
0	50831	10286.050466172756	0
0	50840	10287.651886305959	1
0	50842	10287.730833660586	2
0	50844	10287.749284877047	3
0	50846	10287.839274068923	4
0	50849	10288.300808882607	3
0	50853	10289.03233479962	4
0	50856	10289.487312183143	3
0	50860	10289.617523240159	4
0	50861	10290.356377254879	3
0	50865	10290.957776144925	4
0	50866	10291.554166514786	3
0	50869	10292.474290569579	2
0	50872	10293.29641174207	1
0	50876	10294.009023679104	2
0	50877	10294.345504270015	1
0	50880	10295.187210107395	0
0	50884	10296.004547590665	1
0	50885	10296.209725237345	0
0	50889	10296.834029946589	1
0	50891	10296.85293912856	2
0	50892	10297.332681362969	1
0	50896	10297.90548938132	2
0	50898	10298.177310971357	3
0	50899	10298.317362624579	2
0	50903	10298.830198806779	3
0	50904	10299.469215013166	2
0	50908	10299.738436671811	3
0	50909	10300.532808619072	2
0	50913	10300.740577987299	3
0	50914	10301.574934362513	2
0	50918	10302.433383764948	3
0	50920	10302.688985930825	4
0	50921	10302.771377125741	3
0	50925	10302.954088663842	4
0	50926	10303.961890172292	3
0	50929	10304.955989131503	2
0	50933	10305.982364846995	3
0	50934	10306.032312803887	2
0	50938	10306.679336608934	3
0	50940	10306.853627424522	4
0	50941	10307.057213276982	3
0	50944	10308.239305280786	2
0	50947	10309.354888483029	1
0	50951	10310.236738876524	2
0	50953	10310.511812323342	3
0	50954	10310.548639832236	2
0	50957	10311.385676729385	1
0	50960	10312.503797669321	0
0	50964	10313.052932855882	1
0	50965	10313.487742203925	0
0	50969	10313.527648081214	1
0	50971	10313.547764867281	2
0	50972	10314.339292830866	1
0	50976	10314.35951419764	2
0	50978	10314.919438972097	3
0	50979	10315.415828836322	2
0	50982	10316.360407885149	1
0	50986	10316.435704218709	2
0	50988	10316.607345827502	3
0	50991	10317.395734405689	2
0	50994	10318.359918599375	1
0	50997	10319.282361328029	0
0	51001	10319.872030713714	1
0	51002	10320.195764418398	0
0	51017	10322.934041629422	1
0	51019	10323.024028237821	2
0	51021	10323.052311373904	3
0	51024	10324.027870588829	2
0	51028	10324.400003198229	3
0	51031	10325.174997741436	2
0	51035	10325.23964803796	3
0	51036	10326.064830854894	2
0	51039	10327.084685106376	1
0	51046	10327.996326483866	0
0	51053	10329.39565459556	1
0	51055	10329.833212994821	2
0	51056	10329.977809597166	1
0	51060	10330.328058894722	2
0	51062	10330.559893557479	3
0	51063	10330.81942781041	2
0	51067	10331.924079265339	3
0	51068	10331.991070638025	2
0	51073	10332.992344265418	1
0	51077	10333.212059297288	2
0	51079	10333.427611984761	3
0	51080	10333.800692624679	2
0	51084	10333.824164736559	3
0	51085	10334.630911752476	2
0	51089	10335.615498741302	3
0	51090	10335.648346402577	2
0	51093	10336.703259568463	1
0	51097	10337.014625413433	2
0	51098	10337.749875187955	1
0	51101	10338.697394234675	0
0	51105	10339.636011137107	1
0	51106	10339.657561008434	0
0	51110	10339.858868184282	1
0	51111	10340.79454685942	0
0	51142	10347.79800897806	1
0	51143	10348.540469226044	0
0	51155	10351.197982117676	1
0	51156	10351.264045950387	0
0	51167	10352.41396407827	1
0	51168	10353.074249041908	0
0	51177	10354.392026013715	1
0	51178	10355.186344093074	0
0	51185	10356.337457096843	1
0	51189	10357.026469279045	2
0	51192	10357.12515128319	1
0	51195	10358.177370603279	0
0	51201	10358.666638174799	1
0	51203	10359.139924773146	2
0	51204	10359.291529793934	1
0	51208	10359.348538649758	2
0	51209	10360.415831625545	1
0	51212	10361.606375392144	0
0	51216	10362.14005120671	1
0	51217	10362.721676907865	0
0	51221	10363.44508765146	1
0	51222	10363.568741368493	0
0	51242	10368.548871332272	1
0	51243	10368.665031257634	0
0	51250	10369.927700250336	1
0	51253	10370.658978661698	0
0	51262	10372.502588365431	1
0	51265	10372.866942209274	0
0	51277	10375.825017522154	1
0	51278	10376.093276320945	0
0	51285	10377.5798712512	1
0	51288	10378.175810199778	0
0	51297	10379.549251161281	1
0	51300	10380.151760099351	0
0	51312	10382.416873467824	1
0	51313	10383.059964663803	0
0	51319	10383.338445624654	1
0	51320	10383.875118641823	0
0	51330	10386.194340587584	1
0	51333	10386.626348752796	0
0	51337	10386.652317111737	1
0	51338	10387.467857018194	0
0	51342	10387.677296600092	1
0	51343	10388.336477938562	0
0	51352	10390.086822585812	1
0	51353	10390.487428635533	0
0	51357	10390.7408909592	1
0	51360	10391.430165844864	0
0	51367	10392.578085758842	1
0	51369	10393.049648724515	2
0	51370	10393.267935316066	1
0	51373	10394.292387767496	0
0	51380	10395.588175914553	1
0	51381	10396.037443586799	0
0	51385	10396.044770426802	1
0	51387	10396.118207177236	2
0	51388	10397.200502443953	1
0	51394	10398.096162755852	2
0	51395	10398.312938682909	1
0	51399	10398.561032660576	2
0	51400	10399.407953843462	1
0	51406	10399.785959633263	2
0	51407	10400.4222784398	1
0	51411	10400.514296471232	2
0	51412	10401.254009167186	1
0	51416	10401.5192419662	2
0	51417	10402.150350789434	1
0	51421	10402.49015236839	2
0	51422	10403.277524068939	1
0	51426	10403.575471754189	2
0	51427	10404.264058629876	1
0	51430	10405.408272467075	0
0	51434	10405.713348840937	1
0	51435	10406.409349692227	0
0	51439	10406.827945450882	1
0	51441	10406.863553622883	2
0	51443	10407.498191389049	3
0	51444	10407.59161789239	2
0	51448	10407.624382832509	3
0	51452	10407.820268231587	4
0	51453	10408.481942730477	3
0	51457	10408.783356502473	4
0	51458	10409.440339343982	3
0	51461	10410.579567879332	2
0	51464	10411.67304462845	1
0	51468	10412.487307739699	2
0	51469	10412.517205867623	1
0	51473	10412.720360802298	2
0	51474	10413.700537005053	1
0	51478	10414.506745521268	2
0	51479	10414.678276211103	1
0	51482	10415.480765434248	0
0	51486	10416.086407446253	1
0	51487	10416.280784611856	0
0	51497	10418.202548604245	1
0	51499	10419.005935588204	2
0	51500	10419.138560791766	1
0	51504	10419.824504825556	2
0	51505	10420.012227481497	1
0	51508	10421.063811833864	0
0	51512	10421.652277933858	1
0	51514	10422.188727936789	2
0	51515	10422.21479431436	1
0	51520	10423.287324312037	0
0	51524	10423.408129577853	1
0	51527	10424.349676603252	0
0	51531	10424.850072369832	1
0	51532	10425.210223442675	0
0	51536	10425.290153865033	1
0	51537	10426.160278426656	0
0	51544	10427.698980134818	1
0	51545	10428.06041943085	0
0	51552	10429.294885595417	1
0	51555	10429.884699234726	0
0	51574	10432.67280693358	1
0	51577	10433.840877517392	0
0	51618	10443.757455960041	1
0	51619	10443.761615446197	0
0	51626	10444.823406416857	1
0	51629	10445.58450724621	0
0	51638	10447.117756740157	1
0	51639	10447.762145696941	0
0	51648	10449.022451327563	1
0	51649	10450.059968016471	0
0	51653	10450.225685587427	1
0	51654	10451.016079052433	0
0	51658	10451.282029969402	1
0	51659	10452.123538087763	0
0	51668	10453.226062591397	1
0	51670	10453.726228390831	2
0	51671	10453.812214905757	1
0	51675	10454.073083711327	2
0	51678	10455.002472908411	1
0	51682	10455.223884700904	2
0	51683	10456.034304316703	1
0	51687	10456.149316716592	2
0	51689	10456.365212360571	3
0	51690	10456.855422800582	2
0	51694	10457.689904542226	3
0	51695	10457.846376988933	2
0	51699	10458.464625399638	3
0	51700	10458.951541041106	2
0	51704	10460.017499310559	3
0	51705	10460.026758269954	2
0	51709	10460.148398713858	3
0	51710	10461.144090131752	2
0	51714	10461.298775932495	3
0	51715	10462.290767955676	2
0	51719	10462.75941388805	3
0	51720	10463.466366249591	2
0	51724	10463.651282761886	3
0	51725	10464.376638487343	2
0	51728	10465.294929168176	1
0	51731	10466.396548973478	0
0	51738	10467.928057587233	1
0	51739	10468.144709949743	0
0	51751	10471.098812045017	1
0	51752	10471.267660288129	0
0	51761	10472.584872193832	1
0	51762	10473.35352728226	0
0	51771	10474.373715658508	1
0	51772	10475.095992054593	0
0	51781	10476.459042813057	1
0	51782	10476.960441960477	0
0	51789	10478.210990669251	1
0	51790	10479.193821126119	0
0	51797	10480.504645897654	1
0	51799	10480.917499106911	2
0	51800	10481.203124819872	1
0	51805	10482.104137245835	0
0	51809	10483.066353023052	1
0	51810	10483.12036161934	0
0	51814	10483.746048579533	1
0	51815	10484.045792829515	0
0	51819	10484.743263918652	1
0	51821	10484.806918420404	2
0	51822	10484.86044884202	1
0	51825	10485.937977102948	0
0	51829	10486.183855336934	1
0	51830	10486.951695790318	0
0	51837	10488.396611970876	1
0	51838	10489.314690608428	0
0	51842	10489.815649586392	1
0	51843	10490.51433317623	0
0	51850	10491.44922576666	1
0	51852	10491.875062052235	2
0	51853	10492.187285942015	1
0	51858	10493.093832316891	0
0	51862	10493.139811973206	1
0	51864	10493.395598429721	2
0	51866	10493.746260702468	3
0	51869	10494.237806346164	2
0	51873	10494.998407123643	3
0	51874	10495.293726875064	2
0	51877	10496.123799732597	1
0	51880	10497.003138848571	0
0	51887	10498.115096730665	1
0	51889	10499.05705175116	2
0	51890	10499.133344229954	1
0	51896	10499.483291202913	2
0	51897	10500.156063168301	1
0	51901	10500.199848982884	2
0	51902	10501.090079754862	1
0	51905	10501.933411993264	0
0	51909	10502.064310292597	1
0	51910	10503.014212386022	0
0	51917	10504.519132404653	1
0	51918	10504.890428121286	0
0	51934	10507.117138906199	1
0	51935	10507.768185069217	0
0	51946	10508.942140935282	1
0	51947	10509.808264833959	0
0	51956	10511.554399591226	1
0	51957	10511.806939773252	0
0	51966	10512.900409342425	1
0	51969	10513.625281650191	0
0	51978	10514.93898419376	1
0	51979	10515.978805673858	0
0	51989	10518.298170443847	1
0	51990	10519.119360386571	0
0	51999	10520.68222830999	1
0	52000	10521.190231515458	0
0	52009	10522.463813047389	1
0	52012	10522.949476001496	0
0	52021	10525.21595527799	1
0	52023	10525.223853620548	2
0	52024	10525.24360468275	1
0	52028	10525.71696115197	2
0	52029	10526.408879973638	1
0	52033	10526.56248671682	2
0	52034	10527.423661284792	1
0	52038	10528.013182485441	2
0	52039	10528.539959365028	1
0	52045	10529.265304236552	2
0	52048	10529.714389080825	1
0	52051	10530.772116578641	0
0	52055	10531.488187867426	1
0	52056	10531.869466717346	0
0	52060	10532.194329641297	1
0	52061	10532.871063008709	0
0	52068	10533.80205218854	1
0	52070	10533.863859341934	2
0	52071	10534.754630130427	1
0	52075	10534.916074050614	2
0	52077	10535.099372200703	3
0	52078	10535.755024010586	2
0	52082	10536.128387294464	3
0	52084	10536.526939256818	4
0	52085	10536.913593146103	3
0	52090	10537.932795342794	2
0	52093	10538.989214667576	1
0	52096	10539.946081562145	0
0	52105	10541.437831299732	1
0	52107	10541.467963163738	2
0	52108	10542.254503658405	1
0	52113	10543.198853087789	0
0	52117	10543.54999629553	1
0	52119	10543.835438091225	2
0	52120	10544.314214829812	1
0	52124	10545.202440267145	2
0	52125	10545.211871291408	1
0	52128	10546.327118964018	0
0	52132	10546.546274091929	1
0	52133	10547.174750911155	0
0	52140	10548.78685318776	1
0	52142	10549.00537069279	2
0	52143	10549.311537554292	1
0	52148	10550.445533350287	0
0	52264	10574.325254993882	1
0	52267	10575.298728527121	0
0	52296	10581.224787578366	1
0	52297	10581.420715651467	0
0	52308	10583.389934040413	1
0	52309	10583.429843029372	0
0	52313	10583.558351340789	1
0	52314	10584.337661848582	0
0	52318	10584.683588006015	1
0	52323	10585.281149646725	0
0	52329	10585.987604744043	1
0	52332	10586.465004647888	0
0	52339	10587.926644558641	1
0	52340	10588.595710916995	0
0	52372	10594.91988090369	1
0	52375	10595.617071886912	0
0	52382	10596.801485516482	1
0	52387	10597.919853264551	0
0	52401	10599.880387105901	1
0	52402	10600.970730229087	0
0	52411	10602.62074396557	1
0	52412	10603.15295301526	0
0	52419	10604.486072134351	1
0	52420	10605.268976001899	0
0	52427	10606.676678054886	1
0	52430	10607.439340430211	0
0	52447	10610.32021256031	1
0	52450	10611.334800372358	0
0	52459	10613.052836633477	1
0	52460	10613.40854593822	0
0	52469	10615.313001067221	1
0	52470	10615.397076345694	0
0	52479	10616.333157425048	1
0	52480	10617.32475465284	0
0	52487	10618.731974385489	1
0	52489	10619.155212097649	2
0	52490	10619.439153524109	1
0	52495	10620.44615405788	0
0	52499	10620.628529733921	1
0	52501	10620.747360624363	2
0	52502	10621.277815765415	1
0	52505	10622.290837625221	0
0	52509	10622.301278245401	1
0	52510	10623.474530444474	0
0	52514	10623.637129044834	1
0	52517	10624.654688552854	0
0	52521	10625.383107913049	1
0	52522	10625.711708097247	0
0	52528	10626.325375881614	1
0	52529	10626.78415862433	0
0	52536	10628.457630441048	1
0	52537	10628.835127260903	0
0	52546	10630.66870289471	1
0	52547	10630.901661282027	0
0	52554	10631.932858737343	1
0	52557	10632.772822748492	0
0	52572	10635.832994260385	1
0	52573	10636.3617999752	0
0	52592	10640.270841798573	1
0	52595	10640.602368549438	0
0	52605	10642.924465434239	1
0	52608	10643.589971352083	0
0	52620	10645.68158540855	1
0	52621	10646.340007707378	0
0	52628	10647.557552906521	1
0	52629	10648.249619206781	0
0	52638	10649.736099476533	1
0	52639	10650.26353049045	0
0	52643	10650.321143195884	1
0	52648	10651.281128480002	0
0	52652	10651.629681416433	1
0	52653	10652.121701786942	0
0	52657	10652.218496129504	1
0	52658	10653.313539722371	0
0	52667	10654.459452933061	1
0	52670	10655.478492749292	0
0	52802	10684.743604609556	1
0	52803	10684.975909992585	0
0	52850	10694.584432210309	1
0	52851	10694.711988174169	0
0	52855	10695.714620721675	1
0	52856	10695.898644401039	0
0	52871	10697.166241287937	1
0	52872	10697.822840107232	0
0	52889	10700.12544841663	1
0	52890	10700.156205910817	0
0	52907	10703.764855993591	1
0	52908	10704.124811780453	0
0	52960	10717.096376250174	1
0	52963	10717.801491085345	0
0	52982	10721.201701748937	1
0	52983	10721.362717445752	0
0	52994	10722.755200610814	1
0	52995	10723.41329767471	0
0	53004	10725.226869588568	1
0	53005	10725.478728704152	0
0	53012	10726.72250951401	1
0	53013	10727.74579887334	0
0	53025	10730.107992369704	1
0	53026	10730.65734786242	0
0	53030	10731.209780593554	1
0	53035	10731.775926085932	0
0	53047	10734.211301384208	1
0	53048	10734.446066220662	0
0	53057	10736.336152437717	1
0	53058	10736.4635319937	0
0	53065	10737.637500670474	1
0	53069	10738.444241645303	2
0	53070	10738.46084536379	1
0	53076	10738.698556373735	2
0	53078	10739.268331631346	3
0	53079	10739.399938637202	2
0	53082	10740.564687806272	1
0	53086	10741.082955462822	2
0	53087	10741.629616895222	1
0	53090	10742.737940329497	0
0	53097	10743.892411386985	1
0	53099	10744.128675891841	2
0	53100	10744.513607877956	1
0	53104	10744.564496959003	2
0	53107	10745.690911888329	1
0	53110	10746.890377152802	0
0	53114	10747.093650673917	1
0	53115	10747.907531849851	0
0	53180	10763.715633103879	1
0	53181	10763.94553444795	0
0	53192	10765.342946640568	1
0	53197	10765.955955482458	0
0	53206	10767.33255226928	1
0	53209	10768.077742859812	0
0	53216	10769.44475766625	1
0	53217	10770.074076506866	0
0	53234	10773.499763563677	1
0	53235	10773.716634378022	0
0	53256	10777.133006192857	1
0	53259	10777.736992903332	0
0	53266	10779.508669650135	1
0	53267	10779.592594531643	0
0	53278	10781.089716668516	1
0	53279	10781.544660667423	0
0	53297	10785.451846338073	1
0	53298	10786.363955771643	0
0	53302	10786.631609513108	1
0	53304	10786.937888959191	2
0	53305	10787.498158238362	1
0	53309	10787.575930406975	2
0	53312	10788.372190905269	1
0	53317	10789.552816058323	0
0	53326	10791.412812205215	1
0	53327	10791.472897905856	0
0	53331	10791.473856816913	1
0	53332	10792.38829937661	0
0	53340	10792.790538351057	1
0	53341	10793.47332461914	0
0	53348	10794.384711856205	1
0	53351	10795.366474185232	0
0	53368	10798.626532642094	1
0	53369	10799.065520554502	0
0	53375	10800.011896377205	1
0	53376	10800.074650522322	0
0	53383	10801.175287659649	1
0	53384	10802.018056100514	0
0	53393	10803.524077014369	1
0	53394	10803.789300856926	0
0	53401	10805.358246975216	1
0	53402	10805.906014280301	0
0	53406	10806.588268658706	1
0	53407	10807.086730615702	0
0	53413	10807.526932995051	1
0	53414	10808.17697546864	0
0	53418	10808.29169535131	1
0	53419	10809.262355792057	0
0	53426	10810.969868559251	1
0	53427	10811.38548845416	0
0	53431	10812.140240179877	1
0	53432	10812.263209367265	0
0	53438	10812.820616113508	1
0	53440	10812.983212097742	2
0	53441	10813.425143785869	1
0	53444	10814.450730970131	0
0	53448	10815.248968888359	1
0	53449	10815.498908914907	0
0	53453	10815.618924153282	1
0	53455	10815.893509872469	2
0	53457	10816.403565788206	3
0	53458	10816.666839519797	2
0	53461	10817.698976837194	1
0	53465	10818.492234861074	2
0	53466	10818.503864147796	1
0	53469	10819.586072786621	0
0	53489	10824.034823066915	1
0	53490	10824.547760009862	0
0	53494	10824.900178723321	1
0	53495	10825.52432022449	0
0	53505	10827.722149513561	1
0	53506	10828.189780505098	0
0	53570	10840.749516094167	1
0	53571	10841.046300462729	0
0	53585	10843.55196824373	1
0	53588	10843.944264461754	0
0	53599	10845.014392837438	1
0	53602	10845.780929002447	0
0	53614	10848.31552350932	1
0	53615	10849.04514359981	0
0	53622	10850.404365859154	1
0	53625	10851.147229864543	0
0	53631	10851.314506455996	1
0	53632	10852.227318183893	0
0	53642	10854.543958822471	1
0	53646	10855.106324383099	2
0	53647	10855.389629971051	1
0	53652	10856.568434138784	0
0	53656	10856.836013485147	1
0	53658	10857.430437138579	2
0	53659	10857.559915170355	1
0	53662	10858.698835279981	0
0	53669	10859.80531520074	1
0	53671	10859.872076119618	2
0	53672	10860.622983732729	1
0	53675	10861.648878572232	0
0	53682	10863.37362737004	1
0	53683	10863.401434999149	0
0	53690	10864.920668735962	1
0	53691	10865.417971781366	0
0	53801	10889.587817987767	1
0	53804	10890.35720808553	0
0	53813	10891.491342974218	1
0	53816	10892.375191156012	0
0	53823	10893.489403998203	1
0	53824	10894.312045067274	0
0	53831	10895.580476766153	1
0	53833	10895.975808561825	2
0	53834	10896.354761746996	1
0	53837	10897.158101129723	0
0	53844	10898.823873810006	1
0	53845	10899.148057985776	0
0	53854	10900.299401717564	1
0	53855	10900.997325824485	0
0	53879	10905.68939925029	1
0	53880	10905.943324936744	0
0	53891	10907.230575798973	1
0	53892	10907.697923156344	0
0	53901	10909.351349645974	1
0	53902	10909.460689352457	0
0	53911	10911.128234576237	1
0	53913	10911.264785834436	2
0	53914	10911.691838044305	1
0	53917	10912.763768734228	0
0	53923	10912.946122803928	1
0	53924	10913.844561165575	0
0	53941	10917.36712980547	1
0	53942	10917.434375763596	0
0	53946	10918.186693057321	1
0	53947	10918.282663979665	0
0	53954	10919.630093223205	1
0	53955	10920.347309567597	0
0	53959	10920.544856270985	1
0	53960	10921.211332191624	0
0	53970	10923.649314779838	1
0	53974	10923.808841323121	2
0	53975	10924.324957716935	1
0	53979	10924.506311282264	2
0	53980	10925.319719870765	1
0	53985	10926.488479192093	0
0	53996	10927.573479436744	1
0	53998	10927.770150182916	2
0	53999	10928.566019523334	1
0	54004	10929.678524397411	0
0	54008	10930.35157932389	1
0	54009	10930.591830841736	0
0	54013	10931.054595182491	1
0	54014	10931.618454196681	0
0	54018	10932.119011864289	1
0	54019	10932.622232809295	0
0	54023	10932.892821073153	1
0	54024	10933.731394069553	0
0	54028	10934.394815173018	1
0	54029	10934.740472741057	0
0	54036	10936.659456506518	1
0	54037	10936.76336860266	0
0	54046	10937.916706593106	1
0	54048	10937.922086860687	2
0	54049	10938.505675131179	1
0	54053	10938.577377389003	2
0	54056	10939.685210084546	1
0	54060	10939.765296146827	2
0	54061	10940.611182237886	1
0	54064	10941.788199234013	0
0	54071	10943.643554197677	1
0	54072	10943.98979019076	0
0	54076	10944.396316455471	1
0	54077	10944.791060391165	0
0	54086	10946.133432319986	1
0	54088	10946.575989217076	2
0	54089	10947.032256491299	1
0	54095	10948.116255416198	2
0	54096	10948.216540249906	1
0	54099	10949.233575942743	0
0	54103	10950.058110528633	1
0	54104	10950.066815272256	0
0	54108	10950.73706214662	1
0	54109	10951.176900793056	0
0	54116	10952.89379776176	1
0	54117	10953.048701747603	0
0	54123	10953.398177578799	1
0	54124	10954.222715367939	0
0	54128	10954.390002155338	1
0	54131	10955.234167227246	0
0	54143	10957.343533899397	1
0	54144	10958.335820789638	0
0	54150	10958.731482550906	1
0	54151	10959.399122493065	0
0	54155	10959.566910126756	1
0	54156	10960.550894565604	0
0	54172	10965.507649492968	1
0	54173	10965.598984374482	0
0	54177	10965.654950289323	1
0	54178	10966.678955181505	0
0	54182	10967.273440748151	1
0	54185	10967.666303951762	0
0	54199	10969.983844546934	1
0	54202	10970.469880913015	0
0	54214	10972.755265426834	1
0	54215	10973.534092578109	0
0	54219	10974.068626757871	1
0	54221	10974.21659849441	2
0	54222	10974.380054071363	1
0	54228	10974.891495910441	2
0	54229	10975.503002209313	1
0	54233	10976.246930391825	2
0	54234	10976.554717729896	1
0	54238	10976.891116939105	2
0	54241	10977.356603846144	1
0	54244	10978.431782787949	0
0	54254	10980.98585806575	1
0	54255	10981.249580413294	0
0	54269	10984.108317742278	1
0	54270	10984.296040714537	0
0	54279	10985.703051887757	1
0	54281	10986.406353646806	2
0	54282	10986.432627352239	1
0	54285	10987.265281783981	0
0	54292	10988.865592986084	1
0	54293	10989.293015322188	0
0	54297	10990.227070899781	1
0	54298	10990.417223961843	0
0	54305	10991.879571890787	1
0	54306	10992.736964603147	0
0	54315	10994.118465878392	1
0	54316	10994.95213224963	0
0	54362	11005.544534539706	1
0	54365	11006.251949176664	0
0	54377	11008.104979664742	1
0	54382	11009.141631202592	0
0	54389	11010.252239202057	1
0	54392	11011.087773782207	0
0	54406	11013.194151106779	1
0	54407	11014.009001367451	0
0	54427	11018.425237639281	1
0	54430	11018.946127475709	0
0	54442	11020.857802334052	1
0	54444	11021.539769629726	2
0	54445	11021.563943359167	1
0	54453	11022.211997661089	2
0	54454	11022.657314467062	1
0	54458	11022.715035149286	2
0	54459	11023.703039140166	1
0	54464	11024.77740277723	0
0	54473	11026.428254634078	1
0	54474	11026.715046084957	0
0	54478	11026.9720515912	1
0	54481	11027.85777772023	0
0	54485	11028.285341284889	1
0	54487	11028.384592590899	2
0	54488	11029.006277229922	1
0	54492	11029.185409560417	2
0	54493	11029.835836495185	1
0	54497	11029.937326111471	2
0	54498	11030.680436732439	1
0	54502	11031.059694770678	2
0	54504	11031.164734140378	3
0	54505	11031.807010529196	2
0	54508	11032.732955517253	1
0	54512	11032.929804205446	2
0	54513	11033.600653879909	1
0	54517	11034.096594299256	2
0	54518	11034.588105055696	1
0	54522	11035.104159889853	2
0	54523	11035.420081721159	1
0	54526	11036.569145295682	0
0	54530	11037.153630154602	1
0	54531	11037.41680692705	0
0	54538	11038.787875251001	1
0	54539	11039.498006962525	0
0	54546	11040.809554586097	1
0	54548	11041.465646567832	2
0	54549	11041.487504066253	1
0	54552	11042.430315331561	0
0	54558	11042.574694902451	1
0	54559	11043.401707961881	0
0	54569	11045.666430446299	1
0	54571	11046.357361093202	2
0	54572	11046.567471520328	1
0	54577	11047.384752474544	0
0	54584	11048.343560466479	1
0	54585	11049.230474583437	0
0	54599	11051.784663378788	1
0	54600	11051.951622694828	0
0	54604	11052.105060623289	1
0	54607	11053.002544828043	0
0	54611	11053.924129683242	1
0	54612	11053.926757336505	0
0	54616	11054.126500168833	1
0	54617	11054.889734575249	0
0	54626	11056.115230641757	1
0	54627	11057.210994223229	0
0	54638	11058.582628962051	1
0	54639	11059.160335773232	0
0	54654	11062.269783325207	1
0	54657	11063.326140898282	0
0	54671	11065.704886842925	1
0	54674	11066.191678036938	0
0	54727	11078.648627196848	1
0	54730	11078.989834437058	0
0	54744	11081.428740717852	1
0	54745	11081.862489423718	0
0	54757	11084.593459613255	1
0	54758	11085.035028284046	0
0	54770	11087.371091617925	1
0	54773	11088.114445568996	0
0	54782	11090.00201772508	1
0	54783	11090.281610799118	0
0	54790	11091.456185460018	1
0	54791	11092.190034493342	0
0	54807	11096.10387843189	1
0	54812	11097.00855230261	0
0	54825	11099.044296293508	1
0	54826	11099.093021743469	0
0	54835	11100.354990580486	1
0	54836	11100.848092341706	0
0	54845	11102.530921359201	1
0	54846	11102.570235778768	0
0	54850	11103.005680695618	1
0	54851	11103.404158689924	0
0	54858	11105.025008027307	1
0	54859	11105.627470929086	0
0	54863	11105.63043188345	1
0	54865	11105.937136973792	2
0	54866	11106.44049863974	1
0	54870	11106.449301715071	2
0	54872	11106.594163433308	3
0	54875	11107.407201735679	2
0	54878	11108.571991516281	1
0	54881	11109.674327680193	0
0	54885	11110.175587170451	1
0	54886	11110.688539473716	0
0	54890	11110.786928024636	1
0	54892	11111.499219985265	2
0	54893	11111.818491498105	1
0	54896	11112.657553158425	0
0	54900	11112.773016374333	1
0	54902	11113.199226036287	2
0	54903	11113.729286363725	1
0	54907	11113.978225863963	2
0	54908	11114.747401863061	1
0	54912	11115.135501282724	2
0	54913	11115.771063217618	1
0	54917	11115.830727580553	2
0	54920	11116.77826252636	1
0	54925	11117.912153890174	0
0	54929	11118.221248249908	1
0	54930	11119.060170597028	0
0	54940	11121.362706532765	1
0	54942	11122.287830321218	2
0	54943	11122.347274276618	1
0	54950	11123.211675657895	0
0	54965	11126.791438071486	1
0	54966	11126.819989970703	0
0	54977	11128.336892766014	1
0	54978	11128.669460190464	0
0	54984	11128.844996951562	1
0	54986	11129.695185521549	2
0	54987	11129.759755259197	1
0	54990	11130.680753281623	0
0	54997	11131.793017305875	1
0	54998	11132.517037448011	0
0	55002	11133.562171008733	1
0	55003	11133.578862798031	0
0	55009	11134.547812523016	1
0	55010	11134.555819208458	0
0	55014	11135.374251009829	1
0	55015	11135.653909491658	0
0	55019	11135.76850793119	1
0	55020	11136.820175642244	0
0	55027	11137.875879213341	1
0	55030	11138.788740457877	0
0	55034	11139.637185459924	1
0	55035	11139.8999198393	0
0	55042	11141.556068917236	1
0	55043	11141.831846032295	0
0	55047	11142.758211539123	1
0	55048	11142.801856008082	0
0	55052	11142.949066141909	1
0	55054	11143.11732056446	2
0	55057	11143.931186734795	1
0	55061	11144.755996959913	2
0	55062	11144.82993693827	1
0	55066	11145.285248520642	2
0	55068	11145.512725675163	3
0	55069	11145.866699044316	2
0	55075	11146.826943178159	3
0	55076	11146.94970338885	2
0	55079	11147.90556268208	1
0	55083	11148.445161466941	2
0	55084	11148.728868016696	1
0	55088	11149.659736240895	2
0	55089	11149.674496854751	1
0	55093	11150.396795777178	2
0	55094	11150.734617288599	1
0	55097	11151.93326966027	0
0	55101	11152.497396874752	1
0	55102	11153.064203501588	0
0	55117	11156.110055340261	1
0	55118	11156.942667146681	0
0	55125	11158.207322074266	1
0	55130	11158.944822629637	0
0	55142	11161.81913589004	1
0	55143	11162.163963881976	0
0	55152	11163.427746711031	1
0	55153	11164.129204579446	0
0	55168	11166.808098111354	1
0	55169	11167.715252036511	0
0	55181	11169.764389793163	1
0	55184	11170.58920897106	0
0	55190	11171.129574409364	1
0	55191	11171.419822224605	0
0	55198	11172.715105581789	1
0	55199	11173.254720292616	0
0	55213	11175.770501426853	1
0	55214	11176.068859650942	0
0	55218	11176.228288248626	1
0	55219	11177.263773703671	0
0	55226	11178.611541201016	1
0	55228	11178.680649617959	2
0	55229	11179.182080519481	1
0	55233	11179.968773501821	2
0	55234	11180.135967054407	1
0	55239	11181.307720368265	0
0	55245	11181.691930922415	1
0	55247	11181.894812636813	2
0	55249	11182.145168662953	3
0	55250	11182.463386035993	2
0	55253	11183.629215729333	1
0	55257	11183.686701323427	2
0	55258	11184.653651723455	1
0	55261	11185.690129571877	0
0	55265	11185.928991558774	1
0	55267	11186.41344389262	2
0	55268	11186.582063087266	1
0	55272	11187.157329323088	2
0	55273	11187.396814836938	1
0	55276	11188.344932654969	0
0	55280	11188.455115867695	1
0	55283	11189.265664136599	0
0	55290	11190.550793866814	1
0	55291	11191.357033195629	0
0	55308	11194.799141061283	1
0	55311	11195.605196595474	0
0	55325	11198.307314180331	1
0	55326	11198.704059963397	0
0	55330	11198.786172411996	1
0	55331	11199.893173761855	0
0	55340	11201.556153140873	1
0	55341	11202.088725022788	0
0	55350	11203.834589574895	1
0	55352	11203.893259909456	2
0	55353	11204.09620249877	1
0	55358	11205.269603338933	0
0	55362	11205.591659030793	1
0	55363	11206.261090599468	0
0	55367	11206.979017517089	1
0	55368	11207.094544624819	0
0	55372	11207.42408534862	1
0	55373	11208.251735893174	0
0	55380	11210.390478151007	1
0	55381	11210.452523563339	0
0	55388	11211.67637036826	1
0	55392	11212.367857683931	2
0	55393	11212.395251217487	1
0	55396	11213.348931208535	0
0	55402	11214.257644569354	1
0	55403	11214.523306825946	0
0	55410	11216.346140227914	1
0	55411	11216.60482080607	0
0	55444	11222.819571911814	1
0	55445	11222.959216562102	0
0	55454	11223.904952413729	1
0	55456	11224.409722005812	2
0	55457	11224.913219974472	1
0	55464	11226.057985789797	0
0	55468	11226.234168052383	1
0	55469	11226.942309573947	0
0	55473	11227.177019734156	1
0	55474	11228.030711645077	0
0	55481	11229.039089972021	1
0	55483	11229.132941413661	2
0	55484	11229.850589683468	1
0	55487	11230.76727138432	0
0	55491	11231.479397409708	1
0	55494	11231.824054010029	0
0	55501	11233.409517549638	1
0	55502	11234.035419017173	0
0	55506	11234.100774246678	1
0	55509	11235.021760148745	0
0	55513	11235.768031949702	1
0	55514	11235.870841789622	0
0	55518	11236.119800519108	1
0	55520	11236.6425193476	2
0	55521	11236.877014739908	1
0	55525	11237.236888207046	2
0	55526	11237.725578631557	1
0	55530	11238.210846717149	2
0	55531	11238.810536660257	1
0	55536	11239.626240290704	0
0	55543	11240.83472832985	1
0	55545	11241.444892336167	2
0	55547	11241.778798720345	3
0	55548	11241.882642330977	2
0	55553	11242.838341279703	1
0	55557	11242.951475075026	2
0	55558	11243.651213185026	1
0	55561	11244.540889146461	0
0	55565	11244.615400449327	1
0	55566	11245.56032568049	0
0	55581	11248.761953252187	1
0	55583	11248.95600544625	2
0	55584	11249.213768900654	1
0	55587	11250.297813646218	0
0	55591	11250.616243558535	1
0	55592	11251.308336614168	0
0	55596	11251.682172968432	1
0	55597	11252.374510882052	0
0	55604	11253.582915136229	1
0	55606	11253.753678848591	2
0	55609	11254.242164987701	1
0	55612	11255.111313363726	0
0	55616	11255.630930535809	1
0	55619	11256.216407333131	0
0	55627	11256.935480147443	1
0	55628	11257.215092842749	0
0	55632	11257.674442674508	1
0	55633	11258.332180159355	0
0	55637	11258.650460545942	1
0	55638	11259.381091697144	0
0	55642	11259.832027847054	1
0	55643	11260.391275165698	0
0	55649	11260.948246750411	1
0	55650	11261.522945637072	0
0	55654	11262.183372896359	1
0	55655	11262.534190684932	0
0	55659	11262.849489834242	1
0	55661	11263.513446931206	2
0	55662	11263.648173187396	1
0	55665	11264.755002836792	0
0	55669	11264.876423733518	1
0	55670	11265.854948741293	0
0	55674	11265.98354293056	1
0	55675	11266.791939422677	0
0	55679	11266.815148287896	1
0	55681	11267.408215504826	2
0	55682	11267.774061359188	1
0	55686	11268.404498469358	2
0	55687	11268.71134737097	1
0	55691	11268.778337139098	2
0	55692	11269.854583987317	1
0	55696	11270.069350280386	2
0	55698	11270.405845938379	3
0	55699	11270.674802080079	2
0	55703	11270.814515998876	3
0	55704	11271.799403308614	2
0	55707	11272.779793345372	1
0	55711	11273.006449306816	2
0	55713	11273.422464630573	3
0	55714	11273.618180738578	2
0	55717	11274.635616295694	1
0	55720	11275.553317407521	0
0	55724	11276.034953285458	1
0	55725	11276.54656262724	0
0	55732	11278.321756304193	1
0	55733	11278.824100279532	0
0	55742	11280.529209947328	1
0	55743	11280.619457176983	0
0	55755	11283.491101282374	1
0	55756	11283.674403886779	0
0	55760	11283.695098198818	1
0	55762	11284.118192541661	2
0	55763	11284.674468131366	1
0	55767	11285.451300681998	2
0	55768	11285.705931940491	1
0	55772	11286.080494902704	2
0	55773	11286.747740081886	1
0	55779	11286.967726459072	2
0	55780	11287.766862609426	1
0	55783	11288.861955827198	0
0	55787	11289.118966196843	1
0	55789	11289.534689802608	2
0	55790	11289.96266495595	1
0	55794	11289.992340313948	2
0	55795	11291.110609040319	1
0	55798	11292.247264979503	0
0	55805	11293.120946516034	1
0	55807	11293.911161338906	2
0	55808	11294.069282152227	1
0	55813	11295.248549616619	0
0	55820	11297.227567757556	1
0	55821	11297.514396220635	0
0	55825	11298.008282442411	1
0	55826	11298.705794082678	0
0	55840	11301.399724184882	1
0	55841	11301.449062627651	0
0	55850	11303.253052396482	1
0	55851	11303.657370182876	0
0	55858	11304.786167688703	1
0	55859	11305.565211891294	0
0	55905	11316.156482391517	1
0	55906	11316.378114072145	0
0	55923	11320.042779898338	1
0	55926	11320.646630064962	0
0	55964	11329.559469577237	1
0	55967	11329.970605415577	0
0	55971	11330.499416346553	1
0	55972	11330.837484175717	0
0	55978	11331.757616578625	1
0	55981	11331.995558744674	0
0	55988	11333.01870800397	1
0	55989	11333.815350216446	0
0	55998	11335.064578932689	1
0	56000	11335.425954401084	2
0	56001	11335.737709818413	1
0	56005	11335.918012228596	2
0	56008	11336.922777620987	1
0	56012	11337.090609756325	2
0	56014	11337.424841718283	3
0	56015	11337.990533223846	2
0	56019	11338.457342829125	3
0	56020	11338.879538825066	2
0	56023	11339.696499161334	1
0	56026	11340.755370507487	0
0	56030	11341.82550330665	1
0	56031	11341.932591201928	0
0	56035	11342.308480424761	1
0	56037	11342.541550334884	2
0	56038	11342.815737798162	1
0	56042	11343.46673230062	2
0	56043	11343.779575108089	1
0	56047	11344.837436054954	2
0	56048	11344.940963504374	1
0	56052	11345.287255573466	2
0	56054	11345.341773738466	3
0	56055	11345.989312239181	2
0	56058	11347.021484955217	1
0	56062	11347.072546414918	2
0	56063	11348.021871713273	1
0	56067	11348.591818965259	2
0	56068	11349.118112258151	1
0	56071	11350.024734484315	0
0	56081	11352.00311803314	1
0	56082	11352.855733500052	0
0	56086	11352.947129439094	1
0	56089	11353.660431999717	0
0	56093	11354.401930492036	1
0	56094	11354.554595622331	0
0	56102	11355.042190917847	1
0	56104	11355.583579200972	2
0	56105	11355.690073437061	1
0	56109	11356.162836125793	2
0	56111	11356.436289408378	3
0	56112	11356.747303274929	2
0	56115	11357.913330792918	1
0	56119	11358.286960714955	2
0	56120	11359.077536214984	1
0	56123	11360.188468075267	0
0	56133	11362.986387164086	1
0	56134	11363.28074270841	0
0	56141	11364.697979452009	1
0	56146	11365.316046126841	0
0	56150	11365.904902148743	1
0	56151	11366.204982031418	0
0	56155	11366.470711225776	1
0	56156	11367.108219988087	0
0	56168	11369.321699330318	1
0	56169	11370.051565351711	0
0	56175	11370.62513799289	1
0	56176	11370.877612365597	0
0	56183	11372.823908668741	1
0	56184	11372.87652485436	0
0	56196	11375.439113227908	1
0	56197	11375.797475541851	0
0	56208	11376.884204169402	1
0	56209	11377.759195953703	0
0	56218	11378.742800799031	1
0	56219	11379.562502267493	0
0	56228	11380.660279038043	1
0	56229	11381.469859523887	0
0	56254	11387.043123549547	1
0	56255	11387.428158397695	0
0	56266	11388.954678432957	1
0	56268	11389.146873319788	2
0	56271	11389.609011891486	1
0	56274	11390.48561737193	0
0	56280	11390.690653893607	1
0	56281	11391.354917331973	0
0	56285	11391.995841563978	1
0	56286	11392.331541918406	0
0	56296	11394.974699566907	1
0	56297	11395.130068207069	0
0	56306	11396.457212600129	1
0	56309	11397.274126603736	0
0	56321	11399.636804442385	1
0	56322	11400.179552826567	0
0	56331	11401.427027838254	1
0	56333	11401.91588463844	2
0	56334	11402.384641753977	1
0	56338	11402.645039257507	2
0	56339	11403.407017426753	1
0	56342	11404.292655481493	0
0	56349	11406.475716560341	1
0	56350	11406.545676839167	0
0	56395	11416.059225141175	1
0	56396	11416.248343821338	0
0	56410	11418.266667264249	1
0	56412	11418.472281239417	2
0	56413	11419.030491689689	1
0	56416	11419.973075658366	0
0	56420	11420.013949632337	1
0	56422	11420.331663081829	2
0	56424	11420.699424043883	3
0	56425	11421.026623639841	2
0	56429	11421.084891009452	3
0	56433	11421.769229066999	4
0	56434	11421.918621324938	3
0	56437	11422.926252288003	2
0	56441	11422.98889576752	3
0	56442	11423.820234859925	2
0	56445	11424.637938577965	1
0	56449	11425.032932593585	2
0	56450	11425.797220684685	1
0	56453	11426.748701685857	0
0	56457	11427.196549299137	1
0	56459	11427.295836162577	2
0	56460	11427.686404061228	1
0	56463	11428.697449471805	0
0	56467	11428.744134231839	1
0	56468	11429.505539710451	0
0	56475	11431.152063397089	1
0	56476	11431.347443504449	0
0	56485	11432.533561228324	1
0	56487	11432.974013859878	2
0	56488	11433.284185076323	1
0	56493	11434.235230310359	0
0	56500	11436.266070862173	1
0	56501	11436.438595105153	0
0	56508	11437.710839502165	1
0	56510	11437.919845500669	2
0	56512	11437.961713206184	3
0	56513	11438.400712856375	2
0	56516	11439.373865172644	1
0	56519	11440.370148760085	0
0	56523	11440.471109688464	1
0	56526	11441.515749274013	0
0	56530	11441.550509924934	1
0	56531	11442.35627832674	0
0	56538	11443.335345096754	1
0	56540	11443.78490948317	2
0	56541	11444.209049080318	1
0	56546	11445.106999294559	0
0	56553	11447.058174281814	1
0	56554	11447.110415571375	0
0	56561	11448.182351777197	1
0	56562	11449.138111259421	0
0	56571	11450.237808971156	1
0	56572	11450.950392051605	0
0	56579	11451.895593419089	1
0	56581	11452.442113053489	2
0	56582	11452.856139253737	1
0	56589	11454.039037498185	0
0	56593	11454.299563128764	1
0	56594	11455.215653646184	0
0	56598	11455.289497998676	1
0	56599	11456.176906815735	0
0	56609	11458.017361763139	1
0	56610	11458.935119741136	0
0	56619	11460.445258788354	1
0	56620	11461.122637068858	0
0	56629	11463.212101423927	1
0	56630	11463.411560026189	0
0	56692	11475.683832971319	1
0	56693	11476.128896320803	0
0	56709	11478.914341020686	1
0	56710	11479.008906703913	0
0	56717	11480.883839130372	1
0	56719	11480.986778049635	2
0	56720	11480.98801464588	1
0	56725	11482.067093607882	0
0	56748	11487.073751471823	1
0	56750	11487.376747372641	2
0	56751	11487.910165715038	1
0	56758	11488.832088767278	0
0	56762	11489.423487050233	1
0	56763	11489.736570868834	0
0	56773	11491.621696202138	1
0	56775	11492.159655045858	2
0	56776	11492.543451717037	1
0	56781	11493.452435183066	0
0	56785	11493.470497677087	1
0	56786	11494.434610675468	0
0	56793	11495.654311190509	1
0	56794	11496.350543215597	0
0	56808	11498.755407475939	1
0	56811	11499.350986474106	0
0	56820	11500.308245493425	1
0	56825	11501.332491542777	0
0	56831	11501.556815591922	1
0	56832	11502.258855062822	0
0	56836	11502.557055921071	1
0	56837	11503.358978725789	0
0	56841	11503.417666022521	1
0	56843	11503.758537947567	2
0	56844	11504.203559172531	1
0	56848	11505.152781345629	2
0	56849	11505.190923491218	1
0	56852	11506.302347635017	0
0	56859	11507.611824339367	1
0	56861	11507.67001495992	2
0	56862	11508.249437374719	1
0	56865	11509.334287227043	0
0	56872	11510.23883204589	1
0	56874	11510.497472215599	2
0	56875	11511.204034825233	1
0	56880	11512.32090874203	0
0	56884	11512.335000488316	1
0	56885	11513.126661053677	0
0	56889	11513.57354203471	1
0	56890	11514.10582687492	0
0	56894	11514.705994489967	1
0	56895	11515.181827097391	0
0	56907	11517.558077831242	1
0	56909	11518.288321645456	2
0	56910	11518.314824693749	1
0	56914	11519.333806540981	2
0	56915	11519.433782074699	1
0	56921	11519.65689715321	2
0	56922	11520.334483137918	1
0	56926	11521.222002154324	2
0	56927	11521.485737550916	1
0	56931	11521.849590612084	2
0	56932	11522.656051549135	1
0	56936	11523.211550327225	2
0	56937	11523.544811224943	1
0	56941	11524.189831367426	2
0	56942	11524.60860258211	1
0	56946	11524.683560383291	2
0	56947	11525.569957708014	1
0	56950	11526.460640401399	0
0	56954	11526.931030231177	1
0	56955	11527.376192959404	0
0	56962	11528.346323556772	1
0	56965	11529.194135140168	0
0	56974	11530.450243040437	1
0	56976	11530.671529804766	2
0	56977	11531.02063555448	1
0	56982	11531.967007545574	0
0	56986	11532.17799219655	1
0	56987	11533.023062387767	0
0	56997	11535.257451526663	1
0	56999	11536.08358113065	2
0	57000	11536.170778844232	1
0	57005	11537.017726140196	0
0	57019	11538.94966553186	1
0	57020	11539.880971779587	0
0	57061	11549.106529097415	1
0	57062	11550.128006522735	0
0	57071	11551.699946286253	1
0	57072	11551.945289436267	0
0	57083	11553.616821151568	1
0	57084	11553.938202813738	0
0	57088	11554.546725507757	1
0	57089	11555.060782729373	0
0	57093	11555.077863004273	1
0	57097	11555.982360345442	2
0	57098	11556.218799589299	1
0	57101	11557.154244846482	0
0	57108	11558.337992232899	1
0	57109	11558.998655116469	0
0	57121	11562.177727182926	1
0	57123	11562.192832809163	2
0	57124	11562.193312518303	1
0	57127	11563.072909946185	0
0	57134	11564.152496867896	1
0	57136	11564.156864854335	2
0	57137	11564.888142923084	1
0	57142	11565.828709982154	0
0	57158	11568.860475002506	1
0	57159	11568.902011478883	0
0	57171	11571.498955258843	1
0	57174	11572.331797216558	0
0	57185	11574.289563792874	1
0	57186	11574.347923282073	0
0	57195	11575.8292079221	1
0	57196	11576.40342294863	0
0	57203	11577.246286034928	1
0	57206	11578.022411559248	0
0	57212	11578.283890939177	1
0	57213	11578.937020954961	0
0	57220	11580.037597792452	1
0	57221	11580.856743346533	0
0	57228	11582.033193671743	1
0	57229	11583.062037708709	0
0	57238	11584.906420206392	1
0	57239	11585.03655384407	0
0	57243	11585.801614619701	1
0	57244	11586.002520676149	0
0	57258	11588.965985990696	1
0	57259	11589.233631380746	0
0	57271	11592.105900591991	1
0	57272	11592.14303491172	0
0	57279	11593.418155843702	1
0	57282	11594.361271552933	0
0	57294	11596.550763052241	1
0	57296	11596.572715372003	2
0	57297	11597.531903266539	1
0	57302	11598.635018881601	0
0	57306	11598.746968648659	1
0	57307	11599.574102023062	0
0	57314	11601.440862743731	1
0	57315	11601.699163444997	0
0	57324	11603.210929776248	1
0	57325	11603.530927561042	0
0	57329	11603.620772725451	1
0	57330	11604.694322127388	0
0	57334	11604.76225587662	1
0	57336	11604.962678023572	2
0	57338	11605.054212238049	3
0	57339	11605.633289795467	2
0	57342	11606.444874282466	1
0	57345	11607.268566746736	0
0	57349	11607.867878443837	1
0	57352	11608.377639555937	0
0	57356	11608.78002808963	1
0	57358	11609.151407679047	2
0	57359	11609.524396529707	1
0	57363	11609.792496442742	2
0	57364	11610.376364075213	1
0	57367	11611.258873130854	0
0	57371	11611.720206332929	1
0	57373	11611.784150070721	2
0	57374	11612.275850678801	1
0	57377	11613.291785191565	0
0	57381	11613.51354716627	1
0	57382	11614.364175252716	0
0	57386	11614.670087029672	1
0	57388	11614.724945722863	2
0	57390	11615.298447004568	3
0	57391	11615.379989218905	2
0	57395	11615.582936320663	3
0	57396	11616.212210834219	2
0	57399	11617.049788583635	1
0	57402	11618.061530773348	0
0	57406	11618.520424843927	1
0	57407	11619.120318165707	0
0	57414	11620.030044684457	1
0	57416	11620.406924573867	2
0	57418	11620.539093562273	3
0	57419	11621.169558623067	2
0	57422	11622.278138844303	1
0	57426	11622.425480233518	2
0	57428	11622.643311673608	3
0	57431	11623.387189652032	2
0	57435	11623.984969927454	3
0	57436	11624.368021589058	2
0	57439	11625.203937741561	1
0	57442	11626.015615867643	0
0	57446	11626.068006673157	1
0	57448	11626.227836159901	2
0	57449	11627.136533984827	1
0	57453	11627.552576427519	2
0	57456	11628.20545810592	1
0	57460	11628.908307373285	2
0	57461	11629.178998806054	1
0	57465	11629.319840965346	2
0	57466	11630.019182069792	1
0	57470	11630.241737540892	2
0	57472	11630.756300466727	3
0	57473	11631.061223289097	2
0	57478	11632.047544984339	1
0	57482	11632.098290854101	2
0	57483	11632.983405815909	1
0	57487	11633.762217578628	2
0	57488	11634.157778041816	1
0	57491	11635.278604893951	0
0	57498	11636.999231663723	1
0	57499	11637.210120641353	0
0	57514	11641.309709126179	1
0	57515	11641.638228683367	0
0	57522	11642.544959376908	1
0	57523	11643.426508554823	0
0	57533	11645.362935665855	1
0	57535	11645.900664360899	2
0	57536	11646.461316807947	1
0	57539	11647.545944765962	0
0	57554	11650.826790939039	1
0	57555	11651.53163235477	0
0	57562	11652.50068824919	1
0	57563	11653.281618224185	0
0	57572	11654.483864365238	1
0	57573	11654.948137374789	0
0	57582	11656.387582530861	1
0	57583	11657.277358298384	0
0	57590	11658.690077508365	1
0	57591	11659.266479471241	0
0	57603	11661.486183113169	1
0	57606	11662.38994546431	0
0	57620	11664.764596182713	1
0	57625	11665.610617762906	0
0	57644	11669.255431206671	1
0	57645	11669.456458622133	0
0	57654	11671.372654650853	1
0	57655	11671.484943587993	0
0	57662	11673.208480096411	1
0	57663	11673.493509569586	0
0	57677	11676.228301722607	1
0	57678	11676.712742375776	0
0	57697	11679.65165692089	1
0	57698	11680.511654497039	0
0	57710	11682.85712161166	1
0	57711	11683.216575215672	0
0	57722	11684.887037713686	1
0	57723	11685.296093873409	0
0	57727	11685.895886223942	1
0	57728	11686.48115669229	0
0	57734	11687.220799693549	1
0	57735	11687.374229801455	0
0	57739	11687.400032238029	1
0	57742	11688.297554097985	0
0	57746	11688.41872075724	1
0	57748	11688.609300797946	2
0	57749	11689.275736093157	1
0	57752	11690.194312378214	0
0	57764	11692.466996401132	1
0	57765	11692.871028774054	0
0	57777	11695.112353590858	1
0	57781	11695.440031772627	2
0	57782	11695.966808647298	1
0	57785	11696.806019727056	0
0	57789	11697.057318920156	1
0	57791	11697.448624542925	2
0	57794	11697.708675028578	1
0	57797	11698.551858111013	0
0	57801	11698.646367693596	1
0	57805	11699.40445991354	2
0	57806	11699.428464748439	1
0	57810	11699.501776132171	2
0	57812	11700.018811261816	3
0	57813	11700.544693989687	2
0	57816	11701.491958905857	1
0	57820	11701.849057547681	2
0	57822	11702.278696624025	3
0	57823	11702.444426713798	2
0	57826	11703.313032425575	1
0	57830	11704.120780340547	2
0	57831	11704.146247132596	1
0	57835	11704.500652867319	2
0	57839	11704.69837755835	3
0	57841	11705.120180347312	4
0	57842	11705.120933490068	3
0	57846	11705.554876093317	4
0	57847	11706.03938923125	3
0	57851	11706.273933596597	4
0	57853	11706.778482550642	5
0	57854	11706.884560598441	4
0	57857	11707.871664913472	3
0	57861	11707.961600293353	4
0	57863	11708.572794804206	5
0	57864	11709.044418273688	4
0	57868	11709.657414133865	5
0	57869	11710.035416452688	4
0	57873	11710.093008707172	5
0	57877	11710.605820165403	6
0	57878	11711.148174855773	5
0	57882	11712.057207006657	6
0	57883	11712.146285014328	5
0	57886	11712.997710014608	4
0	57890	11713.456713999921	5
0	57891	11713.932714771115	4
0	57894	11714.763283812542	3
0	57897	11715.737365233068	2
0	57901	11716.353980639618	3
0	57902	11716.555030600269	2
0	57906	11716.73859818655	3
0	57907	11717.4067176818	2
0	57911	11717.565479665042	3
0	57913	11717.743346760026	4
0	57914	11718.345832816147	3
0	57917	11719.290072034308	2
0	57920	11720.449105416526	1
0	57923	11721.294576687188	0
0	57927	11721.608559488865	1
0	57928	11722.170535520473	0
0	57945	11725.563512043873	1
0	57947	11725.880209869703	2
0	57948	11726.191661394489	1
0	57954	11727.027792787611	2
0	57955	11727.371823454564	1
0	57959	11728.037064754481	2
0	57960	11728.298307332685	1
0	57964	11728.376560512718	2
0	57965	11729.333367326306	1
0	57969	11729.529865452065	2
0	57970	11730.321681338744	1
0	57975	11731.122069657603	0
0	57982	11732.584191363691	1
0	57983	11733.192458342025	0
0	57987	11733.209177763597	1
0	57988	11734.076241456447	0
0	57995	11735.349916404445	1
0	57996	11735.871017874321	0
0	58006	11738.55095158401	1
0	58009	11738.993737727693	0
0	58018	11740.078888355947	1
0	58019	11740.675983629572	0
0	58026	11742.637797410358	1
0	58027	11742.65133803404	0
0	58031	11742.815903401215	1
0	58034	11743.499803078836	0
0	58038	11743.546816194622	1
0	58039	11744.480267538233	0
0	58043	11744.559533550388	1
0	58044	11745.40216446585	0
0	58048	11745.594884443086	1
0	58049	11746.37281867248	0
0	58056	11747.81297198042	1
0	58057	11748.671814961368	0
0	58066	11749.891120322536	1
0	58067	11750.399566225065	0
0	58071	11750.592329324511	1
0	58074	11751.358938430259	0
0	58078	11752.25141916568	1
0	58079	11752.365998051418	0
0	58091	11755.228862664839	1
0	58093	11755.248404034232	2
0	58094	11755.392783080423	1
0	58097	11756.315887768017	0
0	58101	11757.144576672249	1
0	58102	11757.276879511038	0
0	58106	11757.402371928586	1
0	58107	11758.181227028007	0
0	58111	11759.165795366213	1
0	58112	11759.297882813691	0
0	58116	11759.441925471154	1
0	58118	11760.101612821217	2
0	58119	11760.413226489733	1
0	58122	11761.289275182328	0
0	58126	11761.500108113643	1
0	58127	11762.144513820029	0
0	58131	11762.196307543941	1
0	58132	11763.122592310338	0
0	58136	11763.749325874716	1
0	58137	11764.025717483378	0
0	58144	11765.958789720231	1
0	58145	11766.104196076292	0
0	58149	11766.135414008232	1
0	58151	11766.416570672002	2
0	58152	11766.922346803557	1
0	58156	11767.428346069922	2
0	58157	11768.115009199746	1
0	58163	11768.445955797639	2
0	58164	11769.149530856416	1
0	58168	11769.478174912301	2
0	58169	11770.288312909019	1
0	58172	11771.137117878173	0
0	58176	11771.179537984151	1
0	58179	11772.217656950571	0
0	58183	11772.364916449939	1
0	58184	11773.036959433381	0
0	58188	11773.462691179987	1
0	58189	11773.892100560118	0
0	58193	11774.465186605876	1
0	58194	11774.740824966424	0
0	58198	11775.799449760763	1
0	58199	11775.909813982912	0
0	58209	11777.85415431619	1
0	58211	11778.534889333848	2
0	58212	11778.813397170149	1
0	58216	11779.119553127927	2
0	58220	11779.148245718202	3
0	58224	11779.738621759385	4
0	58225	11779.849653629411	3
0	58230	11780.921303909842	2
0	58233	11782.121158413973	1
0	58237	11782.127249161443	2
0	58238	11783.01235704954	1
0	58241	11784.088876590144	0
0	58253	11785.98668877351	1
0	58254	11786.778690928698	0
0	58261	11788.005289904017	1
0	58263	11788.056535956271	2
0	58264	11788.879998898238	1
0	58269	11789.762648128543	0
0	58276	11790.680039445329	1
0	58277	11791.67430824117	0
0	58281	11792.471839664941	1
0	58282	11792.86639586027	0
0	58291	11794.52845713148	1
0	58292	11794.678388390609	0
0	58296	11794.686714016467	1
0	58299	11795.655389659305	0
0	58313	11798.32690054613	1
0	58315	11798.437971809237	2
0	58316	11798.586349590786	1
0	58321	11799.388450125151	0
0	58325	11799.582806201855	1
0	58326	11800.571740243968	0
0	58333	11801.512555919041	1
0	58334	11802.673337747541	0
0	58340	11803.072403658561	1
0	58341	11803.595762436756	0
0	58345	11803.964967862735	1
0	58346	11804.684712484398	0
0	58350	11805.461051516787	1
0	58353	11805.592118075782	0
0	58357	11806.095875432696	1
0	58358	11806.605019972113	0
0	58365	11807.8631762645	1
0	58366	11808.546843354789	0
0	58373	11809.826712510278	1
0	58374	11810.434196474043	0
0	58501	11839.329896883313	1
0	58502	11839.84371674109	0
0	58511	11840.878853952394	1
0	58514	11841.849820463934	0
0	58581	11857.468813897709	1
0	58584	11858.289054050221	0
0	58588	11858.661842954308	1
0	58592	11859.099759487238	2
0	58593	11859.24515901815	1
0	58597	11859.270622826764	2
0	58598	11860.055346679332	1
0	58604	11860.528943899057	2
0	58607	11861.08822963165	1
0	58611	11861.748318756815	2
0	58612	11862.222784875164	1
0	58616	11862.232362354905	2
0	58618	11862.279561102142	3
0	58623	11863.411656574084	2
0	58626	11864.484936697891	1
0	58632	11865.158795220829	2
0	58634	11865.284080217707	3
0	58635	11865.590142952016	2
0	58640	11866.712622998672	1
0	58644	11866.717055852515	2
0	58649	11867.768885279091	1
0	58653	11868.236480618719	2
0	58656	11868.766523845697	1
0	58660	11869.599615744468	2
0	58661	11869.62063237272	1
0	58665	11869.858460553874	2
0	58668	11870.800811736954	1
0	58672	11870.881663262849	2
0	58675	11871.938849900586	1
0	58682	11873.133523479213	0
0	58686	11873.20748618506	1
0	58688	11873.703486736749	2
0	58689	11874.165005028729	1
0	58692	11875.1940047905	0
0	58696	11875.358201128739	1
0	58697	11876.053368399866	0
0	58704	11877.34888631128	1
0	58705	11878.01144597448	0
0	58714	11878.945401656357	1
0	58716	11879.788534567794	2
0	58717	11880.068023735393	1
0	58720	11880.868041604307	0
0	58734	11882.868478505744	1
0	58735	11883.417456688934	0
0	58842	11907.215563425133	1
0	58843	11907.433822733833	0
0	58847	11907.782539047025	1
0	58848	11908.618752256332	0
0	58860	11911.006497700778	1
0	58863	11911.912419024034	0
0	58867	11912.498407112113	1
0	58868	11913.02378211731	0
0	58872	11913.626161494117	1
0	58873	11913.891278665531	0
0	58887	11916.0462361162	1
0	58888	11916.668714597839	0
0	58892	11917.143876625127	1
0	58893	11917.586210235319	0
0	58897	11917.603311252548	1
0	58898	11918.566862665786	0
0	58902	11919.238350535647	1
0	58903	11919.481454984116	0
0	58907	11920.324072741492	1
0	58908	11920.494885270501	0
0	58914	11921.031282514239	1
0	58915	11921.464658202248	0
0	58921	11922.131633557181	1
0	58922	11922.487128004821	0
0	58939	11925.313782232294	1
0	58942	11926.190094698889	0
0	58949	11927.767646554555	1
0	58950	11927.999206445755	0
0	58962	11930.144538842459	1
0	58965	11931.121738373319	0
0	58976	11932.482788882164	1
0	58979	11933.111750393378	0
0	58991	11936.103735868148	1
0	58992	11936.168729248846	0
0	59003	11937.763153815489	1
0	59004	11938.28967661673	0
0	59060	11948.657690246496	1
0	59061	11948.91755728267	0
0	59068	11950.504439736424	1
0	59069	11950.836971060856	0
0	59096	11955.671867801981	1
0	59101	11956.560372779909	0
0	59107	11957.52922405973	1
0	59108	11957.699854238536	0
0	59115	11959.103168333041	1
0	59116	11959.686066520605	0
0	59120	11959.880899831252	1
0	59121	11960.882902418934	0
0	59137	11965.322492784661	1
0	59138	11966.076146848146	0
0	59150	11968.668114178707	1
0	59151	11969.022471604421	0
0	59155	11969.688742578052	1
0	59156	11970.119014146569	0
0	59165	11971.10624930934	1
0	59166	11972.148052564561	0
0	59180	11974.67048500648	1
0	59181	11974.845057790558	0
0	59187	11975.018268512928	1
0	59188	11975.683958040941	0
0	59195	11976.850440443792	1
0	59197	11977.079484219316	2
0	59202	11977.660427816416	1
0	59205	11978.598154777865	0
0	59214	11979.642230450234	1
0	59217	11980.479305694176	0
0	59223	11981.375804837757	1
0	59224	11981.540504113136	0
0	59231	11982.53158616967	1
0	59232	11983.575092046166	0
0	59236	11984.175236231223	1
0	59239	11984.690688062662	0
0	59246	11986.534509863798	1
0	59248	11986.57853582518	2
0	59249	11986.633099398965	1
0	59254	11987.811449489946	0
0	59274	11992.177594455742	1
0	59277	11993.243097075837	0
0	59283	11993.388342251066	1
0	59284	11994.076738112251	0
0	59294	11996.44956041893	1
0	59297	11997.014498409087	0
0	59301	11997.500246417198	1
0	59304	11997.877751212957	0
0	59308	11997.893601003962	1
0	59311	11999.001243287249	0
0	59315	11999.064904771746	1
0	59316	11999.924760018586	0
0	59328	12002.415028926227	1
0	59329	12002.795189301314	0
0	59338	12003.749130247727	1
0	59339	12004.555119309498	0
0	59352	12008.531757360129	1
0	59353	12008.712968613783	0
0	59360	12009.832699782486	1
0	59361	12010.679746540653	0
0	59372	12011.574459232453	1
0	59375	12012.453497716801	0
0	59386	12013.75533411562	1
0	59388	12014.537191426728	2
0	59390	12014.649241793699	3
0	59391	12014.664683470706	2
0	59396	12015.727205214667	1
0	59400	12015.866229754316	2
0	59401	12016.529044527764	1
0	59405	12016.595996265646	2
0	59406	12017.358908716327	1
0	59410	12017.718449089381	2
0	59412	12018.402564075938	3
0	59413	12018.518452869839	2
0	59417	12018.859937551295	3
0	59418	12019.557805997151	2
0	59422	12020.185386323697	3
0	59423	12020.508830980974	2
0	59427	12021.504793973993	3
0	59428	12021.689986794925	2
0	59431	12022.522088049463	1
0	59435	12022.734516060845	2
0	59436	12023.669972922857	1
0	59440	12024.147729825553	2
0	59442	12024.617740552168	3
0	59443	12024.744349308982	2
0	59447	12024.955320759245	3
0	59448	12025.801430490259	2
0	59452	12025.856226976552	3
0	59453	12026.609646078497	2
0	59456	12027.722857983988	1
0	59461	12028.681356930472	0
0	59465	12029.073427670283	1
0	59466	12029.674092214946	0
0	59470	12029.772931803564	1
0	59474	12030.505441657938	2
0	59475	12030.51193117911	1
0	59478	12031.615875084531	0
0	59485	12032.675484348266	1
0	59486	12033.727825164535	0
0	59495	12034.631444574089	1
0	59496	12035.664537477606	0
0	59574	12053.818592437578	1
0	59577	12054.797012295315	0
0	59588	12055.80284991393	1
0	59590	12056.460668922626	2
0	59591	12056.49235494828	1
0	59596	12057.357120914312	0
0	59603	12058.690672973575	1
0	59606	12059.699704997541	0
0	59615	12060.81267960557	1
0	59616	12061.816774850359	0
0	59640	12066.34396978057	1
0	59641	12066.514725700228	0
0	59650	12067.758986449501	1
0	59651	12068.597801835297	0
0	59658	12070.328666322656	1
0	59661	12070.909983368704	0
0	59684	12076.733103134534	1
0	59685	12076.785265105705	0
0	59706	12079.655693554532	1
0	59709	12080.732522449757	0
0	59718	12081.835073868423	1
0	59721	12082.878168913464	0
0	59728	12084.260793018247	1
0	59731	12084.822760230138	0
0	59737	12084.911800686945	1
0	59738	12085.71491249271	0
0	59748	12087.90205010759	1
0	59752	12088.097224260563	2
0	59753	12088.916022009238	1
0	59758	12090.017558401007	0
0	59762	12090.387270946776	1
0	59763	12090.980954691138	0
0	59767	12091.068184077929	1
0	59768	12092.144587413709	0
0	59777	12093.626526513442	1
0	59779	12093.69370078058	2
0	59780	12093.91628243795	1
0	59783	12095.053887966018	0
0	59790	12096.671752334003	1
0	59792	12096.818670106062	2
0	59793	12096.957778746284	1
0	59796	12097.785640601463	0
0	59803	12098.936830937748	1
0	59804	12099.766676714386	0
0	59808	12099.911461180508	1
0	59810	12100.227661463717	2
0	59811	12100.804989467303	1
0	59815	12101.710297222054	2
0	59816	12101.74131684175	1
0	59820	12101.940963733689	2
0	59821	12102.892766051574	1
0	59824	12103.945547727796	0
0	59830	12104.156312301821	1
0	59831	12105.046960523746	0
0	59835	12105.25723894818	1
0	59836	12105.906633415653	0
0	59840	12106.756982989074	1
0	59841	12106.803311109005	0
0	59851	12108.607809773073	1
0	59855	12109.237902622574	2
0	59857	12109.247915527462	3
0	59858	12109.55860427974	2
0	59863	12110.644914204462	1
0	59867	12111.181993184514	2
0	59868	12111.626636316835	1
0	59872	12112.474273358236	2
0	59873	12112.786351702104	1
0	59876	12113.924307366482	0
0	59880	12114.339159744979	1
0	59881	12114.849665641713	0
0	59885	12115.977576980437	1
0	59886	12116.021101338997	0
0	59893	12117.32146195142	1
0	59894	12118.098094460018	0
0	59903	12119.667485626828	1
0	59904	12120.40268721499	0
0	59924	12124.537967917321	1
0	59925	12125.172374588926	0
0	59937	12127.347904509486	1
0	59938	12128.311022050515	0
0	59946	12128.90443354369	1
0	59947	12129.475980828725	0
0	59954	12130.999195925416	1
0	59958	12131.253526273755	2
0	59959	12131.497887370199	1
0	59963	12131.509514473904	2
0	59965	12131.736412366169	3
0	59966	12132.503538430784	2
0	59969	12133.686169457086	1
0	59974	12134.825150006101	0
0	59997	12139.84494479586	1
0	60002	12140.583074909937	0
0	60011	12141.874864108286	1
0	60012	12142.281519055855	0
0	60127	12165.997501127213	1
0	60128	12166.217992290227	0
0	60135	12167.410324570773	1
0	60136	12168.241835911317	0
0	60142	12168.914178611502	1
0	60143	12169.075738174772	0
0	60147	12169.120448366583	1
0	60152	12170.235523951637	0
0	60161	12171.383450609477	1
0	60163	12171.699441141643	2
0	60164	12172.18977867209	1
0	60168	12173.144707784469	2
0	60169	12173.208246132197	1
0	60172	12174.343312869152	0
0	60181	12175.353544596581	1
0	60184	12176.173349089665	0
0	60188	12176.336118454351	1
0	60190	12176.492123531227	2
0	60195	12177.209483679501	1
0	60199	12177.218835618968	2
0	60200	12178.294555822225	1
0	60203	12179.26952057744	0
0	60207	12180.009399362971	1
0	60208	12180.24501891092	0
0	60212	12180.654627533386	1
0	60213	12181.263867377607	0
0	60217	12182.204865485419	1
0	60218	12182.356524173474	0
0	60225	12183.491127884279	1
0	60226	12184.329229173275	0
0	60233	12185.971506842234	1
0	60236	12186.234534125148	0
0	60250	12188.412766482649	1
0	60251	12189.257621698944	0
0	60260	12191.394471233188	1
0	60261	12191.417930082536	0
0	60268	12192.500379327393	1
0	60271	12193.576150675422	0
0	60287	12195.919822121922	1
0	60288	12196.849429793029	0
0	60300	12199.141500704605	1
0	60301	12199.964791106645	0
0	60344	12208.584313476707	1
0	60349	12209.17719903861	0
0	60356	12210.417682250949	1
0	60359	12211.418493739355	0
0	60378	12214.631006290026	1
0	60379	12215.530341084513	0
0	60388	12216.703424168891	1
0	60391	12217.225199359867	0
0	60398	12218.213683290217	1
0	60399	12219.031789583645	0
0	60405	12219.66098268558	1
0	60406	12219.838349538042	0
0	60410	12220.050668779679	1
0	60413	12220.890199412896	0
0	60422	12222.06776602308	1
0	60424	12222.119164207095	2
0	60425	12223.198046915537	1
0	60430	12224.264604430391	0
0	60437	12225.965586952059	1
0	60438	12226.196296584165	0
0	60463	12231.937498143141	1
0	60465	12232.433135704815	2
0	60466	12232.707171462501	1
0	60469	12233.659996266315	0
0	60475	12234.058941519664	1
0	60478	12234.606548932778	0
0	60482	12234.726128200529	1
0	60484	12235.061756825696	2
0	60487	12235.576210828616	1
0	60491	12235.6886377147	2
0	60494	12236.458543978098	1
0	60498	12237.022488404674	2
0	60499	12237.330039295766	1
0	60502	12238.411023974258	0
0	60509	12240.534535322156	1
0	60510	12240.620072781227	0
0	60514	12241.142131974724	1
0	60517	12241.696011114146	0
0	60524	12243.193546726805	1
0	60526	12243.612346755197	2
0	60527	12243.964750396299	1
0	60531	12244.174380209222	2
0	60532	12244.994171127795	1
0	60535	12245.941734841957	0
0	60539	12245.961177210257	1
0	60540	12246.956949574153	0
0	60547	12248.1687350484	1
0	60550	12248.940273092712	0
0	60559	12250.144058271758	1
0	60562	12251.065383666592	0
0	60594	12257.04474695706	1
0	60596	12257.9193299779	2
0	60597	12257.986842810852	1
0	60604	12258.819223870268	0
0	60611	12259.899332803787	1
0	60614	12261.047415908729	0
0	60626	12263.309860372802	1
0	60627	12264.229736311757	0
0	60641	12266.768399898508	1
0	60642	12267.195870806858	0
0	60649	12268.374580129811	1
0	60650	12269.461206485354	0
0	60659	12271.133687700438	1
0	60660	12271.580274166283	0
0	60667	12273.104773090335	1
0	60668	12273.414618764561	0
0	60676	12274.284350164788	1
0	60677	12274.344083557114	0
0	60684	12275.834953130743	1
0	60685	12276.317277903132	0
0	60704	12280.071686486441	1
0	60705	12280.472530974283	0
0	60712	12281.688263018535	1
0	60713	12282.731796988587	0
0	60743	12288.472932063359	1
0	60748	12289.253831551432	0
0	60754	12289.320393823974	1
0	60759	12290.322021472383	0
0	60763	12290.553678904716	1
0	60764	12291.416045609977	0
0	60768	12291.710573177371	1
0	60769	12292.475840532802	0
0	60773	12292.695028043292	1
0	60774	12293.625834297504	0
0	60778	12294.276530438604	1
0	60779	12294.698581434343	0
0	60786	12296.445451864377	1
0	60787	12296.482241720915	0
0	60794	12297.815033583602	1
0	60795	12298.643461715267	0
0	60804	12299.885304087498	1
0	60805	12300.730406889436	0
0	60811	12301.269929752911	1
0	60812	12301.866809487553	0
0	60816	12302.097533786817	1
0	60817	12303.001580253454	0
0	60837	12307.294404774557	1
0	60838	12307.996954449756	0
0	60907	12322.43448186084	1
0	60908	12322.679548034003	0
0	60917	12324.21056731687	1
0	60918	12324.619261628414	0
0	60931	12326.151339219166	1
0	60932	12326.385675202427	0
0	61001	12340.654507915285	1
0	61004	12341.329345118837	0
0	61019	12344.50875456117	1
0	61021	12344.802339053753	2
0	61022	12345.379723992503	1
0	61028	12346.116996902728	2
0	61029	12346.401629187844	1
0	61033	12346.763505975537	2
0	61036	12347.380710892591	1
0	61041	12348.209614611163	0
0	61048	12349.178604691286	1
0	61050	12349.526103586879	2
0	61051	12350.131686470217	1
0	61054	12351.177446979402	0
0	61058	12351.268854704333	1
0	61059	12352.020345250635	0
0	61063	12352.320889236815	1
0	61066	12353.042239879469	0
0	61070	12353.104348960804	1
0	61071	12354.130152160699	0
0	61081	12356.318975518488	1
0	61083	12356.411515072701	2
0	61086	12356.744017093653	1
0	61089	12357.7027102303	0
0	61096	12359.273474151255	1
0	61098	12359.341159426383	2
0	61100	12359.345590238801	3
0	61102	12359.685984964319	4
0	61103	12359.950174955582	3
0	61108	12361.028658565065	2
0	61114	12361.292849554206	3
0	61116	12361.317021445955	4
0	61117	12362.165624850361	3
0	61121	12362.585281192264	4
0	61122	12363.125488886169	3
0	61126	12363.862054249922	4
0	61127	12364.107831192228	3
0	61130	12365.132346194263	2
0	61134	12365.45803782894	3
0	61135	12366.175829923085	2
0	61139	12366.690524814976	3
0	61140	12367.320097950499	2
0	61144	12367.53396301133	3
0	61145	12368.407261155478	2
0	61148	12369.520535624518	1
0	61151	12370.430999664056	0
0	61158	12372.174943464569	1
0	61159	12372.193897238492	0
0	61173	12374.273528274662	1
0	61175	12374.81219830393	2
0	61176	12374.912801533124	1
0	61180	12375.18041118333	2
0	61183	12376.107900343022	1
0	61188	12377.085205736502	0
0	61195	12378.302194714239	1
0	61196	12379.125510433714	0
0	61202	12379.436455105522	1
0	61203	12379.982808159876	0
0	61207	12380.479410582255	1
0	61208	12381.155419904298	0
0	61217	12382.569535025193	1
0	61219	12382.725080933602	2
0	61220	12383.12225126906	1
0	61225	12384.281272929466	0
0	61232	12385.688354769994	1
0	61233	12386.467657952129	0
0	61237	12386.700100122547	1
0	61240	12387.302470384843	0
0	61244	12387.68364131033	1
0	61245	12388.166178888387	0
0	61252	12390.057626530431	1
0	61253	12390.287153084322	0
0	61260	12392.205338980861	1
0	61263	12392.653427964474	0
0	61272	12393.561143301992	1
0	61275	12394.632351351647	0
0	61282	12396.16203299637	1
0	61283	12396.583510377096	0
0	61297	12399.115893575139	1
0	61298	12399.789705813421	0
0	61302	12399.910381679372	1
0	61303	12400.961672503246	0
0	61307	12401.313623339421	1
0	61308	12402.022010552162	0
0	61312	12403.068183434224	1
0	61313	12403.074051546795	0
0	61323	12405.429899153803	1
0	61325	12405.760348290241	2
0	61326	12406.042790057162	1
0	61333	12406.991221036786	0
0	61337	12407.637350220841	1
0	61339	12407.842316299574	2
0	61340	12407.877150425991	1
0	61344	12408.402715481428	2
0	61345	12409.026847534371	1
0	61348	12409.885499143531	0
0	61355	12411.914941538649	1
0	61356	12411.9424840105	0
0	61360	12412.485670991407	1
0	61362	12412.974101498648	2
0	61363	12413.094402861991	1
0	61367	12413.549804856159	2
0	61368	12413.90460960709	1
0	61371	12414.952966797841	0
0	61377	12415.682621102935	1
0	61378	12415.781977513642	0
0	61382	12416.486954547034	1
0	61383	12416.898205640376	0
0	61387	12417.089287098327	1
0	61389	12417.14477390951	2
0	61391	12417.506586214215	3
0	61392	12418.067134961881	2
0	61395	12419.251163558685	1
0	61399	12420.092797535732	2
0	61400	12420.431650081579	1
0	61404	12421.218693336428	2
0	61405	12421.241457905922	1
0	61409	12421.539986072339	2
0	61410	12422.179559766803	1
0	61413	12423.348911262326	0
0	61417	12423.349714127317	1
0	61418	12424.361352555383	0
0	61422	12424.958617154641	1
0	61423	12425.174285613582	0
0	61433	12427.311203540887	1
0	61436	12428.207456101593	0
0	61443	12429.492764708482	1
0	61444	12430.451971601811	0
0	61456	12432.733291902711	1
0	61457	12433.694325895444	0
0	61463	12434.628867770559	1
0	61464	12434.675326028303	0
0	61468	12434.858998313951	1
0	61469	12435.584626435139	0
0	61479	12437.622301917703	1
0	61484	12438.548640889139	0
0	61491	12440.120426141001	1
0	61492	12440.652555383114	0
0	61499	12442.458442893469	1
0	61500	12442.652017718764	0
0	61514	12445.253741183791	1
0	61515	12445.867342252216	0
0	61522	12447.554974262767	1
0	61523	12447.838221506334	0
0	61532	12449.373086855588	1
0	61534	12449.511813200505	2
0	61535	12449.889507068626	1
0	61538	12450.938207481361	0
0	61544	12451.328681296923	1
0	61545	12451.943697438507	0
0	61565	12456.43503107568	1
0	61567	12456.742304825475	2
0	61572	12457.413719287447	1
0	61575	12458.583634102463	0
0	61579	12458.844750523661	1
0	61580	12459.398805825438	0
0	61584	12460.441003603086	1
0	61585	12460.444641596011	0
0	61589	12460.561906528956	1
0	61590	12461.48305367951	0
0	61597	12462.786885460942	1
0	61598	12463.115328525777	0
0	61615	12466.053159705864	1
0	61618	12466.542341650209	0
0	61622	12467.068084862301	1
0	61623	12467.501882373287	0
0	61632	12468.833003121751	1
0	61635	12469.397812929961	0
0	61659	12476.205856123934	1
0	61660	12476.510782292511	0
0	61667	12477.82595440314	1
0	61672	12478.501724333248	0
0	61679	12479.880254273213	1
0	61680	12480.418382962446	0
0	61694	12483.018862110698	1
0	61695	12483.287889958663	0
0	61713	12487.219487773746	1
0	61714	12488.150136315755	0
0	61738	12493.55162960829	1
0	61739	12493.563020541079	0
0	61748	12495.067865290192	1
0	61749	12495.87689797201	0
0	61759	12498.241345628529	1
0	61760	12498.994615075856	0
0	61796	12505.599374718316	1
0	61799	12506.379127301673	0
0	61811	12508.708073185234	1
0	61816	12509.603525630875	0
0	61830	12512.226726222973	1
0	61831	12512.281468193257	0
0	61838	12513.88925463821	1
0	61839	12514.455930958805	0
0	61848	12515.620564340719	1
0	61851	12516.451451376291	0
0	61882	12521.930746822385	1
0	61883	12522.299213523443	0
0	61892	12523.532960414169	1
0	61893	12524.290615124374	0
0	61897	12525.131547964687	1
0	61900	12525.427357965361	0
0	61904	12526.29685437326	1
0	61905	12526.567774102769	0
0	61909	12527.533395534439	1
0	61910	12527.598150047126	0
0	61914	12527.740113653172	1
0	61915	12528.451314049705	0
0	61919	12529.146444180527	1
0	61920	12529.370016496561	0
0	61924	12529.635461115303	1
0	61925	12530.320000172432	0
0	61929	12531.021641659373	1
0	61930	12531.48055750069	0
0	61934	12531.598277239672	1
0	61935	12532.633157691944	0
0	61944	12534.396948491131	1
0	61946	12534.428632440228	2
0	61947	12534.825189016599	1
0	61950	12535.629341593969	0
0	61969	12538.654410693256	1
0	61970	12539.65079359899	0
0	61974	12539.753571520732	1
0	61977	12540.7514983563	0
0	61981	12541.449816340115	1
0	61982	12541.870129004052	0
0	61986	12542.976206058629	1
0	61987	12543.036739548134	0
0	61993	12543.754994827595	1
0	61994	12544.106382952283	0
0	61998	12545.162335423601	1
0	61999	12545.231397839381	0
0	62006	12546.542158678468	1
0	62007	12547.279761103845	0
0	62011	12547.411365034551	1
0	62012	12548.301990650154	0
0	62019	12549.653181948132	1
0	62022	12550.377962258669	0
0	62036	12553.658236018884	1
0	62037	12553.684730542196	0
0	62044	12554.914102902039	1
0	62045	12555.435511963839	0
0	62054	12556.960471211373	1
0	62055	12557.395322079795	0
0	62066	12558.252025005611	1
0	62068	12558.532851745802	2
[...]
9	121828	24519.178771375346	0.865286194161
9	121831	24520.35985005027	1.181078674924
9	121834	24521.275822502043	0.915972451773
9	121857	24526.446899247117	1.031361320149
9	121869	24528.65830305409	1.187382351607
9	121875	24530.417679903603	0.903350235801
9	121919	24538.856031607037	28.922852505531
9	122054	24566.376864097211	2.308223171099
9	122059	24567.316476905662	12.806410658256
9	122069	24569.361564843579	0.89642532384
9	122142	24584.016472529841	4.83020254429
9	122192	24593.691384239064	2.547380485437
9	122221	24600.97342914272	5.707391217123
9	122342	24623.695162778477	0.823935240787
9	122472	24649.862264009042	4.891126472856
9	122541	24665.286669322326	32.432932831251
9	122560	24670.255206459704	1.091653579939
9	123244	24802.993680242015	12.914791318818
9	123317	24818.331748009692	6.149452454499
9	123341	24824.461230805828	8.101769911707
9	123361	24828.460625540217	13.994632749215
9	123522	24858.691618530578	20.35946649253
9	123719	24895.402888163118	15.150601840105
9	123811	24913.640039385328	1.197078047041
9	124306	25012.458418152976	24.582494884018
9	124328	25016.248326514132	10.852151271717
9	124414	25033.472228828475	6.665334400789
9	124421	25034.618363931619	21.319172001554
9	124429	25036.684960291658	1.048366714921
9	124437	25038.674757995207	0.871066636406
9	124620	25077.277602073955	4.437875567295
9	124689	25090.252058557545	4.909720365458
9	125045	25159.224066020487	4.580346332212
9	125199	25187.978608083665	1.053508902807
9	125222	25192.793392955171	23.329645232532
9	125256	25200.867439395128	17.805209046669
9	125276	25204.355601349411	2.552491301715
9	125293	25209.345785830574	11.475660071927
9	125296	25210.513129627829	16.668258736299
9	125303	25211.359919670255	0.846790042426
9	125404	25230.298172363669	0.808188609593
9	125440	25238.27593573726	3.479686103473
9	125445	25239.433626641363	3.278797023946
9	125450	25240.543420930237	2.494421466061
9	125470	25244.742880942983	3.209972759209
9	125500	25251.083167512373	2.503294909333
9	125508	25252.977307533969	12.993797389922
9	125513	25254.029367845443	5.672737696245
9	125541	25259.735983994819	3.412734996619
9	125569	25265.855048082705	14.488863132423
9	125586	25268.860571920249	6.974399338917
9	125628	25276.478481686424	16.074735738012
9	125671	25285.512882263989	15.037361103132
9	125682	25288.397061053042	1.053237395268
9	125739	25299.29882012823	4.99382163756
9	125761	25305.282535392729	3.595600734426
9	125778	25308.301726819699	7.047902889664
9	125812	25315.963537535847	13.775432676388
9	125815	25316.802642459825	18.811114818567
9	125818	25317.799193272677	4.40174768682
9	125833	25320.897174655956	6.72160658716
9	125845	25323.007950489439	1.092752378061
9	125850	25324.027576587751	10.883541699506
9	125912	25335.94560747047	21.379984675223
9	125922	25338.06070118866	18.99374769143
9	126008	25353.462673551711	1.134259881172
9	126019	25356.20379578027	17.738652164606
9	126055	25363.973725099982	9.393336712116
9	126098	25371.574848641389	27.157151486979
9	126106	25373.465118297495	1.024268488213
9	126114	25375.369446422186	0.828350181598
9	126127	25377.887075465291	9.402607790292
9	126167	25385.668285846456	3.404075723797
9	126195	25392.117242379976	8.75163539382
9	126310	25415.972276428738	9.953871240439
9	126371	25428.867392496974	21.145625598951
9	126396	25434.028268857602	1.057299275231
9	126414	25438.090780010376	15.090254043859
9	126421	25438.951374631025	3.827906333392
9	126424	25439.826021738839	3.525763764247
9	126434	25441.662109769158	8.651626798139
9	126571	25469.374599500025	30.974135863355
9	126765	25506.278212527861	5.820858923686
9	126847	25522.026104217698	14.257928084746
9	126858	25524.693814829015	30.560608728002
9	127153	25582.127509574897	9.950581848186
9	127192	25589.328437384895	22.953812016036
9	127208	25593.354499580829	5.866584295948
9	127213	25594.278556240654	22.128152072749
9	127249	25602.789258343564	8.48454716943
9	127262	25605.658549870947	5.139407204688
9	127265	25606.806537814369	24.635498879091
9	127288	25611.81508367362	3.348061923345
9	127329	25620.610726152012	26.630765351819
9	127410	25635.563809800545	14.65328852515
9	127617	25675.86001400354	2.123608237825
9	127620	25676.99257146672	1.13255746318
9	127748	25700.772851152275	4.658582782139
9	127753	25701.755009273649	65.726058829709
9	127867	25723.50704491802	2.587918189817
9	127873	25725.182703251787	9.183032920008
9	127901	25731.279257873002	4.352188209079
9	127906	25732.25615722027	0.976899347268
9	127956	25741.661782543849	12.102353260846
9	127972	25745.837937082187	12.566745274992
9	128186	25786.067438102169	3.89601276262
9	128221	25792.830943792247	23.619751709258
9	128227	25794.828379831118	9.877706994977
9	128230	25796.024402050143	15.850854986605
9	128244	25799.947752116369	5.941029557488
9	128251	25800.762621094035	8.372012788279
9	128263	25804.471591260871	11.349498786975
9	128335	25818.050281570506	14.635396747807
9	128350	25823.253466862561	2.457851930851
9	128428	25838.737168123229	5.271194145962
9	128467	25845.534869660652	6.435327657988
9	128603	25870.1384042471	19.106282065306
9	128633	25875.987577421246	7.120502602809
9	128699	25889.063185122173	9.540271483485
9	128847	25919.639024449074	4.342803388483
9	128941	25938.140496891765	3.206820120026
9	129035	25956.21927983596	6.434071232886
9	129378	26023.823559515299	0.967795436457
9	129784	26101.641064251896	1.775724399198
9	130268	26195.266652228246	22.354127975103
9	130297	26202.096218706138	21.000208284185
9	130504	26243.462141549525	8.347161510905
9	130573	26256.543182089863	18.261486756597
9	130576	26257.497309671839	0.954127581976
9	130587	26260.058493483843	0.901018163469
9	130628	26268.888184524919	7.65179203983
9	130638	26271.166253949083	7.927861031773
9	130662	26275.277874484505	7.965222261763
9	130678	26279.734972962677	3.308849788829
9	130698	26283.541356726954	11.323256366775
9	130761	26296.530391022225	1.125768778101
9	130782	26301.52771243857	13.818337838911
9	130819	26308.489043522848	2.471098628552
9	130827	26310.414221119172	14.788492883546
9	130863	26318.196542882397	7.416689369565
9	130953	26336.382690710703	3.318512423135
9	130961	26338.369217732398	0.954150822945
9	130973	26340.329448476655	2.851126533994
9	131048	26354.929244385416	1.067509444617
9	131096	26364.673933695572	21.518775025666
9	131300	26403.606890351548	2.408214327353
9	131335	26410.699918381161	12.861048204776
9	131345	26412.680467684045	16.589806599204
9	131351	26414.666718525942	2.652722988184
9	131388	26421.775123924241	1.10028630374
9	131408	26425.844933689051	2.646750348318
9	131431	26430.739946054053	3.475844003055
9	131438	26431.590577192177	3.601264347485
9	131523	26449.097541523112	1.00194209693
9	131905	26521.874316518699	3.863744485188
9	132095	26561.280780300347	0.971203768346
9	132167	26575.950887832826	7.446499602815
9	132230	26589.372639759851	7.425637370988
9	132285	26600.305030980182	13.434324997086
9	132288	26601.350045633723	1.045014653541
9	132474	26638.803595374838	16.889295396925
9	132588	26660.779941557942	7.657931135126
9	132640	26670.68187821688	1.043824467063
9	132687	26681.579133728183	1.827595417215
9	132820	26706.143718575258	1.171682363003
9	132828	26708.174147685375	12.982719533385
9	132836	26710.171926465389	10.688738177214
9	132854	26714.200826928709	16.475710012566
9	132901	26723.155484624243	1.066260791942
9	133049	26754.177028853852	3.27403299297
9	133110	26767.093606499338	1.054434824456
9	133131	26772.291100790853	1.196271184366
9	133147	26776.585769857409	17.426654276608
9	133208	26787.866807962617	2.614671252588
9	133248	26796.638165813534	9.026138272853
9	133276	26803.153735685478	2.74162504903
9	133601	26865.83542436151	5.876198715227
9	133702	26886.746752266345	19.035297959339
9	133806	26906.915808334148	48.660453486772
9	133809	26907.953349804545	12.240687290443
9	133836	26913.151703854596	7.032084968403
9	133872	26920.944453660624	7.081453631701
9	133927	26932.273851371689	4.206627816248
9	133959	26938.312043252626	0.904238513485
9	134059	26960.056012898257	11.784317293107
9	134096	26967.14692105962	5.789549818625
9	134104	26968.855947633498	19.894073806138
9	134139	26975.501365046798	11.840598692442
9	134153	26979.294548838808	9.134134577045
9	134162	26981.878839742987	31.970838061127
9	134302	27008.052821221148	6.818410544416
9	134327	27013.148893614989	8.1624114938
9	134333	27015.12610114295	10.109051276845
9	134401	27029.387213895416	7.607870328747
9	134424	27034.17024905164	10.523256919392
9	134449	27039.173822755592	10.427437200459
9	134454	27040.208764088566	3.746242817454
9	134542	27061.288097768132	31.719165278845
9	134572	27067.620761973917	7.986795494223
9	134577	27068.612680980883	6.055046401847
9	134605	27074.972502861865	7.538226747313
9	134621	27078.984669124283	8.564168189533
9	134638	27081.923239562329	6.89733405865
9	134643	27083.082118692663	1.158879130334
9	134652	27084.078881159466	2.214900438822
9	134677	27088.881409445074	35.025904543449
9	134692	27091.910282363598	3.859836447391
9	134705	27094.710968481139	21.125963601351
9	134708	27095.664670830727	28.352374411607
9	134711	27096.764436662238	15.848873361959
9	134820	27117.162445178483	21.077303700347
9	134833	27120.566834763292	3.333216107732
9	134857	27126.962708236596	16.321732591876
9	134950	27145.695006946329	2.835186462304
9	134969	27150.615048730508	15.977585266368
9	135014	27158.92548978426	8.892084421079
9	135021	27159.857565084048	34.469973938457
9	135031	27161.988551924884	12.301724780577
9	135104	27175.347875887942	5.683028103924
9	135112	27177.366108663607	18.165879926257
9	135124	27181.569368781935	20.261187835892
9	135172	27191.690178425186	13.408202398351
9	135179	27192.858456455026	1.16827802984
9	135184	27193.944008071855	3.042944359428
9	135251	27207.044614035398	15.27053365608
9	135282	27213.232734575257	0.813529224414
9	135564	27269.623940434161	19.529610546138
9	135585	27274.843670302112	13.206140647453
9	135598	27277.997654322391	3.586540496621
9	135610	27282.024538194152	16.860361654377
9	135708	27302.104753625716	0.994537916686
9	135723	27305.261136796462	20.587000443004
9	135728	27306.248108322403	13.975190037517
9	135750	27310.465576363864	3.337022876821
9	135784	27317.947920029187	5.541120241353
9	135811	27323.195291450849	6.652751342094
9	135836	27328.114437503038	5.244154612185
9	135849	27330.900497893753	6.903702297523
9	135860	27333.577308063252	10.426686853256
9	135865	27334.499921468409	0.922613405157
9	136108	27381.397366287507	27.323625351843
9	136133	27388.255595613686	7.335249928933
9	136160	27393.280062820712	1.083709309623
9	136235	27407.374761492803	21.466887435222
9	136277	27415.292417577418	2.906461776144
9	136321	27422.764746974453	31.11244650686
9	136331	27424.744416812107	25.857059937584
9	136394	27438.010047967683	5.214669685132
9	136469	27454.945205510638	9.133707959732
9	136474	27455.940207710347	2.417479847709
9	136592	27477.638327994522	15.040966049579
9	136618	27483.295848606665	31.613632110864
9	136691	27499.652758113338	3.990452693959
9	136701	27501.638924669518	0.920080445521
9	136748	27510.957314374341	6.487127087925
9	136761	27513.919662074788	28.929125443437
9	136771	27515.788447098012	50.004245187181
9	136788	27520.601869896004	26.583548952797
9	136791	27521.414717962263	44.1902505917
9	136827	27527.201003169591	17.922526613927
9	136842	27530.480712916838	13.663790613316
9	136911	27544.531936186035	32.828596532341
9	136918	27545.60194601011	34.881012782312
9	137137	27586.614487501276	14.204317850958
9	137457	27648.67141914018	1.116289853491
9	137478	27653.795313198068	8.777346776785
9	137481	27654.64395585977	41.274061407951
9	137484	27655.803509356589	1.159553496819
9	137501	27660.800779962022	0.894877820928
9	137588	27678.669313094061	41.444769238224
9	137596	27680.543915490102	38.004502667303
9	137635	27689.350884433504	3.723555554834
9	137642	27690.546640513506	1.195756080002
9	137654	27692.473995270528	1.077428494394
9	137675	27697.507220316626	4.840412520754
9	137682	27698.699618599418	12.416145013376
9	137690	27700.974791328091	19.539983047735
9	137693	27701.919242500461	3.167734971456
9	137716	27706.660012235533	9.87382229493
9	137830	27731.401269563422	1.964850769551
9	137846	27735.808214253974	12.346888027913
9	138112	27785.142438546328	57.534338989999
9	138284	27817.587829641294	1.185136929434
9	138292	27819.619783531916	16.649459510472
9	138304	27823.860960858077	2.102026908097
9	138321	27827.15386600098	45.69462888576
9	138539	27869.713580596487	0.857032101694
9	138661	27893.853683969137	3.888411020126
9	138669	27895.526984175332	20.988770733315
9	138700	27902.339572432208	17.924028016959
9	138726	27908.189026583302	7.107804443462
9	138744	27912.059777243658	13.887186151626
9	138764	27916.390710576847	1.184303285461
9	138856	27933.716589503866	12.628885384315
9	138905	27943.081288839262	26.665991694132
9	138973	27957.38264151601	3.450141924644
9	139189	28000.497952580766	10.476298596072
9	139197	28002.317533527629	4.049864663363
9	139282	28019.492666855676	0.961756164301
9	139331	28028.402678744344	0.891416751221
9	139337	28030.223500570691	4.804007706856
9	139381	28039.602291131987	8.014564924836
9	139390	28040.539573495871	2.173732809968
9	139619	28087.706028695627	7.875272181523
9	139630	28091.134246161803	4.186616800467
9	139642	28093.194895287267	16.064879809076
9	139733	28112.580466483383	14.042632107297
9	139826	28131.631587009538	4.521961904864
9	139935	28153.526251721789	16.744054042418
9	139950	28156.48440174082	0.815446561016
9	139955	28157.344677311496	3.889057259649
9	139976	28162.131602296828	49.76068740679
9	140009	28169.092431104405	4.072088435148
9	140034	28174.156131878904	9.787811868435
9	140074	28181.7245495479	0.897410170641
9	140077	28182.556437531431	3.931698999055
9	140118	28191.876477498411	10.21135841026
9	140133	28194.985241619627	3.660341362963
9	140172	28203.576473470161	8.076053282057
9	140239	28214.99294582581	0.822624154389
9	140256	28219.766594793404	0.900571675878
9	140274	28223.977403121664	22.961542467786
9	140334	28237.542879978137	14.876488725356
9	140368	28243.851669992169	16.395559443446
9	140812	28325.723683635554	0.932696472015
9	141264	28413.010450808919	3.053904037928
9	141624	28483.838737476275	25.985204333599
9	141674	28493.964694545357	0.965276686009
9	141685	28496.561366748748	12.11065107211
9	141693	28498.487503732213	7.550274057318
9	141712	28503.505140924671	2.230971022526
9	141732	28507.584670457274	3.513321983361
9	141745	28510.433003254357	3.069612188074
9	141916	28543.221180505522	5.893621753084
9	141924	28545.202826226253	15.418591869581
9	141959	28552.208670679508	1.001674901135
9	141981	28558.299708692571	21.096281767015
9	142005	28562.209715192234	4.110335428124
9	142018	28565.097503872336	59.244740553872
9	142058	28573.352308090245	2.313397238734
9	142088	28579.410892710211	6.186521656829
9	142136	28589.918339194293	4.067305215145
9	142268	28616.335875870689	10.861242275724
9	142569	28674.910361152078	19.111094469079
9	142708	28704.606991562649	2.906394148694
9	142718	28706.684767097451	6.447758821318
9	142802	28724.613110731666	0.820963498764
9	142805	28725.436477445097	2.315438503794
9	142840	28732.278896331352	0.864040399157
9	142850	28733.974554248464	7.855134640856
9	142899	28743.265823122051	15.345717095798
9	142907	28745.316442954291	9.697039433789
9	142915	28746.965982058395	9.744349692941
9	143042	28772.27137879751	22.750103912318
9	143048	28774.455925293391	11.712676464157
9	143051	28775.381681305201	0.92575601181
9	143064	28778.393809420087	16.49988937286
9	143140	28794.450296974306	2.38108483388
9	143236	28813.08119631841	6.694798435666
9	143249	28816.118573321152	4.776243609213
9	143291	28826.431161662312	17.144758750626
9	143316	28831.549373690067	2.105416627213
9	143341	28836.3588083152	52.05400232259
9	143346	28837.245513120693	15.792780410667
9	143403	28847.91590359344	6.351728865252
9	143490	28864.419578487455	4.432939773006
9	143498	28866.544511027104	14.693915259789
9	143501	28867.464146203949	7.719399433305
9	143512	28870.471536216634	15.122514718931
9	143551	28877.017563210642	9.191570133131
9	143557	28879.246475628698	13.579338193716
9	143582	28884.390215863594	13.326448714848
9	143630	28894.068006255877	3.01202778548
9	143646	28898.411518339467	30.69318083065
9	143653	28899.579499074657	4.012931937871
9	143666	28903.053974215992	1.181823873054
9	143694	28908.9639875253	24.787978480619
9	143706	28910.901297501595	6.23197100456
9	143968	28963.042382254573	0.949217322562
9	143981	28966.034115570812	1.024729722645
9	143984	28967.139976279745	27.519772373212
9	144015	28973.947356534684	13.85127051013
9	144028	28976.640546781878	16.729060791566
9	144031	28977.840063553053	3.677151575231
9	144037	28979.523520897079	0.82160835648
9	144126	28996.391671908752	11.50562009867
9	144131	28997.521514821251	18.528635742524
9	144276	29027.051378597916	11.157411441404
9	144341	29039.635396556314	7.463378840545
9	144420	29055.223145891204	1.021804376971
9	144428	29057.358040486219	64.203800511738
9	144528	29077.345966320055	29.460467078693
9	144588	29089.044031835663	11.264157265278
9	144596	29091.256543382293	21.930306682125
9	144665	29103.528374942334	0.803900360875
9	144719	29112.94129420392	0.930334559176
9	144744	29117.923167992604	12.530088300886
9	144766	29123.964624697656	2.956809743554
9	144774	29125.747239065298	7.896434225109
9	144798	29130.162797546329	8.032011653774
9	144883	29147.553012068605	5.959765723262
9	144901	29151.42884778235	9.786438012151
9	144973	29165.764484088904	0.8991544405
9	145004	29172.68340547377	7.52570536433
9	145054	29182.372917556332	25.273342253403
9	145099	29192.262785785047	1.137023774907
9	145131	29197.839929974877	7.723911651985
9	145177	29209.899526857912	16.382285623159
9	145185	29212.106036963512	29.422191505622
9	145262	29233.899068061177	6.425800944299
9	145848	29349.023934341698	3.693883751863
9	145923	29364.718750299804	2.88010196529
9	145941	29368.586535761889	2.809080819565
9	146011	29382.605521825153	8.966690139315
9	146027	29386.6408715875	8.224890461819
9	146095	29402.705513645321	12.390295013772
9	146109	29405.417809767434	14.117658483617
9	146114	29406.449924809178	8.192650294334
9	146153	29414.055554112205	14.620821734789
9	146679	29514.420779875635	22.146619169795
9	146723	29524.233659701297	12.955464515737
9	146833	29546.39703640711	3.602219757049
9	147047	29589.154706654107	1.079731871933
9	147068	29593.797544366834	2.23144557398
9	147269	29632.642866193476	4.591869048397
9	147292	29637.60349428828	5.284222822328
9	147310	29641.758733864567	5.31497719222
9	147333	29646.537420677366	0.853732759133
9	147403	29662.15639916963	0.951606512722
9	147408	29662.992210006314	0.835810836684
9	147414	29664.772287090189	7.674354784021
9	147449	29674.986878473544	14.007488687063
9	147463	29677.134926455794	27.415566716769
9	147468	29678.104586030124	8.769130400711
9	147478	29680.36334222951	1.173349466268
9	147491	29683.315421391512	4.250660108504
9	147558	29695.599310150882	10.901429645714
9	147600	29703.771417008758	10.056204694425
9	147632	29712.336878758528	17.707011623479
9	147679	29722.892588093831	28.342122026442
9	147682	29723.951150796889	20.007829384048
9	147685	29724.969217833272	18.727991612698
9	147842	29761.789106141723	9.964496464611
9	147857	29765.548747627382	1.097343768086
9	147890	29791.086673504291	2.102036202575
9	147962	29830.240363691982	7.166994647973
9	148004	29839.209097340298	1.024596390408
9	148057	29850.553335940805	4.062857155973
9	148065	29852.891577682594	4.412452989147
9	148099	29864.81103092852	0.953806254361
9	148127	29871.014572487535	21.863658857361
9	148225	29892.893795651972	10.725156596919
9	148235	29895.754600369505	5.524877226073
9	148257	29908.595800629184	1.077814401593
9	148321	29927.092565969856	1.080095708091
9	148355	29933.189920434556	1.166764983721
9	148406	29944.555655594185	21.955636116097
9	148442	29952.447551487961	11.511969822415
9	148450	29957.603213890766	0.944817375671
9	148535	29979.403620383579	9.563123168833
9	148550	29984.441347486662	4.122822281913
9	148597	29995.904788077488	8.253628147761
9	148612	29999.808065737313	3.067028626929

