version 2
run Second_exit_5-2-20191017-13:43:54-1930
attr configname Second_exit_5
attr datetime 20191017-13:43:54
attr experiment Second_exit_5
attr inifile omnetpp.ini
attr iterationvars ""
attr iterationvarsf ""
attr measurement ""
attr network ResponseTimeNetwork
attr processid 1930
attr repetition 2
attr replication #2
attr resultdir results
attr runnumber 2
attr seedset 2
param **.Source.interArrivalTime exponential(5s)
param **.jobPriority bernoulli(0.6)
param **.PS.serviceTimeU1 "uniform(0.8s, 1.2s)"
param **.PS.serviceTimeU2 "uniform(1.8s, 2.2s)"
param **.SS1.serviceTime exponential(1s)
param **.SS2.serviceTime exponential(1.2s)
param **.PS.exitProbability bernoulli(0.5)

vector 0 ResponseTimeNetwork.SS1 queueLength:vector ETV
attr interpolationmode sample-hold
attr title "queue length, vector"
vector 1 ResponseTimeNetwork.SS2 queueLength:vector ETV
attr interpolationmode sample-hold
attr title "queue length, vector"
vector 2 ResponseTimeNetwork.QueueU1 queueLength:vector ETV
attr interpolationmode sample-hold
attr title "queue length, vector"
vector 3 ResponseTimeNetwork.QueueU2 queueLength:vector ETV
attr interpolationmode sample-hold
attr title "queue length, vector"
vector 4 ResponseTimeNetwork.sink lifeTimeU1:vector ETV
attr interpolationmode none
attr title "lifetime of arrived jobs U1, vector"
attr unit s
vector 5 ResponseTimeNetwork.sink lifeTime:vector ETV
attr interpolationmode none
attr title "lifetime of arrived jobs, vector"
attr unit s
vector 6 ResponseTimeNetwork.sink lifeTimeU2:vector ETV
attr interpolationmode none
attr title "lifetime of arrived jobs U2, vector"
attr unit s
0	0	0	0
0	47	12.393371459342	1
0	49	13.298867963931	0
0	59	14.544147555403	1
0	61	15.173323350651	0
0	64	15.459295083362	1
0	66	15.732153526782	0
0	484	228.842583935052	1
0	489	229.937008390392	0
0	500	232.618701550734	1
0	501	233.082286262855	0
0	960	503.594208698998	1
0	961	505.288285644245	0
0	1035	541.321496832495	1
0	1036	541.386161338783	0
0	1045	543.121228010638	1
0	1046	543.8039146861	0
0	1102	556.296732947321	1
0	1106	558.334127591987	0
0	1140	568.924244040011	1
0	1141	569.360700347264	0
0	1380	684.086225262813	1
0	1381	684.300776438999	0
0	2275	1138.134855187499	1
0	2276	1139.133983470395	0
0	2280	1140.045364559244	1
0	2281	1140.39556916619	0
0	2605	1229.024314245493	1
0	2606	1229.117238978108	0
0	2702	1277.151459551334	1
0	2705	1278.206358165305	2
0	2706	1278.537976775905	1
0	2709	1279.464889918798	0
0	3040	1469.081014156769	1
0	3041	1469.838324235724	0
0	3054	1471.98512749576	1
0	3056	1472.32471186535	0
0	3059	1472.899075015979	1
0	3061	1472.972080113329	0
0	3084	1477.83378761976	1
0	3087	1478.883190894099	2
0	3094	1480.741979219832	1
0	3104	1482.826694518563	0
0	3265	1579.739818892785	1
0	3266	1579.851458231431	0
0	3372	1676.461045276903	1
0	3374	1676.906185035645	0
0	4064	2132.354798902428	1
0	4067	2133.483964157427	2
0	4069	2134.137718885263	1
0	4074	2135.257636668755	0
0	4177	2171.913835043449	1
0	4179	2171.98314075251	0
0	4532	2316.583358555827	1
0	4534	2317.210130815359	0
0	4815	2426.052139854439	1
0	4816	2426.431513199565	0
0	4934	2457.070240059835	1
0	4936	2457.417638517537	0
0	5508	2730.864097681312	1
0	5510	2731.041309365121	0
0	5620	2772.670104589435	1
0	5621	2772.740207905357	0
0	5947	2926.555802729454	1
0	5952	2927.483055830103	2
0	5954	2928.186830871278	1
0	5957	2928.315470600509	2
0	5959	2928.965800824886	1
0	5965	2930.186322522079	2
0	5966	2930.517272897337	1
0	5969	2930.562007544497	0
0	6167	3007.615865586219	1
0	6170	3008.711829931741	2
0	6171	3008.717186481181	1
0	6174	3008.735907203516	0
0	6285	3080.027397088155	1
0	6286	3081.893623872408	0
0	6687	3293.943187087632	1
0	6689	3294.297076313441	0
0	6745	3314.62656880975	1
0	6746	3315.134694844858	0
0	6752	3316.195533116349	1
0	6755	3316.996620300413	2
0	6756	3317.671068186723	1
0	6759	3317.820096527417	0
0	6762	3318.577370116245	1
0	6764	3319.476451633732	0
0	6967	3412.419601053535	1
0	6969	3413.158161098333	0
0	6972	3413.519231842062	1
0	6976	3413.800495374497	0
0	7630	3805.348862686414	1
0	7631	3805.531898715108	0
0	7635	3806.342905818525	1
0	7636	3808.810667149189	0
0	7690	3864.045898448492	1
0	7694	3865.061965035244	0
0	7705	3867.290930807347	1
0	7706	3870.093669560672	0
0	7805	3899.372613586928	1
0	7806	3900.492116991025	0
0	7832	3906.485448190398	1
0	7834	3907.128046649626	0
0	7910	3952.605705809065	1
0	7911	3953.040599415528	0
0	8440	4286.368771029588	1
0	8441	4286.530803370451	0
0	8915	4500.131616475359	1
0	8916	4500.767128069073	0
0	9602	4814.762019382322	1
0	9606	4816.3110404738	0
0	10560	5438.286538160036	1
0	10561	5438.857921728777	0
0	10570	5441.021545238061	1
0	10571	5441.590735594167	0
0	10590	5448.501828071379	1
0	10591	5449.011525852706	0
0	11175	5740.537767640976	1
0	11176	5741.340241979807	0
0	11310	5794.890992860836	1
0	11311	5795.282895367188	0
0	11467	5856.874167038936	1
0	11469	5857.028506367526	0
0	11700	5936.097237917309	1
0	11701	5937.553215137388	0
0	11875	6014.22439829321	1
0	11876	6016.071270140081	0
0	12420	6265.469815872666	1
0	12421	6266.061511652692	0
0	12850	6457.653161254534	1
0	12856	6459.38301891266	0
0	13005	6541.018677195908	1
0	13006	6541.872806580515	0
0	13305	6685.490866767321	1
0	13306	6686.713528040294	0
0	13650	6896.762160064337	1
0	13651	6896.990384562262	0
0	13655	6897.791618886725	1
0	13656	6897.934231011047	0
0	13947	7040.634275015545	1
0	13949	7040.838916484413	0
0	13980	7048.497480879657	1
0	13981	7050.313240942327	0
0	14030	7072.311144294609	1
0	14031	7072.616454297929	0
0	14035	7073.482279920551	1
0	14036	7074.394511358947	0
0	14369	7209.466848637071	1
0	14373	7210.066834224901	0
0	14398	7214.128261687421	1
0	14411	7217.048613197097	0
0	14509	7244.923370821529	1
0	14511	7244.964784261349	0
0	14577	7272.351319368607	1
0	14579	7272.70785286283	0
0	14950	7451.690726706663	1
0	14951	7452.889558199184	0
0	15111	7533.376840553271	1
0	15113	7534.001590300687	0
0	15267	7608.652967998632	1
0	15269	7608.740139821714	0
0	15280	7611.630677239749	1
0	15286	7613.675211766001	0
0	15517	7799.918833043397	1
0	15519	7800.014537094041	0
0	15652	7845.580421933238	1
0	15654	7845.74615112874	0
0	15912	8005.496245343676	1
0	15914	8006.292825803722	0
0	15992	8028.584420093579	1
0	15996	8029.160095031953	0
0	16011	8031.66685900191	1
0	16013	8032.061212379027	0
0	16661	8325.843731040041	1
0	16663	8325.845590756289	0
0	16679	8329.782966747227	1
0	16684	8330.808441092983	0
0	16755	8352.134209061452	1
0	16756	8352.236825209609	0
0	16760	8353.147809618092	1
0	16764	8353.813868023372	0
0	16806	8361.661081603462	1
0	16811	8362.776736777462	0
0	16824	8365.760527070532	1
0	16828	8366.800713506427	0
0	16831	8366.953282037205	1
0	16840	8368.820963835139	0
0	16843	8368.976487324122	1
0	16851	8371.112811773114	0
0	17055	8459.802691608762	1
0	17056	8460.650695532405	0
0	17060	8461.797254587648	1
0	17066	8463.301845472181	0
0	17469	8653.703944546877	1
0	17472	8654.677488642054	2
0	17474	8654.745756606732	1
0	17479	8655.76987322526	0
0	17498	8658.511967216301	1
0	17506	8660.288467096076	0
0	17770	8753.07708392072	1
0	17771	8753.188873613578	0
0	17897	8787.990617115439	1
0	17899	8788.231383589853	0
0	18962	9341.954403198766	1
0	18964	9342.282891111909	0
0	19227	9500.353116210141	1
0	19231	9505.040598285556	0
0	20307	10055.883219754174	1
0	20309	10056.48350032045	0
0	20359	10090.051311527769	1
0	20361	10090.920982902572	0
0	20364	10091.118466480932	1
0	20371	10093.049235207812	0
0	20619	10202.180938324609	1
0	20624	10203.415799599482	0
0	20730	10274.742574668335	1
0	20731	10275.078987531317	0
0	20740	10277.285529806045	1
0	20741	10277.473237808215	0
0	20852	10320.507516681312	1
0	20856	10321.215824557435	0
0	21226	10495.660385941421	1
0	21228	10495.972071042776	0
0	21241	10498.565739372358	1
0	21244	10499.438046446707	2
0	21246	10499.462305892748	1
0	21248	10499.578117763137	0
0	21261	10502.580144938346	1
0	21264	10503.756679106023	2
0	21266	10503.841822506453	1
0	21269	10504.589584844824	2
0	21271	10505.506699864181	1
0	21274	10505.677804502644	2
0	21279	10506.644270548396	3
0	21281	10507.140628983188	2
0	21291	10510.838565062102	1
0	21294	10511.000508466935	0
0	21329	10517.750375982025	1
0	21336	10518.648326071433	0
0	21797	10772.109398417409	1
0	21801	10773.597736816973	0
0	21879	10789.284422973078	1
0	21881	10789.306269291095	0
0	22202	10929.967935319506	1
0	22204	10930.622781623036	0
0	22210	10931.908443756197	1
0	22211	10931.965572618421	0
0	22265	10948.892833826826	1
0	22266	10948.986043640005	0
0	22655	11127.77504165223	1
0	22659	11128.192106056112	0
0	22672	11131.430537318053	1
0	22676	11131.822564201357	0
0	22679	11132.400036700523	1
0	22681	11133.160920590812	0
0	22687	11134.758129499095	1
0	22696	11139.197402751305	0
0	22702	11140.164032223959	1
0	22704	11140.290520412903	0
0	23470	11479.706513150614	1
0	23471	11480.267783569183	0
0	24280	11911.505779562122	1
0	24281	11911.662916334096	0
0	24455	12001.305907387245	1
0	24461	12003.132664092939	0
0	24600	12083.830769281778	1
0	24601	12084.61547752055	0
0	24642	12110.033288136196	1
0	24649	12111.846371939187	0
0	24652	12112.491341423434	1
0	24655	12113.432221369543	2
0	24659	12115.870273827971	1
0	24666	12118.287816717894	0
0	24719	12136.698384425854	1
0	24721	12137.084994721702	0
0	25125	12391.719729954901	1
0	25131	12393.198795746797	0
0	25227	12453.888586584899	1
0	25229	12454.586082134093	0
0	25405	12523.582688281049	1
0	25407	12524.109738899577	0
0	25434	12528.47109615199	1
0	25436	12529.344482294384	0
0	25456	12534.835586605331	1
0	25458	12535.470439018029	0
0	25766	12663.274808687153	1
0	25769	12664.190151172499	2
0	25784	12667.001803121768	1
0	25786	12667.313387311	0
0	25797	12669.556457237335	1
0	25799	12669.870886136652	0
0	25819	12673.721991532477	1
0	25821	12673.843509055629	0
0	25902	12694.317000555682	1
0	25911	12695.528079773335	0
0	26120	12770.107569396085	1
0	26121	12770.666647225409	0
0	27485	13386.698739069823	1
0	27486	13386.706171661442	0
0	27784	13519.38927054384	1
0	27786	13519.958715324201	0
0	27814	13525.349916893684	1
0	27828	13527.332175277409	0
0	27924	13547.304300188992	1
0	27928	13547.77741737577	0
0	27939	13550.8320013019	1
0	27944	13551.692700445161	2
0	27946	13551.947452389695	1
0	27949	13552.493464236681	2
0	27951	13552.562843763236	1
0	27956	13553.322740477112	2
0	27958	13553.638615719485	1
0	27960	13553.989434802662	0
0	27973	13556.374345508378	1
0	27975	13556.507617026268	0
0	28155	13632.358328891075	1
0	28156	13632.360735989326	0
0	28750	13928.176406929264	1
0	28754	13930.384023183115	0
0	28762	13931.794776785688	1
0	28764	13932.13430197299	0
0	28769	13932.907207649888	1
0	28771	13933.989553676019	0
0	28777	13935.175442641729	1
0	28779	13935.293105346548	0
0	28785	13936.783528051467	1
0	28786	13937.107165358906	0
0	29215	14159.696505854422	1
0	29219	14161.16506783043	0
0	29235	14164.608510362929	1
0	29236	14164.956233824134	0
0	29240	14165.931664386109	1
0	29241	14166.123650155329	0
0	31187	15077.512517024754	1
0	31189	15077.545116381167	0
0	32770	15965.772160885312	1
0	32774	15967.093520018849	0
0	33265	16216.49660055783	1
0	33266	16217.450399167527	0
0	33280	16220.389254839317	1
0	33281	16220.391321736499	0
0	34375	16799.358336512895	1
0	34376	16800.459376625581	0
0	34415	16811.436411094248	1
0	34421	16812.045821215528	0
0	34667	16901.484872418378	1
0	34669	16901.624000648077	0
0	34698	16906.602026280217	1
0	34700	16907.147239337764	0
0	35055	17063.720042279273	1
0	35056	17063.773740360155	0
0	35172	17112.344808486268	1
0	35174	17113.152797318189	0
0	35435	17220.344155002703	1
0	35436	17221.073506057676	0
0	35555	17294.520147116477	1
0	35556	17294.595066601175	0
0	35935	17481.70849512285	1
0	35936	17481.780943993478	0
0	36142	17597.688384695773	1
0	36154	17601.866672007614	0
0	36202	17628.903864546329	1
0	36204	17629.48840825204	0
0	36219	17631.876641651731	1
0	36226	17634.697767089032	0
0	36401	17702.709551368107	1
0	36403	17702.73565603769	0
0	36945	17963.396928156941	1
0	36946	17963.565066804306	0
0	37055	18017.551159175859	1
0	37056	18017.621324925631	0
0	37405	18155.290240789633	1
0	37406	18155.726616062849	0
0	37775	18380.554140767735	1
0	37776	18380.763955198695	0
0	37782	18381.648427556456	1
0	37786	18383.38577756989	0
0	37790	18384.492166734163	1
0	37791	18385.351743847565	0
0	37930	18458.197876114356	1
0	37934	18458.80190018069	0
0	38097	18516.638957931582	1
0	38101	18517.55516718435	0
0	39140	19010.102707865217	1
0	39141	19010.773458044044	0
0	39147	19011.892986577283	1
0	39149	19012.800500085108	0
0	40265	19570.311936476706	1
0	40266	19572.354913366515	0
0	40360	19620.58466428241	1
0	40361	19621.0030812551	0
0	40365	19621.858238577723	1
0	40374	19623.910141517307	0
0	40465	19706.597612673256	1
0	40466	19707.800535878666	0
0	40980	19931.316269655789	1
0	40981	19931.886853630325	0
0	41350	20073.750688594069	1
0	41354	20078.260535013745	0
0	41370	20082.1277945091	1
0	41371	20082.167030551081	0
0	41460	20119.72265466984	1
0	41461	20119.871932990351	0
0	42945	20845.485884616055	1
0	42946	20845.763352227289	0
0	43175	20959.717829199522	1
0	43176	20959.746391821984	0
0	43195	20963.692030600044	1
0	43196	20966.101749249726	0
0	43200	20967.131136338312	1
0	43201	20969.325888533916	0
0	43267	20986.742466009414	1
0	43269	20987.205237979652	0
0	43272	20987.650616371544	1
0	43276	20987.787866102625	0
0	43311	20994.811719625543	1
0	43315	20995.697674175183	0
0	43318	20995.734292806971	1
0	43321	20996.894485520764	2
0	43334	21000.354456667558	1
0	43339	21000.66204792409	0
0	43535	21077.916860624475	1
0	43536	21078.083087114113	0
0	43664	21173.350235947352	1
0	43666	21174.119070928473	0
0	44650	21605.872803901769	1
0	44651	21606.577715170128	0
0	44655	21607.700776659069	1
0	44656	21608.499582338193	0
0	45245	21929.294459130582	1
0	45246	21929.746704754026	0
0	45250	21930.82834685601	1
0	45251	21932.57247971928	0
0	45307	21964.130319549212	1
0	45309	21964.204239953659	0
0	45325	21968.423660453384	1
0	45329	21968.75185215969	0
0	45880	22219.904546050167	1
0	45881	22221.715847908733	0
0	46150	22355.744339276694	1
0	46154	22358.022680034402	0
0	47275	22916.101282845739	1
0	47276	22916.578192615992	0
0	47304	22921.637982947676	1
0	47306	22922.084755381267	0
0	47314	22923.534500438086	1
0	47324	22926.00971740707	0
0	47465	23045.948148500711	1
0	47466	23046.5072860535	0
0	47475	23048.275092257257	1
0	47476	23049.398829379394	0
0	47480	23050.393030818641	1
0	47481	23050.440928792169	0
0	48215	23481.43382413627	1
0	48216	23482.352836814181	0
0	48220	23483.429232108717	1
0	48221	23484.329851896385	0
0	48365	23575.349836767664	1
0	48369	23577.672305705531	0
0	48372	23577.676409973978	1
0	48374	23578.042756595826	0
0	48710	23746.303700087026	1
0	48711	23746.575193283922	0
0	49590	24235.792310966176	1
0	49596	24238.457254043588	0
0	49600	24239.564497307868	1
0	49601	24239.633341531973	0
0	49605	24240.672025324456	1
0	49609	24241.608807117743	0
0	49612	24242.465899177634	1
0	49614	24242.975611322107	0
0	49617	24243.506653887213	1
0	49619	24243.70217828648	0
0	49682	24270.685370282186	1
0	49684	24270.845045038656	0
0	49727	24282.81801315462	1
0	49731	24284.059765065219	0
0	49735	24284.906117724944	1
0	49736	24285.929855037524	0
0	49794	24324.158152629399	1
0	49796	24324.534505020533	0
0	49799	24325.04353814345	1
0	49802	24325.946107081288	2
0	49804	24326.412576726899	1
0	49806	24326.681264899594	0
0	49812	24327.908038392161	1
0	49815	24328.914222156686	2
0	49816	24329.273417911425	1
0	49819	24329.287301179217	0
0	50724	24734.438259673961	1
0	50727	24735.567585805435	2
0	50731	24737.561951161904	1
0	50735	24738.592446614412	2
0	50736	24739.563024606841	1
0	50739	24739.685366616694	0
0	50755	24743.690539357044	1
0	50756	24745.10807894007	0
0	50902	24831.733765421123	1
0	50904	24832.185621392838	0
0	51530	25166.269465876387	1
0	51531	25166.440316421719	0
0	52885	25887.817031705342	1
0	52886	25888.948361736086	0
0	53257	26113.944244450922	1
0	53259	26114.993630875162	0
0	53270	26116.954535445138	1
0	53271	26117.161025912981	0
0	54087	26607.730736939555	1
0	54089	26608.578388190333	0
0	54095	26609.608965870498	1
0	54096	26610.318248293034	0
0	54480	26800.888913866055	1
0	54481	26800.966382532127	0
0	54495	26804.890921139352	1
0	54496	26805.7352373196	0
0	54505	26807.700828627423	1
0	54506	26808.583746640959	0
0	54907	27046.574197155658	1
0	54909	27047.567782366507	0
0	54915	27048.591277788907	1
0	54916	27049.609857728801	0
0	55290	27227.239191323783	1
0	55291	27227.842071502116	0
0	55370	27248.191727492278	1
0	55371	27248.429645406695	0
0	56569	27872.641151385611	1
0	56571	27873.207969752552	0
0	56579	27874.589123449518	1
0	56581	27874.721351108851	0
0	56797	27980.700307328782	1
0	56799	27981.235419822335	0
0	56855	27993.437350196834	1
0	56856	27995.270709222929	0
0	56870	27998.092734539137	1
0	56871	27998.220668518439	0
0	56975	28030.325857061833	1
0	56976	28030.667881089644	0
0	57269	28188.792778511729	1
0	57271	28188.863921354622	0
0	57947	28490.567356739736	1
0	57951	28492.280336203985	0
0	58406	28788.020362803347	1
0	58408	28788.427743325046	0
0	58465	28800.738336285638	1
0	58466	28800.822382596508	0
0	58482	28803.952212134377	1
0	58486	28805.275429713704	0
0	58920	29016.862576385055	1
0	58925	29018.499346729227	2
0	58926	29018.532013659172	1
0	58930	29019.398714835841	2
0	58931	29019.956456126817	1
0	58934	29020.757025592351	0
0	58985	29051.552299145808	1
0	58986	29052.130794192314	0
0	59435	29283.59034563935	1
0	59439	29284.354225378485	0
0	59452	29286.876805639663	1
0	59454	29286.916576922302	0
0	59471	29289.861819379707	1
0	59474	29290.74026929962	2
0	59476	29291.033169739765	1
0	59478	29291.147275902991	0
0	59496	29294.854391844129	1
0	59498	29295.00546668479	0
0	59503	29295.834161538934	1
0	59508	29296.715810752311	2
0	59510	29297.716170184538	1
0	59515	29297.815016844188	0
0	59607	29338.678721128412	1
0	59609	29338.817607299024	0
0	59890	29475.474927263727	1
0	59891	29475.531863655585	0
0	60100	29590.407799813026	1
0	60101	29590.47972285096	0
0	60227	29641.443556767255	1
0	60229	29642.213582970729	0
0	60237	29643.642544471491	1
0	60239	29643.723754632281	0
0	60365	29692.124317938753	1
0	60366	29692.776917994556	0
0	60380	29695.521992144615	1
0	60381	29695.858660533223	0
1	0	0	0
1	420	215.554619889292	1
1	421	215.781318409817	0
1	1350	668.65227297919	1
1	1351	668.971443684204	0
1	2330	1152.286156206463	1
1	2334	1152.978137432355	0
1	2352	1156.556043867618	1
1	2355	1157.529453060813	2
1	2361	1157.935677955377	1
1	2363	1158.11553378312	0
1	2425	1178.498279816245	1
1	2426	1180.240275049716	0
1	4157	2167.987536186994	1
1	4164	2169.492051363972	0
1	4260	2192.940285839617	1
1	4261	2194.387781114002	0
1	4280	2198.609367107657	1
1	4281	2198.698036124843	0
1	4440	2279.046721839267	1
1	4441	2279.055152323146	0
1	4445	2280.146771930952	1
1	4446	2280.999469831266	0
1	4450	2282.067243205622	1
1	4454	2283.644506673746	0
1	4625	2352.116599290457	1
1	4626	2353.723115640843	0
1	4632	2354.739902516139	1
1	4636	2355.495131043052	0
1	4639	2355.844436076061	1
1	4646	2359.791629441176	0
1	4910	2450.743092966262	1
1	4911	2452.422557428012	0
1	5492	2729.021368612578	1
1	5494	2729.386696316835	0
1	6070	2963.581206783784	1
1	6071	2964.716274086518	0
1	6440	3188.767718671405	1
1	6441	3192.233784693856	0
1	6445	3193.20336420136	1
1	6446	3194.347799396213	0
1	7095	3504.759182827414	1
1	7096	3505.103974569511	0
1	7480	3749.68833996268	1
1	7481	3754.149575635196	0
1	7485	3755.204775368852	1
1	7489	3756.830295267489	0
1	7492	3757.329647300792	1
1	7496	3759.069761678742	0
1	7515	3763.066500949932	1
1	7516	3765.954476198733	0
1	7760	3888.605831399279	1
1	7761	3889.855504272989	0
1	8225	4140.469239011656	1
1	8226	4141.43905465576	0
1	8745	4422.413777413479	1
1	8766	4427.01325165423	0
1	8967	4515.074038321797	1
1	8970	4516.216047728893	2
1	8976	4521.534796181273	1
1	8979	4521.603186808156	0
1	8982	4522.59897247101	1
1	8984	4522.668508758693	0
1	8992	4524.589191110104	1
1	9004	4528.052858023933	0
1	9017	4530.526116665472	1
1	9019	4531.162979442352	0
1	9022	4531.515600378086	1
1	9024	4531.619713185855	0
1	9264	4640.974934058458	1
1	9269	4643.172245207706	0
1	9272	4643.237528624207	1
1	9281	4644.766635150987	0
1	10755	5557.370030215333	1
1	10761	5559.586522155716	0
1	10767	5560.842940545906	1
1	10770	5561.911489291102	2
1	10771	5562.962101746895	1
1	10776	5563.261027701503	0
1	11135	5727.463789180462	1
1	11136	5728.466958533838	0
1	11912	6023.516836756194	1
1	11914	6024.131021640068	0
1	11917	6024.716623463208	1
1	11919	6024.936700885105	0
1	11922	6025.599003289553	1
1	11925	6026.561164878781	2
1	11926	6026.710210657636	1
1	11929	6026.787146231421	0
1	11937	6028.375398113442	1
1	11941	6033.165438468321	0
1	12327	6192.898387264541	1
1	12329	6193.914448487808	0
1	12332	6193.942275064519	1
1	12335	6194.904558903339	2
1	12340	6196.804518214009	3
1	12341	6197.749412993387	2
1	12344	6198.543427154161	1
1	12349	6199.110856146138	0
1	12942	6502.602114444538	1
1	12946	6504.274261842093	0
1	12950	6505.433997539508	1
1	12951	6506.112249692843	0
1	13350	6702.362735892469	1
1	13351	6704.296962876575	0
1	13365	6707.298697630645	1
1	13366	6707.410797857146	0
1	14352	7206.82690355191	1
1	14354	7207.452597167964	0
1	14540	7252.074335157626	1
1	14541	7252.078022088317	0
1	14545	7253.079932198135	1
1	14546	7253.934345919927	0
1	14625	7288.2819233562	1
1	14626	7288.629069481143	0
1	14742	7348.025341846636	1
1	14744	7348.42924044175	0
1	16135	8074.449889674527	1
1	16139	8074.945754767873	0
1	16145	8076.438797471508	1
1	16146	8076.853868093797	0
1	16357	8232.65730679357	1
1	16362	8233.531842009123	2
1	16364	8233.858961743355	1
1	16369	8234.809354083277	0
1	16385	8238.53444216359	1
1	16389	8239.7898420914	0
1	16392	8240.301650681514	1
1	16395	8241.413806616123	2
1	16396	8241.980104686356	1
1	16401	8242.753849369018	0
1	16430	8249.709535596983	1
1	16431	8249.96545211886	0
1	16646	8322.853342356811	1
1	16648	8323.349961629025	0
1	17150	8532.325678826413	1
1	17151	8534.649228050746	0
1	17547	8677.943585146206	1
1	17549	8678.338879593273	0
1	17637	8722.090429726374	1
1	17644	8723.694177196523	0
1	17647	8723.886785634831	1
1	17650	8725.000805876349	2
1	17651	8725.216503782937	1
1	17654	8725.904214332735	0
1	17657	8726.056386317959	1
1	17666	8727.758623364879	0
1	17722	8738.672402670042	1
1	17724	8738.757722137527	0
1	18910	9328.687109171604	1
1	18914	9329.107927242565	0
1	18922	9330.907094116571	1
1	18929	9332.253667526486	0
1	19150	9458.342211200283	1
1	19151	9459.067726773871	0
1	19155	9460.183751989258	1
1	19156	9464.656362528714	0
1	19327	9557.247114978911	1
1	19331	9558.924164243762	0
1	19490	9640.101011761895	1
1	19491	9643.602339989095	0
1	19495	9644.726404687631	1
1	19499	9645.388264026551	0
1	19505	9646.594596672716	1
1	19514	9648.150890745396	0
1	19570	9659.977612324927	1
1	19571	9660.057811306656	0
1	19820	9802.009135616455	1
1	19834	9806.072178451544	0
1	19840	9807.725949293643	1
1	19841	9808.155892654743	0
1	20955	10344.124945238771	1
1	20956	10344.184008539095	0
1	20967	10346.406325538084	1
1	20969	10346.406791370701	0
1	20972	10347.490968189109	1
1	20975	10348.326807347406	2
1	20976	10348.483401770644	1
1	20979	10349.611923139726	0
1	20982	10349.62716687977	1
1	20985	10350.81170217333	2
1	20989	10352.106392423288	1
1	20991	10352.168660200495	0
1	20997	10353.298554816785	1
1	21001	10353.772228599371	0
1	21004	10354.154456845707	1
1	21011	10355.334068667779	0
1	21977	10821.459730240806	1
1	21979	10822.157896597868	0
1	22775	11155.838753036431	1
1	22776	11156.956145200274	0
1	22780	11157.768912211946	1
1	22781	11159.385294527055	0
1	22785	11160.456028571592	1
1	22786	11160.477789083634	0
1	23585	11542.792139271644	1
1	23586	11546.829685354528	0
1	24310	11930.345966921643	1
1	24311	11930.403837930651	0
1	25526	12548.596526712008	1
1	25528	12549.264744501148	0
1	25791	12667.773857785384	1
1	25803	12670.350398386755	0
1	25850	12680.586910475433	1
1	25851	12681.026914295716	0
1	26200	12791.979845375435	1
1	26201	12792.065885309528	0
1	26572	12984.168193502957	1
1	26579	12986.844253889473	0
1	26615	12994.624439645221	1
1	26616	12995.690599839098	0
1	26625	12997.667202640592	1
1	26626	12998.099533589962	0
1	26662	13007.32866566061	1
1	26665	13008.35140807406	2
1	26666	13008.505612857615	1
1	26672	13009.322228667674	2
1	26674	13009.820491137655	1
1	26676	13010.41105368025	0
1	26679	13010.502314338715	1
1	26681	13010.527857544022	0
1	27230	13216.922190920537	1
1	27236	13219.69633544259	0
1	27760	13509.5110604239	1
1	27761	13510.784755903723	0
1	28545	13854.559735295788	1
1	28546	13854.809992712165	0
1	28617	13890.672121320311	1
1	28621	13891.849787997789	0
1	28647	13897.08446001742	1
1	28649	13898.005962324812	0
1	28667	13900.808161020614	1
1	28669	13901.379335628916	0
1	28672	13901.881707530245	1
1	28676	13903.509750939452	0
1	28685	13905.411451327719	1
1	28686	13905.618907432658	0
1	29095	14092.457615211728	1
1	29096	14093.279490493281	0
1	29165	14118.731004589062	1
1	29171	14122.400043450252	0
1	29610	14354.754891832528	1
1	29611	14357.62685437633	0
1	29735	14400.891916074758	1
1	29736	14402.422345574501	0
1	30405	14720.927096098513	1
1	30409	14722.263380877093	0
1	30417	14724.232967461916	1
1	30419	14724.354961946723	0
1	30895	14952.359875001239	1
1	30896	14952.628942825934	0
1	31820	15396.857690165872	1
1	31824	15399.480620760554	0
1	31925	15465.781126760657	1
1	31926	15466.066882605311	0
1	32000	15512.879284238819	1
1	32001	15514.139353151212	0
1	32007	15514.957703020109	1
1	32010	15516.033232808078	2
1	32011	15516.637017961797	1
1	32016	15518.124000722233	0
1	32675	15920.05252849564	1
1	32676	15920.864123863744	0
1	32837	15992.989344325585	1
1	32839	15993.340489806167	0
1	32879	16006.612668639441	1
1	32881	16006.686704908017	0
1	34097	16670.881239741433	1
1	34099	16671.598807321999	0
1	34439	16815.793216463648	1
1	34444	16817.071677725789	0
1	34454	16818.890572329614	1
1	34466	16821.49833545489	0
1	34470	16822.406829796822	1
1	34484	16825.52373285654	0
1	35802	17445.251932821469	1
1	35805	17446.413875460764	2
1	35814	17447.745966563746	1
1	35825	17448.833712360839	0
1	36060	17545.357593768772	1
1	36061	17547.852358005716	0
1	36800	17901.969605553928	1
1	36801	17903.194480443043	0
1	38922	18945.6551929511	1
1	38924	18945.925500437412	0
1	38940	18949.475089955876	1
1	38941	18949.706265899589	0
1	38950	18951.663389619117	1
1	38951	18953.216806851416	0
1	39250	19080.946896090086	1
1	39254	19082.390490478484	0
1	39324	19098.885088893582	1
1	39326	19099.41947657751	0
1	39355	19108.790535707441	1
1	39360	19110.051564195449	2
1	39361	19110.143331060787	1
1	39364	19110.445804248751	0
1	39780	19361.644032935203	1
1	39781	19362.603993309385	0
1	39785	19363.695138757865	1
1	39786	19363.889091653109	0
1	41810	20324.766266226819	1
1	41811	20324.85622643162	0
1	41815	20325.769891330641	1
1	41816	20326.143827882025	0
1	41820	20326.972475993063	1
1	41821	20327.869567239568	0
1	42200	20497.294178237818	1
1	42201	20497.304803026953	0
1	42205	20498.303922439386	1
1	42206	20498.973405214525	0
1	42435	20600.050396298381	1
1	42436	20601.100822739393	0
1	42450	20603.8082517622	1
1	42461	20606.95420758876	0
1	42467	20608.483162404386	1
1	42469	20608.940430989732	0
1	42472	20609.480304914875	1
1	42474	20610.11438621937	0
1	42497	20615.440293622934	1
1	42504	20616.780271514481	0
1	42509	20617.824683284279	1
1	42511	20618.012933632103	0
1	42519	20619.761138419606	1
1	42534	20622.996733255089	0
1	42715	20731.785301265517	1
1	42716	20734.701290299459	0
1	43015	20864.044454309645	1
1	43016	20864.231027492224	0
1	44420	21502.098353975924	1
1	44421	21503.928128163254	0
1	44437	21506.829286175145	1
1	44439	21507.165879159542	0
1	44444	21507.827974344248	1
1	44449	21509.968965507692	0
1	44455	21510.85826221641	1
1	44456	21511.349215267561	0
1	44897	21719.369944751161	1
1	44899	21719.534104177384	0
1	45590	22101.465984936327	1
1	45591	22101.830092594133	0
1	45717	22133.81447088652	1
1	45719	22134.552884683685	0
1	45722	22134.98725700638	1
1	45726	22135.969999832839	0
1	45732	22136.785288797964	1
1	45736	22137.838850238043	0
1	45945	22249.659417992203	1
1	45946	22250.036451673384	0
1	46055	22289.466005207231	1
1	46056	22293.45824968338	0
1	46355	22483.244623378717	1
1	46356	22484.646033655893	0
1	46690	22705.224585345234	1
1	46694	22705.750341189654	0
1	47177	22878.933588633782	1
1	47181	22880.928575210979	0
1	47655	23158.276183329761	1
1	47656	23159.068354763985	0
1	48445	23604.807030895035	1
1	48446	23605.08306256822	0
1	48450	23606.025965062163	1
1	48451	23607.267364824799	0
1	48900	23843.956828825205	1
1	48901	23844.115170172068	0
1	48920	23849.280318787563	1
1	48921	23850.370191517893	0
1	48935	23853.238726623311	1
1	48936	23855.803834631908	0
1	48974	23864.757530263823	1
1	48976	23865.061907915189	0
1	48992	23868.779207833308	1
1	48994	23869.306304014683	0
1	48997	23869.726371167238	1
1	49000	23870.530634389921	2
1	49001	23872.23617628792	1
1	49004	23873.113505455606	0
1	49007	23873.292497090974	1
1	49009	23873.466083799903	0
1	49020	23876.47270902477	1
1	49021	23876.940104517468	0
1	49035	23879.794347499065	1
1	49036	23880.302813645276	0
1	49375	24118.301642788768	1
1	49386	24123.929622805243	0
1	50360	24569.721481548167	1
1	50361	24571.033624195995	0
1	50380	24576.636874623875	1
1	50381	24576.725669253574	0
1	50475	24633.894702551948	1
1	50476	24634.089398063734	0
1	50995	24869.163862167795	1
1	50999	24870.843174661566	0
1	52067	25433.259671101058	1
1	52070	25434.278275309028	2
1	52071	25434.63061619802	1
1	52074	25434.635852260284	0
1	52087	25437.751246260764	1
1	52091	25438.929232840107	0
1	52260	25557.631959002537	1
1	52261	25557.833376581335	0
1	52295	25576.415532183537	1
1	52296	25578.087099430296	0
1	52300	25579.169376004632	1
1	52301	25580.329152264802	0
1	52317	25583.437548119	1
1	52319	25583.534472744151	0
1	52327	25585.206817990898	1
1	52329	25585.671344393137	0
1	52335	25586.986336232986	1
1	52336	25587.15856387779	0
1	52690	25784.963276802164	1
1	52691	25785.436903086077	0
1	52697	25786.41260108478	1
1	52701	25787.824832817191	0
1	53320	26144.642469636942	1
1	53321	26145.943307785534	0
1	56360	27811.922852595128	1
1	56369	27815.727302591918	0
1	56377	27816.845380822601	1
1	56379	27817.746430638849	0
1	56402	27822.340497106712	1
1	56404	27822.454747324148	0
1	56477	27837.783420233087	1
1	56479	27837.924965854821	0
1	57567	28333.549701219818	1
1	57569	28334.178275692258	0
1	57597	28344.607522307851	1
1	57599	28345.502834077648	0
1	58045	28594.533765356266	1
1	58049	28594.937117432331	0
1	58387	28784.908171406211	1
1	58390	28785.743086820664	2
1	58394	28786.365031092489	1
1	58396	28786.465516414608	0
1	58565	28827.747229908632	1
1	58566	28829.058980224327	0
1	59029	29060.316884061996	1
1	59031	29060.477926555464	0
1	59092	29073.281943430959	1
1	59095	29074.449452009725	2
1	59096	29075.215043399479	1
1	59099	29075.501610306635	0
1	60452	29721.64113666098	1
1	60454	29721.97140516996	0
1	60475	29726.592910540937	1
1	60476	29729.062149634284	0
1	60500	29733.639436508229	1
1	60501	29733.907198262351	0
2	0	0	0
2	10	4.699177598709	1
2	11	5.004223414196	0
2	35	9.427458817124	1
2	37	10.150160187717	2
2	38	10.260754473753	1
2	41	11.374888532761	0
2	50	13.298867963931	1
2	51	13.356294592343	0
2	57	13.753554994307	1
2	58	14.544147555403	0
2	62	15.173323350651	1
2	63	15.459295083362	0
2	67	15.732153526782	1
2	69	15.932712829592	2
2	70	16.297907451972	1
2	74	16.979698889591	2
2	76	17.272028940332	3
2	77	17.336605575181	2
2	81	17.449713451671	3
2	82	18.443602045778	2
2	86	19.304713709273	3
2	87	19.383532559931	2
2	91	20.014244965246	3
2	92	20.330521107524	2
2	96	20.962899831759	3
2	97	21.386683798082	2
2	101	21.442877524918	3
2	102	22.379911730777	2
2	105	23.334668790981	1
2	108	24.45212377204	0
2	115	25.661219015611	1
2	116	26.343551357337	0
2	140	59.445411987182	1
2	141	60.39650328758	0
2	155	67.553936303976	1
2	156	68.01564543478	0
2	165	69.15653786826	1
2	166	70.104387219326	0
2	175	72.296359333255	1
2	176	72.422031363734	0
2	202	95.26771374126	1
2	203	95.540683048639	0
2	225	123.554032864952	1
2	226	124.607480812013	0
2	230	124.751243906717	1
2	232	124.880659105186	2
2	234	125.481394492623	3
2	235	125.75880092749	2
2	238	126.757630445562	1
2	242	127.217615482324	2
2	243	127.723592778887	1
2	246	128.663941539764	0
2	250	129.464624722449	1
2	251	129.716278602216	0
2	255	130.307195407838	1
2	256	130.653043244347	0
2	275	136.112123196095	1
2	276	136.512060559534	0
2	345	184.930135253037	1
2	346	185.487241124511	0
2	375	190.942016028164	1
2	376	191.368881456071	0
2	390	203.328885773903	1
2	391	204.13469420519	0
2	437	219.67661130249	1
2	438	219.790153923533	0
2	450	221.885713445635	1
2	452	222.666248824442	2
2	453	222.777348598926	1
2	456	223.75735928779	0
2	460	223.788198208551	1
2	462	224.39959365378	2
2	463	224.907865869622	1
2	467	225.874506818115	2
2	468	225.881364235743	1
2	474	226.766093805864	2
2	475	226.927466063942	1
2	479	227.521699953324	2
2	480	227.872437016848	1
2	483	228.842583935052	0
2	490	229.937008390392	1
2	491	230.823460633211	0
2	495	231.340167983141	1
2	496	231.752933914211	0
2	505	233.680536402695	1
2	506	233.935122966085	0
2	550	273.741135423435	1
2	551	274.313429350635	0
2	555	275.398043436579	1
2	556	275.450228424227	0
2	560	275.482550063243	1
2	561	276.330565363584	0
2	565	276.82213455151	1
2	566	277.381837851038	0
2	615	318.781478974109	1
2	618	319.295104297819	0
2	622	319.650006122324	1
2	623	320.439515368743	0
2	632	321.796246914642	1
2	633	322.119307119781	0
2	647	324.838235325999	1
2	648	325.157054273235	0
2	670	341.583485376679	1
2	671	342.335274159188	0
2	675	342.881292984911	1
2	676	343.195468745033	0
2	685	345.624188380378	1
2	686	346.358177553757	0
2	690	346.912675139928	1
2	691	347.229501484136	0
2	730	379.578848971351	1
2	731	380.383258111297	0
2	740	383.72047861938	1
2	741	384.18726885561	0
2	747	385.213965488423	1
2	748	385.27444278244	0
2	752	385.334909592737	1
2	754	385.871414977992	2
2	755	386.214732198511	1
2	759	386.836906517214	2
2	760	387.177203571238	1
2	763	388.028741524741	0
2	775	391.186201729067	1
2	776	391.94481033111	0
2	820	424.462371801329	1
2	821	425.252071363119	0
2	825	425.307045290596	1
2	826	426.117982812238	0
2	885	458.24647197434	1
2	886	458.744881880843	0
2	890	459.084047102707	1
2	891	459.885053813179	0
2	935	497.753416739049	1
2	936	498.119479415261	0
2	940	498.679910373731	1
2	941	498.987753626772	0
2	945	499.214213989402	1
2	946	499.889052361318	0
2	955	502.213827425189	1
2	956	502.55255236402	0
2	965	505.701937123252	1
2	966	506.273970582322	0
2	1030	540.075466488285	1
2	1031	540.25164772238	0
2	1040	542.041479585841	1
2	1041	542.308707208338	0
2	1070	548.81584620977	1
2	1073	549.800639501096	0
2	1082	550.994811339876	1
2	1083	551.788585450382	0
2	1110	558.601433679236	1
2	1111	559.190032991552	0
2	1115	559.500132321042	1
2	1116	560.203930188035	0
2	1125	562.338481520051	1
2	1126	562.842665674028	0
2	1145	569.39714130411	1
2	1147	570.217743814039	2
2	1148	570.297184329563	1
2	1151	571.322327290186	0
2	1155	572.097685228493	1
2	1156	572.30559099418	0
2	1160	573.11286195146	1
2	1161	573.225892220706	0
2	1185	588.570453127977	1
2	1186	588.789768620667	0
2	1190	589.172345420798	1
2	1191	589.625228344922	0
2	1205	592.701835703026	1
2	1206	593.244202581455	0
2	1215	598.440198855661	1
2	1216	598.506266952125	0
2	1280	651.528588929924	1
2	1281	652.413009760194	0
2	1285	652.694400656991	1
2	1286	653.373067576197	0
2	1290	653.586511001362	1
2	1291	654.438121658881	0
2	1295	654.501225225139	1
2	1296	655.589815499765	0
2	1305	657.250197654187	1
2	1309	657.631833364955	2
2	1310	657.642738980932	1
2	1315	658.818803903872	0
2	1319	659.568433653682	1
2	1320	659.994962924385	0
2	1385	684.892212350988	1
2	1386	685.150771301265	0
2	1400	710.017485782471	1
2	1401	710.112392304617	0
2	1440	746.53586570865	1
2	1441	746.674164467989	0
2	1515	778.187625073752	1
2	1516	778.940812375964	0
2	1535	790.608068385375	1
2	1537	791.150168108434	2
2	1538	791.156959371288	1
2	1542	791.406566216734	2
2	1543	792.080718285051	1
2	1547	792.359056272301	2
2	1548	792.908997099587	1
2	1551	794.072171232217	0
2	1555	794.365339664253	1
2	1557	794.724072469368	2
2	1558	794.873600607851	1
2	1562	795.009285790844	2
2	1563	795.982756490001	1
2	1567	796.078232782224	2
2	1568	796.998523745333	1
2	1571	797.807767088824	0
2	1575	797.955049582025	1
2	1576	798.747809241452	0
2	1580	799.363018197359	1
2	1581	799.681368034073	0
2	1585	799.949818520592	1
2	1586	800.652319019959	0
2	1595	803.910091296087	1
2	1596	804.588068515797	0
2	1600	805.22837357913	1
2	1601	805.753555636563	0
2	1615	809.556449852445	1
2	1616	810.41813511423	0
2	1620	810.743384854915	1
2	1621	811.448099911056	0
2	1625	811.621078976884	1
2	1626	812.425972638309	0
2	1640	818.335583964795	1
2	1641	819.175699034099	0
2	1655	821.986041269389	1
2	1657	822.506544124586	2
2	1658	822.733543475863	1
2	1661	823.588934882503	0
2	1707	846.158115255478	1
2	1708	846.438533658795	0
2	1715	847.692063901449	1
2	1716	848.679593724366	0
2	1725	850.656451494377	1
2	1726	850.965574985369	0
2	1730	851.994974797053	1
2	1732	851.995024009086	2
2	1733	852.151678787171	1
2	1737	852.542683571246	2
2	1738	853.103905298001	1
2	1742	853.158097352602	2
2	1744	854.028425601693	3
2	1745	854.095018930918	2
2	1748	855.234753850846	1
2	1752	855.593795989634	2
2	1753	856.394233578163	1
2	1756	857.46448286632	0
2	1770	869.097252809574	1
2	1771	869.547583901669	0
2	1775	869.762910938035	1
2	1777	870.18855065831	2
2	1778	870.434307698134	1
2	1781	871.577418229889	0
2	1790	873.007461904205	1
2	1791	873.384661393872	0
2	1805	876.70644308863	1
2	1806	877.472741840885	0
2	1810	877.589199478756	1
2	1811	878.40249986715	0
2	1815	879.036949205494	1
2	1816	879.284986436473	0
2	1820	879.503578639557	1
2	1821	880.341457360251	0
2	1835	884.315280901307	1
2	1836	885.216513628697	0
2	1860	912.93200898501	1
2	1861	913.565038620581	0
2	1965	956.993014185057	1
2	1966	957.685803891913	0
2	1995	979.28859581944	1
2	1996	979.972564488629	0
2	2002	980.889698180246	1
2	2003	981.111607084403	0
2	2007	981.39166037389	1
2	2009	981.63921326585	2
2	2010	981.994441744385	1
2	2013	982.859365583097	0
2	2050	1013.200290207764	1
2	2052	1013.554068563235	2
2	2053	1013.933383883522	1
2	2058	1015.058285517604	0
2	2065	1016.791929431465	1
2	2066	1016.924918782697	0
2	2095	1043.216059645172	1
2	2096	1043.806084965866	0
2	2115	1053.497192757458	1
2	2116	1054.149573253602	0
2	2137	1059.151730609902	1
2	2138	1060.117776598765	0
2	2145	1061.732569820336	1
2	2146	1061.975857878925	0
2	2190	1089.237582634991	1
2	2191	1089.836919003332	0
2	2265	1135.567818458797	1
2	2266	1136.263487929665	0
2	2270	1136.966405900481	1
2	2271	1137.29924471099	0
2	2285	1141.055715096669	1
2	2286	1141.381745732225	0
2	2290	1142.283039647512	1
2	2291	1142.371255828183	0
2	2295	1142.864358475082	1
2	2296	1143.267207764484	0
2	2300	1143.84739083618	1
2	2301	1144.424319044337	0
2	2470	1191.92009781035	1
2	2471	1192.618697990299	0
2	2475	1192.939893268683	1
2	2476	1193.619560653631	0
2	2480	1193.917915833445	1
2	2481	1194.754670177967	0
2	2490	1196.019249276043	1
2	2491	1196.826489245386	0
2	2500	1197.871184745973	1
2	2501	1198.549595337787	0
2	2575	1221.999595239302	1
2	2578	1222.525531039857	0
2	2585	1223.852432229096	1
2	2586	1224.575478501902	0
2	2590	1224.764072890145	1
2	2591	1225.745452926126	0
2	2595	1226.326512593558	1
2	2596	1226.631826620088	0
2	2600	1227.261108384459	1
2	2601	1227.830089435079	0
2	2640	1255.107738396515	1
2	2641	1255.232928881196	0
2	2695	1275.320265229073	1
2	2697	1275.768952191672	2
2	2698	1276.099218992527	1
2	2701	1277.151459551334	0
2	2710	1279.464889918798	1
2	2711	1279.546522990083	0
2	2715	1279.820503344818	1
2	2716	1280.708868443155	0
2	2720	1281.189242951013	1
2	2721	1281.668318247357	0
2	2745	1304.091300913495	1
2	2746	1304.174097729368	0
2	2750	1305.153595279134	1
2	2751	1305.201253712723	0
2	2800	1342.047447382626	1
2	2801	1342.776282817376	0
2	2815	1347.569064112829	1
2	2817	1347.860883953272	2
2	2819	1348.039900229506	3
2	2820	1348.386681740595	2
2	2824	1348.464187067736	3
2	2826	1349.161033103224	4
2	2827	1349.392994103072	3
2	2831	1350.153775183006	4
2	2833	1350.185855768355	5
2	2834	1350.215367479393	4
2	2837	1351.093011463763	3
2	2840	1352.064653004104	2
2	2844	1352.183876687427	3
2	2845	1353.079139219554	2
2	2848	1354.034249653438	1
2	2852	1354.115886926503	2
2	2853	1355.227558413012	1
2	2857	1355.457912572363	2
2	2858	1356.423566524828	1
2	2861	1357.357035232758	0
2	2870	1359.390216110843	1
2	2871	1359.989934417833	0
2	2900	1385.655814103746	1
2	2901	1386.341991854157	0
2	2915	1389.78612572799	1
2	2916	1390.344198753705	0
2	2975	1433.379781193904	1
2	2976	1434.429914844894	0
2	2980	1434.825469665202	1
2	2981	1435.255914275647	0
2	3000	1448.043394322404	1
2	3002	1448.36315671237	2
2	3003	1449.045744717362	1
2	3006	1450.12344917558	0
2	3010	1450.439561717546	1
2	3011	1451.191728043611	0
2	3020	1454.901576885999	1
2	3021	1455.52734910687	0
2	3045	1470.060524396056	1
2	3046	1470.810265947478	0
2	3050	1471.040221205392	1
2	3052	1471.133783660126	2
2	3053	1471.98512749576	1
2	3057	1472.32471186535	2
2	3058	1472.899075015979	1
2	3062	1472.972080113329	2
2	3064	1473.186798814812	3
2	3065	1473.985976785114	2
2	3068	1474.96654353614	1
2	3073	1475.848705942342	0
2	3077	1476.043021619106	1
2	3078	1476.851720126411	0
2	3082	1477.598442831672	1
2	3083	1477.83378761976	0
2	3095	1480.741979219832	1
2	3096	1481.180167716586	0
2	3105	1482.826694518563	1
2	3107	1483.044536394822	2
2	3108	1483.713890941717	1
2	3115	1484.631692414914	0
2	3124	1486.095187909885	1
2	3125	1486.291187147328	0
2	3134	1487.619319560591	1
2	3135	1488.031687886545	0
2	3270	1580.811658291362	1
2	3271	1580.898559161626	0
2	3335	1663.017511654624	1
2	3336	1663.842370027839	0
2	3345	1667.857554535943	1
2	3346	1668.015651696247	0
2	3367	1674.721100906113	1
2	3368	1675.464915743906	0
2	3375	1676.906185035645	1
2	3376	1677.470290825393	0
2	3385	1678.755556755246	1
2	3386	1679.410601583653	0
2	3405	1692.444219215897	1
2	3406	1692.704486671589	0
2	3412	1693.475645581788	1
2	3413	1693.789837077479	0
2	3420	1694.95119518299	1
2	3421	1695.848256336837	0
2	3465	1733.309642347757	1
2	3466	1734.332282583697	0
2	3505	1761.868786290232	1
2	3507	1762.044688773033	2
2	3508	1762.724219630658	1
2	3511	1763.847939183097	0
2	3520	1765.219927431627	1
2	3521	1765.816098996531	0
2	3530	1766.709426215841	1
2	3531	1767.822662493605	0
2	3600	1851.930556540406	1
2	3601	1852.342008914557	0
2	3695	1899.778791111002	1
2	3696	1899.832926592675	0
2	3705	1904.665891661674	1
2	3706	1904.9175651881	0
2	3735	1917.694165431679	1
2	3736	1917.85656264483	0
2	3750	1925.183365440085	1
2	3751	1925.816018900103	0
2	3792	1937.88002847007	1
2	3793	1938.113540313762	0
2	3805	1940.199369511044	1
2	3808	1940.943872992411	0
2	3812	1941.067236036766	1
2	3813	1941.804841239281	0
2	3880	2007.436313086257	1
2	3882	2007.676832509815	2
2	3883	2008.042262345033	1
2	3887	2008.408042749425	2
2	3888	2008.928726793492	1
2	3893	2009.997119296009	0
2	3910	2015.865331106329	1
2	3911	2016.121901114473	0
2	3935	2030.722552266533	1
2	3936	2031.388145467842	0
2	3955	2036.915125701365	1
2	3956	2037.653485485543	0
2	4055	2131.410785936984	1
2	4056	2131.416306287932	0
2	4062	2131.939666251561	1
2	4063	2132.354798902428	0
2	4070	2134.137718885263	1
2	4071	2134.573810409611	0
2	4075	2135.257636668755	1
2	4077	2135.326821608527	2
2	4078	2135.38768862574	1
2	4083	2136.453253013684	0
2	4087	2137.023841954715	1
2	4088	2137.283813106591	0
2	4125	2159.534358906546	1
2	4128	2159.956440764451	0
2	4132	2160.870335271787	1
2	4133	2161.037959495624	0
2	4137	2161.235002662256	1
2	4138	2162.194304120326	0
2	4155	2167.872046260126	1
2	4156	2167.987536186994	0
2	4160	2168.761610373929	1
2	4161	2168.865641805147	0
2	4170	2170.539336275631	1
2	4171	2170.776782271814	0
2	4180	2171.98314075251	1
2	4182	2172.713031841284	2
2	4184	2172.780699502782	3
2	4185	2172.946470247757	2
2	4188	2174.034473929078	1
2	4192	2174.483905977019	2
2	4193	2175.070935381286	1
2	4197	2175.128454844652	2
2	4198	2176.136912016094	1
2	4202	2176.386366916563	2
2	4203	2177.107313869603	1
2	4207	2177.561427505542	2
2	4208	2177.950087067753	1
2	4211	2178.920240606356	0
2	4215	2179.011065422204	1
2	4216	2180.072541294142	0
2	4220	2180.238228821322	1
2	4221	2180.919129797898	0
2	4225	2182.050795380629	1
2	4226	2182.066777595866	0
2	4310	2210.467483757779	1
2	4312	2210.578357565651	2
2	4313	2211.209725081107	1
2	4316	2212.224801936305	0
2	4345	2221.385184380628	1
2	4346	2221.670831329313	0
2	4355	2223.008003765775	1
2	4356	2223.852350035798	0
2	4375	2248.008636356948	1
2	4376	2248.640374760724	0
2	4405	2269.82329992261	1
2	4406	2269.965364193217	0
2	4420	2273.750302329063	1
2	4421	2274.63639716424	0
2	4457	2283.80416719652	1
2	4460	2284.634665538948	0
2	4474	2287.300662215941	1
2	4475	2287.311400678772	0
2	4515	2312.65233840617	1
2	4517	2312.980755793651	2
2	4518	2313.278885933086	1
2	4522	2313.603546550428	2
2	4523	2314.208885881193	1
2	4526	2315.40324581366	0
2	4530	2316.510592481699	1
2	4531	2316.583358555827	0
2	4535	2317.210130815359	1
2	4536	2317.658855142425	0
2	4540	2318.631369908446	1
2	4541	2318.640618919655	0
2	4545	2318.788047440439	1
2	4546	2319.442496063727	0
2	4552	2320.004989181204	1
2	4553	2320.575922141391	0
2	4562	2322.419891517243	1
2	4563	2322.485102307032	0
2	4595	2343.324472167658	1
2	4596	2344.090828551516	0
2	4605	2348.013758017144	1
2	4606	2348.21086140276	0
2	4612	2348.774362673049	1
2	4615	2349.242628166835	0
2	4695	2387.825829417356	1
2	4697	2388.544087967273	2
2	4698	2388.562247762831	1
2	4701	2389.455357693883	0
2	4735	2401.168414112499	1
2	4736	2401.277114941494	0
2	4775	2414.586752856188	1
2	4776	2415.464928298918	0
2	4790	2418.599236905125	1
2	4791	2418.94087887489	0
2	4805	2423.292538225203	1
2	4807	2423.640621886669	2
2	4808	2424.167057709311	1
2	4811	2425.204006629166	0
2	4822	2426.819005251718	1
2	4823	2427.309841052332	0
2	4830	2428.399419435127	1
2	4831	2429.228971104679	0
2	4850	2437.57007129532	1
2	4852	2437.80629093559	2
2	4853	2438.266327444498	1
2	4858	2439.196995100506	0
2	4862	2439.851344803392	1
2	4863	2440.324475714598	0
2	4867	2440.661182853936	1
2	4868	2441.172855354972	0
2	4872	2441.294611391717	1
2	4873	2442.098361219313	0
2	4880	2444.112695406862	1
2	4881	2444.32154210148	0
2	4895	2446.594645301317	1
2	4897	2446.862093276845	2
2	4900	2447.710724689341	1
2	4903	2448.901717359382	0
2	4922	2454.546755590447	1
2	4923	2455.148549776398	0
2	4927	2455.318275731351	1
2	4930	2456.041345112831	0
2	4937	2457.417638517537	1
2	4939	2457.445093982478	2
2	4942	2458.2343281089	1
2	4945	2459.406854521357	0
2	4965	2464.798816866825	1
2	4966	2465.229055129993	0
2	4975	2466.563998751899	1
2	4976	2467.243730229861	0
2	5020	2487.289765197214	1
2	5021	2488.215636080608	0
2	5030	2489.887702942136	1
2	5031	2490.103426460282	0
2	5045	2494.225304311532	1
2	5046	2494.664577211212	0
2	5110	2531.948843411903	1
2	5111	2532.830539150633	0
2	5190	2596.89129409001	1
2	5191	2597.201667866906	0
2	5205	2601.007709713248	1
2	5206	2601.145554126573	0
2	5215	2602.571195932509	1
2	5216	2603.498611651311	0
2	5245	2613.830949469788	1
2	5246	2614.137451488064	0
2	5250	2614.319648105654	1
2	5251	2615.172376947296	0
2	5255	2615.607783181541	1
2	5256	2616.318902330012	0
2	5300	2645.285054923625	1
2	5301	2646.313414954432	0
2	5325	2660.639181706224	1
2	5326	2661.474109214602	0
2	5332	2662.242325985726	1
2	5333	2662.645041089376	0
2	5337	2662.825372132361	1
2	5339	2662.928238871107	2
2	5340	2663.588069847563	1
2	5344	2664.579340008532	2
2	5345	2664.777218975184	1
2	5349	2665.095666235902	2
2	5350	2665.804358465095	1
2	5353	2666.639004833122	0
2	5357	2667.225125885155	1
2	5358	2667.807736479175	0
2	5392	2683.726531397867	1
2	5395	2684.349706413465	0
2	5402	2685.892116238329	1
2	5403	2686.057065055201	0
2	5440	2705.089685234071	1
2	5441	2705.967558320267	0
2	5470	2724.665780972008	1
2	5471	2725.214305131553	0
2	5480	2726.773393232395	1
2	5481	2727.163902086528	0
2	5490	2728.347820599168	1
2	5491	2729.021368612578	0
2	5497	2729.475780987019	1
2	5498	2729.82486448404	0
2	5504	2729.993679941317	1
2	5506	2730.595259924295	2
2	5507	2730.864097681312	1
2	5511	2731.041309365121	2
2	5513	2731.63048165365	3
2	5514	2731.734405586446	2
2	5520	2732.052668387948	3
2	5521	2732.741740976224	2
2	5524	2733.89280806691	1
2	5527	2734.825583029488	0
2	5531	2735.16146372219	1
2	5533	2735.540518126572	2
2	5534	2735.850995567018	1
2	5537	2737.017001232175	0
2	5590	2761.323781008846	1
2	5591	2762.08981071568	0
2	5600	2764.202717003381	1
2	5601	2764.315646149748	0
2	5615	2771.606251167356	1
2	5616	2771.831855992443	0
2	5625	2773.145376017825	1
2	5626	2773.871590743621	0
2	5630	2774.099834728519	1
2	5632	2774.545606945525	2
2	5633	2774.754762478207	1
2	5637	2774.805430302599	2
2	5638	2775.694571715348	1
2	5642	2776.090046720493	2
2	5643	2776.733786642958	1
2	5647	2777.503532249219	2
2	5648	2777.640361713745	1
2	5652	2778.22504609763	2
2	5653	2778.448849584103	1
2	5656	2779.472947717399	0
2	5665	2781.541965985329	1
2	5666	2782.385510071444	0
2	5670	2782.914701563585	1
2	5671	2783.301637123416	0
2	5750	2838.452539046183	1
2	5751	2839.173412637821	0
2	5775	2849.77325901794	1
2	5776	2850.629694054415	0
2	5790	2853.397410397376	1
2	5792	2853.674133668858	2
2	5794	2853.740125467285	3
2	5795	2854.222583239429	2
2	5798	2855.282274078109	1
2	5802	2856.032525925191	2
2	5803	2856.327856593948	1
2	5806	2857.210439113896	0
2	5820	2863.314049065939	1
2	5821	2864.049207927546	0
2	5825	2864.453221855483	1
2	5826	2865.183991639482	0
2	5830	2865.803958886943	1
2	5831	2866.283291364813	0
2	5840	2870.953033084006	1
2	5841	2871.233455307391	0
2	5845	2871.618715344825	1
2	5848	2872.189093681127	0
2	5855	2873.918292807461	1
2	5856	2874.140537634753	0
2	5930	2923.12565104873	1
2	5931	2923.828452362128	0
2	5935	2924.259329906647	1
2	5937	2924.279235988265	2
2	5938	2924.855529399317	1
2	5942	2925.083721750815	2
2	5943	2925.700531223424	1
2	5946	2926.555802729454	0
2	5950	2927.299671405448	1
2	5951	2927.483055830103	0
2	5955	2928.186830871278	1
2	5956	2928.315470600509	0
2	5960	2928.965800824886	1
2	5961	2929.298520362013	0
2	5970	2930.562007544497	1
2	5972	2931.093951679583	2
2	5973	2931.489823079195	1
2	5977	2931.777507850313	2
2	5978	2932.355405692935	1
2	5981	2933.213588552821	0
2	5995	2935.992893705577	1
2	5996	2936.723734175658	0
2	6032	2953.898612492817	1
2	6033	2954.174894564243	0
2	6037	2955.012655793132	1
2	6038	2955.037069227004	0
2	6045	2956.785816598885	1
2	6046	2957.175889272166	0
2	6055	2959.340631947815	1
2	6058	2960.317463304874	0
2	6155	3004.678803116255	1
2	6156	3005.622748886687	0
2	6160	3006.096763976407	1
2	6162	3006.19124166885	2
2	6163	3006.724772384004	1
2	6166	3007.615865586219	0
2	6175	3008.735907203516	1
2	6177	3009.500833512552	2
2	6178	3009.909914746742	1
2	6181	3010.962709363318	0
2	6200	3049.285921964255	1
2	6203	3049.95762521429	0
2	6250	3069.373459676611	1
2	6251	3069.879467221801	0
2	6265	3072.967398020073	1
2	6266	3073.329654195753	0
2	6280	3078.576731874367	1
2	6281	3078.884057548277	0
2	6295	3085.050859836244	1
2	6296	3085.071222465905	0
2	6325	3105.363162650481	1
2	6326	3106.179267541225	0
2	6380	3129.677654319182	1
2	6381	3129.731697282013	0
2	6420	3178.339187728183	1
2	6421	3179.131761487601	0
2	6455	3197.591931732786	1
2	6457	3198.106803036116	2
2	6460	3198.786189520955	1
2	6464	3199.307820596857	2
2	6466	3199.632392016985	3
2	6467	3199.67910756845	2
2	6470	3200.791548818759	1
2	6474	3201.098059365154	2
2	6475	3201.829628833234	1
2	6478	3203.006009973716	0
2	6495	3215.597754209776	1
2	6496	3215.707226766633	0
2	6510	3218.086027967926	1
2	6511	3218.980927213424	0
2	6567	3247.025195683762	1
2	6568	3247.703824705031	0
2	6575	3249.214115719653	1
2	6576	3249.582299228531	0
2	6610	3266.987545367572	1
2	6613	3267.647828786021	0
2	6680	3292.961425073807	1
2	6681	3293.120687677569	0
2	6685	3293.240643509758	1
2	6686	3293.943187087632	0
2	6690	3294.297076313441	1
2	6692	3294.372494591234	2
2	6693	3294.798948948874	1
2	6697	3295.676987865979	2
2	6698	3295.867449256915	1
2	6702	3296.000337540786	2
2	6703	3297.053488231401	1
2	6707	3297.478439671157	2
2	6708	3298.006871300793	1
2	6712	3298.072000815156	2
2	6713	3299.115991150259	1
2	6717	3299.597026627022	2
2	6718	3300.107486165452	1
2	6721	3301.134392682227	0
2	6730	3302.425053035347	1
2	6731	3303.037615144761	0
2	6750	3315.633197887851	1
2	6751	3316.195533116349	0
2	6760	3317.820096527417	1
2	6761	3318.577370116245	0
2	6765	3319.476451633732	1
2	6766	3319.478529995345	0
2	6775	3320.853949339448	1
2	6776	3321.464406272434	0
2	6785	3322.560746222702	1
2	6786	3323.356711117653	0
2	6790	3323.973645867339	1
2	6791	3324.501763237929	0
2	6825	3343.49634265754	1
2	6827	3343.607192603236	2
2	6828	3343.867667530976	1
2	6832	3344.121595742065	2
2	6833	3345.050651915405	1
2	6836	3345.934289391466	0
2	6915	3395.853845545625	1
2	6916	3396.623329174022	0
2	6955	3408.965378612745	1
2	6956	3410.077998143691	0
2	6960	3410.19945407065	1
2	6962	3410.56059070386	2
2	6963	3411.255431521847	1
2	6966	3412.419601053535	0
2	6970	3413.158161098333	1
2	6971	3413.519231842062	0
2	6977	3413.800495374497	1
2	6979	3414.503852490247	2
2	6980	3414.615084708551	1
2	6984	3414.643009454375	2
2	6985	3415.589230103953	1
2	6988	3416.770183147187	0
2	7085	3501.643002939783	1
2	7086	3502.590028981856	0
2	7125	3514.200145700345	1
2	7126	3514.810745331817	0
2	7130	3514.900870801682	1
2	7131	3515.853862259523	0
2	7185	3539.80630588226	1
2	7186	3540.536929978796	0
2	7190	3540.97644358211	1
2	7191	3541.454550237388	0
2	7200	3543.034604172308	1
2	7201	3543.412183045496	0
2	7210	3544.734201138674	1
2	7211	3545.628548747388	0
2	7245	3578.406378178895	1
2	7246	3578.73388342692	0
2	7252	3579.439414483467	1
2	7253	3579.789168208767	0
2	7290	3597.985913853884	1
2	7291	3598.588693949028	0
2	7330	3637.223222679036	1
2	7331	3638.019794589116	0
2	7335	3638.321289636309	1
2	7336	3639.107136210262	0
2	7340	3640.001803954085	1
2	7341	3640.063182744499	0
2	7350	3641.595851317897	1
2	7351	3641.935552609137	0
2	7400	3717.478624331914	1
2	7401	3718.381685522024	0
2	7407	3718.948347792867	1
2	7408	3719.482171392732	0
2	7412	3719.633109955133	1
2	7413	3720.633146647096	0
2	7417	3720.932415771376	1
2	7419	3721.479775362635	2
2	7420	3721.630967088335	1
2	7423	3722.587269457814	0
2	7440	3726.376699079752	1
2	7441	3726.937994320683	0
2	7455	3734.706645508428	1
2	7456	3735.108628364229	0
2	7460	3735.127384308316	1
2	7461	3736.02646099743	0
2	7500	3759.251687434742	1
2	7503	3760.154460255315	0
2	7585	3787.517668548755	1
2	7586	3787.642040834258	0
2	7625	3803.360605307918	1
2	7626	3804.163955552909	0
2	7640	3809.326440526666	1
2	7641	3809.757778023954	0
2	7680	3861.123905526145	1
2	7682	3861.179371207942	2
2	7683	3862.061914759411	1
2	7686	3863.155966852887	0
2	7695	3865.061965035244	1
2	7696	3865.302130376956	0
2	7700	3865.798641043522	1
2	7701	3866.281310663688	0
2	7710	3870.230303685267	1
2	7711	3870.998497146023	0
2	7735	3882.936963616982	1
2	7736	3883.381119139928	0
2	7740	3883.414681263944	1
2	7741	3884.453615950483	0
2	7767	3890.710099532792	1
2	7768	3891.034064778051	0
2	7775	3892.324153777962	1
2	7777	3892.587448570827	2
2	7778	3892.832396908029	1
2	7781	3893.972017143033	0
2	7785	3894.015312726397	1
2	7786	3894.984695394355	0
2	7790	3895.408211356912	1
2	7791	3895.791746183409	0
2	7800	3897.681913114436	1
2	7801	3898.248898635968	0
2	7810	3901.405103162842	1
2	7811	3901.640531680607	0
2	7815	3902.532198056883	1
2	7816	3902.68751648894	0
2	7835	3907.128046649626	1
2	7837	3907.428428467407	2
2	7838	3907.525799258813	1
2	7841	3908.468074129071	0
2	7850	3909.769605345243	1
2	7851	3910.68626101093	0
2	7905	3951.417478398754	1
2	7906	3951.635591469363	0
2	7915	3953.599303102012	1
2	7916	3954.085108175019	0
2	7920	3954.304662429277	1
2	7921	3955.117591515074	0
2	7925	3956.004199013925	1
2	7926	3956.195543194639	0
2	7940	3960.141194921001	1
2	7941	3960.654692011641	0
2	7945	3960.854526223233	1
2	7946	3961.53935556527	0
2	7980	3971.954133674995	1
2	7981	3972.425048917144	0
2	7985	3973.189113839932	1
2	7986	3973.599516084123	0
2	8030	4004.871923240602	1
2	8031	4005.624742529767	0
2	8090	4038.145785010807	1
2	8091	4038.662786883513	0
2	8160	4092.864646808216	1
2	8161	4093.306473292305	0
2	8180	4120.014721857163	1
2	8181	4120.768059414753	0
2	8185	4121.108740963274	1
2	8186	4121.579886309744	0
2	8205	4136.252937776733	1
2	8206	4136.976420297815	0
2	8215	4138.182419784107	1
2	8216	4138.774504005878	0
2	8310	4182.141070450732	1
2	8311	4183.149792607834	0
2	8345	4219.053159977631	1
2	8346	4219.559032489486	0
2	8370	4252.563320066951	1
2	8371	4252.776459042203	0
2	8380	4255.139207216202	1
2	8381	4255.333666513825	0
2	8415	4269.06575377948	1
2	8416	4270.07276405361	0
2	8425	4280.554954419441	1
2	8426	4281.376338680742	0
2	8445	4287.244152461022	1
2	8446	4287.332799841159	0
2	8460	4293.844754400752	1
2	8461	4294.94003851362	0
2	8480	4301.328042158304	1
2	8481	4302.09300691814	0
2	8517	4315.020055112731	1
2	8518	4315.489843039766	0
2	8530	4317.729161657356	1
2	8531	4318.375245159578	0
2	8580	4341.732236102924	1
2	8581	4342.517863455306	0
2	8632	4364.159814183986	1
2	8633	4365.074718612072	0
2	8640	4367.354657896015	1
2	8641	4367.381179139868	0
2	8690	4399.304130225211	1
2	8691	4399.406864562492	0
2	8700	4400.725834962044	1
2	8701	4401.047126614722	0
2	8705	4401.159902121984	1
2	8706	4401.947245119652	0
2	8752	4424.096628458899	1
2	8753	4424.656477482625	0
2	8757	4424.994480474901	1
2	8758	4425.692020535943	0
2	8762	4426.320275721189	1
2	8763	4426.492280191378	0
2	8769	4427.53632363886	1
2	8770	4427.575685170953	0
2	8777	4428.531773521521	1
2	8780	4429.522821230729	0
2	8865	4470.015523423069	1
2	8866	4470.294699972257	0
2	8895	4484.535714881593	1
2	8896	4484.67579239491	0
2	8900	4485.037764145282	1
2	8901	4485.527385940362	0
2	8910	4498.416361674354	1
2	8911	4498.961367970538	0
2	8920	4500.992966647203	1
2	8923	4501.881126794897	0
2	8954	4511.368490103067	1
2	8955	4511.905113656905	0
2	9065	4555.562132494299	1
2	9066	4556.1890591848	0
2	9075	4563.439761092834	1
2	9076	4563.767038818703	0
2	9130	4582.621412133335	1
2	9131	4583.189759688312	0
2	9145	4587.820401162305	1
2	9146	4588.367189675353	0
2	9160	4602.289563352633	1
2	9161	4602.884420984601	0
2	9169	4603.265653269797	1
2	9170	4603.951486731404	0
2	9180	4606.944927735453	1
2	9181	4606.998184478832	0
2	9185	4607.398002399655	1
2	9186	4607.912440899098	0
2	9250	4638.462216102368	1
2	9251	4638.949265931275	0
2	9262	4640.324266564919	1
2	9263	4640.974934058458	0
2	9345	4684.337098910942	1
2	9346	4684.946148805785	0
2	9360	4689.069383345326	1
2	9361	4689.553451540745	0
2	9382	4695.90677704008	1
2	9383	4696.276746105142	0
2	9430	4721.567163252538	1
2	9431	4721.991341541181	0
2	9435	4722.535604743699	1
2	9436	4723.144116389411	0
2	9475	4740.692453151132	1
2	9476	4741.381067642322	0
2	9505	4770.694034578648	1
2	9506	4770.736949222742	0
2	9525	4779.303539044237	1
2	9526	4780.163592471424	0
2	9545	4789.867324261638	1
2	9546	4790.517446664982	0
2	9580	4810.43050804363	1
2	9583	4810.630537530685	0
2	9587	4811.626242857861	1
2	9588	4811.636194335109	0
2	9592	4811.713117595121	1
2	9594	4811.903057958565	2
2	9595	4812.752004404271	1
2	9598	4813.621803025806	0
2	9710	4889.820744614596	1
2	9711	4889.993154306914	0
2	9720	4891.621384685685	1
2	9721	4892.244245490015	0
2	9755	4909.508259578073	1
2	9756	4909.822217216853	0
2	9765	4911.061100395746	1
2	9766	4911.852105833449	0
2	9830	4955.835828049207	1
2	9831	4956.37121884468	0
2	9845	4961.244308552837	1
2	9846	4961.287202106705	0
2	9852	4961.937290234367	1
2	9853	4962.241471815677	0
2	9857	4962.482551725377	1
2	9859	4962.989412988897	2
2	9860	4963.409551575416	1
2	9863	4964.430693678846	0
2	9922	4996.021450285255	1
2	9923	4996.488825499045	0
2	9955	5024.757418115447	1
2	9956	5025.700866615363	0
2	9980	5031.556769112503	1
2	9981	5031.724021203042	0
2	10015	5060.650883487075	1
2	10016	5060.69688391891	0
2	10120	5214.82570481464	1
2	10121	5214.876349392236	0
2	10125	5215.353083684848	1
2	10126	5215.694564886466	0
2	10145	5220.423100562316	1
2	10146	5220.457802330719	0
2	10150	5221.063136460048	1
2	10151	5221.363381100462	0
2	10180	5244.207962861228	1
2	10181	5244.916420052953	0
2	10185	5245.31575243368	1
2	10186	5246.025982938901	0
2	10190	5246.032102949684	1
2	10191	5246.899914045733	0
2	10195	5247.197849116969	1
2	10196	5247.74445353058	0
2	10235	5259.821626158151	1
2	10236	5260.273235338013	0
2	10285	5283.114827712686	1
2	10286	5284.208056301484	0
2	10362	5318.290359686056	1
2	10363	5318.663076374209	0
2	10395	5337.472686939066	1
2	10396	5337.541671210604	0
2	10400	5338.164367872777	1
2	10401	5338.355398295058	0
2	10405	5338.384675393544	1
2	10406	5339.364846721368	0
2	10460	5362.084267255671	1
2	10461	5362.622897653047	0
2	10485	5379.563531486471	1
2	10486	5380.379699739985	0
2	10490	5380.525635055736	1
2	10491	5381.404056055642	0
2	10495	5381.575290023038	1
2	10496	5382.537583361364	0
2	10550	5435.257352140001	1
2	10551	5435.971509276054	0
2	10555	5436.731064521237	1
2	10556	5437.087209518536	0
2	10575	5442.160401602726	1
2	10577	5442.38388780493	2
2	10578	5442.536198080967	1
2	10581	5443.586742952916	0
2	10600	5450.433789827589	1
2	10601	5450.829129035219	0
2	10610	5451.874437719182	1
2	10611	5452.812866949949	0
2	10657	5490.832906246666	1
2	10658	5491.051228755272	0
2	10705	5532.137313004629	1
2	10706	5532.291955318088	0
2	10715	5534.226197548494	1
2	10716	5535.095137214753	0
2	10781	5563.520822291618	1
2	10784	5563.886829868969	0
2	10840	5581.027201634217	1
2	10841	5582.171346083507	0
2	10850	5583.81640980349	1
2	10851	5584.244008950775	0
2	10865	5587.221283615631	1
2	10866	5588.248655337705	0
2	10892	5593.332789186597	1
2	10893	5593.568518806761	0
2	10900	5595.337247293992	1
2	10901	5595.693298836844	0
2	10905	5596.599585673201	1
2	10906	5596.771323680179	0
2	11025	5683.114472518113	1
2	11026	5684.183289479067	0
2	11065	5708.773646575883	1
2	11068	5709.515164515616	0
2	11075	5710.668920755804	1
2	11077	5711.031594349374	2
2	11078	5711.454606802536	1
2	11082	5712.100314653146	2
2	11083	5712.626557034308	1
2	11087	5712.753628047332	2
2	11088	5713.428836020322	1
2	11091	5714.374102072378	0
2	11100	5715.681206745526	1
2	11101	5716.51059938626	0
2	11110	5717.75290800968	1
2	11111	5718.553293912239	0
2	11165	5738.253024268695	1
2	11166	5738.561141944076	0
2	11195	5745.210299480546	1
2	11196	5745.962817279715	0
2	11205	5747.41615699929	1
2	11206	5748.248226961773	0
2	11235	5762.167186100448	1
2	11236	5762.835557384395	0
2	11250	5775.92163236461	1
2	11251	5776.666893986061	0
2	11265	5783.119008532084	1
2	11266	5783.412135644386	0
2	11285	5789.273005989884	1
2	11286	5790.031547557902	0
2	11290	5790.308354806466	1
2	11291	5790.884775257823	0
2	11295	5791.113892660072	1
2	11296	5791.940315376748	0
2	11300	5792.372668556941	1
2	11301	5792.811911156182	0
2	11305	5792.828826430512	1
2	11306	5793.761432015118	0
2	11315	5795.353846476487	1
2	11316	5796.339387194501	0
2	11360	5816.665382202112	1
2	11361	5817.039368930772	0
2	11365	5817.121098270392	1
2	11366	5818.208582575746	0
2	11375	5820.118552526751	1
2	11376	5820.29998017075	0
2	11390	5824.42921425733	1
2	11391	5824.609443962203	0
2	11407	5827.910169836914	1
2	11408	5828.109272083182	0
2	11435	5841.357337014071	1
2	11436	5842.318633354287	0
2	11455	5854.152329977109	1
2	11456	5854.969310617417	0
2	11460	5855.251578102082	1
2	11461	5855.813709677353	0
2	11465	5856.718716907885	1
2	11466	5856.874167038936	0
2	11470	5857.028506367526	1
2	11471	5857.676457076024	0
2	11475	5858.353932477104	1
2	11476	5858.779115232981	0
2	11517	5874.879476201459	1
2	11518	5875.540925173928	0
2	11535	5878.917872188963	1
2	11536	5879.993282702577	0
2	11540	5880.355005484577	1
2	11541	5881.112735769164	0
2	11595	5908.474787209695	1
2	11598	5908.603983560639	0
2	11602	5908.781338229645	1
2	11603	5909.75661449094	0
2	11635	5918.004484316683	1
2	11636	5918.644427552274	0
2	11665	5926.78342999828	1
2	11666	5927.56136699488	0
2	11675	5930.474268044305	1
2	11676	5930.949583910586	0
2	11680	5931.381360045763	1
2	11681	5932.118524581467	0
2	11690	5933.545025980804	1
2	11692	5933.915057170324	2
2	11693	5933.941973515594	1
2	11696	5934.919920275727	0
2	11705	5937.656381607386	1
2	11706	5938.549452701102	0
2	11710	5938.846838720319	1
2	11711	5939.537018965541	0
2	11719	5940.370355376391	1
2	11720	5940.549781662768	0
2	11745	5949.787495427865	1
2	11746	5950.437704167811	0
2	11750	5951.030831553149	1
2	11751	5951.411509850917	0
2	11840	5998.96912312389	1
2	11841	5999.698032465777	0
2	11850	6001.868618960396	1
2	11851	6002.03055576106	0
2	11865	6011.904583364466	1
2	11866	6012.29064181927	0
2	11870	6012.520732501096	1
2	11871	6013.136549783921	0
2	11880	6016.24615776584	1
2	11881	6017.149166412938	0
2	11890	6018.874592204253	1
2	11891	6019.27571405946	0
2	11980	6049.111044242132	1
2	11981	6049.646949008488	0
2	11985	6049.844162869931	1
2	11986	6050.795316953034	0
2	11990	6050.844231290328	1
2	11991	6051.879408304402	0
2	12000	6053.050646105631	1
2	12002	6053.516762443892	2
2	12003	6053.966392826095	1
2	12010	6054.859879964676	0
2	12017	6056.976019342807	1
2	12018	6057.022301951509	0
2	12050	6064.912916032432	1
2	12051	6064.913597528309	0
2	12115	6123.625836694176	1
2	12116	6123.934507915132	0
2	12145	6135.11560339859	1
2	12146	6135.978431630653	0
2	12175	6142.5651454639	1
2	12177	6142.571713161823	2
2	12178	6142.757383716222	1
2	12181	6143.63023353659	0
2	12185	6143.737905738347	1
2	12187	6143.738160206145	2
2	12188	6144.829430456482	1
2	12192	6145.228731479027	2
2	12193	6145.7877482909	1
2	12196	6146.743146300431	0
2	12220	6155.723171024536	1
2	12221	6156.046340157013	0
2	12270	6180.165352769205	1
2	12271	6181.141962949663	0
2	12275	6181.502565829331	1
2	12276	6182.176664760254	0
2	12280	6182.531022881071	1
2	12281	6183.318602412112	0
2	12290	6184.636919217682	1
2	12291	6185.599894745727	0
2	12297	6186.696661448066	1
2	12298	6186.758096795888	0
2	12304	6187.244419350453	1
2	12305	6187.753059814112	0
2	12314	6189.627126739037	1
2	12315	6189.873180509159	0
2	12410	6262.551563565718	1
2	12411	6262.869976712394	0
2	12425	6266.435819240915	1
2	12426	6266.946679388786	0
2	12430	6267.046316785796	1
2	12431	6268.025822431555	0
2	12435	6268.418881198869	1
2	12436	6269.2163851732	0
2	12440	6269.524509543671	1
2	12442	6270.10839714674	2
2	12443	6270.153274746107	1
2	12447	6270.294805595825	2
2	12448	6271.040706131941	1
2	12451	6271.970514955147	0
2	12495	6304.686733620086	1
2	12496	6305.117341134216	0
2	12500	6305.383452606647	1
2	12504	6305.816047666896	2
2	12505	6306.133380896117	1
2	12509	6306.162434764011	2
2	12510	6307.329983139581	1
2	12514	6307.560683836951	2
2	12515	6308.485866102281	1
2	12518	6309.566236613116	0
2	12555	6322.796885278418	1
2	12556	6323.351540621188	0
2	12565	6324.76992052386	1
2	12566	6325.633347390782	0
2	12575	6326.84089825829	1
2	12577	6327.214317522027	2
2	12580	6327.689485037983	1
2	12583	6328.526655579269	0
2	12587	6329.31581805807	1
2	12588	6329.426240799394	0
2	12595	6330.749147392988	1
2	12596	6331.590465389382	0
2	12615	6347.5915883625	1
2	12616	6348.483593725447	0
2	12685	6391.565520359805	1
2	12686	6391.793503432224	0
2	12695	6395.637848598347	1
2	12696	6396.353531305683	0
2	12730	6411.260358042711	1
2	12731	6411.732473945782	0
2	12830	6451.81968812652	1
2	12831	6452.386411093296	0
2	12860	6459.487108014414	1
2	12862	6460.064570462185	2
2	12863	6460.331351854285	1
2	12866	6461.497655087529	0
2	12870	6461.540873203876	1
2	12872	6462.240949880827	2
2	12873	6462.638106544508	1
2	12877	6462.947054785693	2
2	12878	6463.545179531543	1
2	12881	6464.498666066962	0
2	12895	6466.660950702948	1
2	12896	6467.522376777921	0
2	12910	6472.174577400364	1
2	12911	6472.836549363601	0
2	12940	6502.142368458141	1
2	12941	6502.602114444538	0
2	13025	6546.7855326295	1
2	13026	6546.914725003378	0
2	13035	6557.108466156986	1
2	13036	6557.574628379589	0
2	13050	6562.565408033806	1
2	13051	6562.778429740682	0
2	13070	6567.574140043604	1
2	13071	6567.589190562075	0
2	13075	6568.311763713903	1
2	13076	6568.71732570604	0
2	13080	6568.808025776357	1
2	13081	6569.683501556614	0
2	13085	6569.890110282872	1
2	13086	6570.710820242581	0
2	13125	6604.0064115261	1
2	13126	6604.663217647341	0
2	13150	6613.610581373415	1
2	13151	6614.059110409155	0
2	13185	6626.325424554005	1
2	13186	6626.954322601499	0
2	13195	6629.952293275117	1
2	13197	6630.39913611273	2
2	13198	6631.05930271374	1
2	13201	6631.9010374807	0
2	13205	6631.929809484337	1
2	13207	6632.735270982158	2
2	13208	6633.0965048494	1
2	13211	6633.977916260361	0
2	13230	6638.421064424118	1
2	13232	6638.493526151526	2
2	13233	6638.983017563045	1
2	13237	6639.497573271241	2
2	13238	6639.873563826147	1
2	13242	6640.175983445188	2
2	13243	6640.699218040116	1
2	13247	6641.317266246131	2
2	13248	6641.513741772033	1
2	13252	6642.119666838929	2
2	13255	6642.663061366573	1
2	13258	6643.569039615866	0
2	13262	6643.74062767588	1
2	13264	6644.315264916864	2
2	13265	6644.689815314643	1
2	13268	6645.615272053488	0
2	13300	6684.211612131435	1
2	13301	6684.29596815946	0
2	13435	6759.882809674877	1
2	13436	6760.623957122691	0
2	13449	6761.988003256429	1
2	13450	6762.864168857519	0
2	13505	6792.276516881934	1
2	13506	6792.773563737235	0
2	13512	6793.251910817357	1
2	13513	6793.756686978227	0
2	13517	6794.376959656015	1
2	13518	6794.583191288447	0
2	13522	6795.280845022964	1
2	13523	6795.582173742911	0
2	13530	6797.092651456231	1
2	13531	6797.539464176445	0
2	13555	6811.142179964776	1
2	13556	6811.433462427649	0
2	13660	6898.278434182554	1
2	13661	6898.757814482636	0
2	13675	6902.678738568711	1
2	13678	6903.607548369526	0
2	13697	6907.343965135283	1
2	13700	6907.938335199651	0
2	13706	6908.016543644796	1
2	13707	6908.772359307573	0
2	13711	6909.634182961735	1
2	13712	6909.696734148075	0
2	13740	6916.44382795161	1
2	13741	6917.304927659212	0
2	13870	7000.819280473649	1
2	13871	7001.435678826577	0
2	13892	7008.176498870382	1
2	13893	7008.860293859221	0
2	13897	7009.306789399535	1
2	13898	7010.025472007483	0
2	13905	7011.74366039853	1
2	13906	7011.941287992592	0
2	13935	7037.616645534959	1
2	13937	7038.144492755666	2
2	13940	7038.435902425376	1
2	13943	7039.445280476202	0
2	13950	7040.838916484413	1
2	13951	7041.618114655194	0
2	13957	7042.184566378641	1
2	13958	7042.769804461216	0
2	13965	7043.959257242539	1
2	13966	7044.81174586621	0
2	13975	7046.66595241435	1
2	13976	7047.366060514402	0
2	13985	7050.518426429478	1
2	13986	7051.221624662788	0
2	14015	7069.292229671718	1
2	14017	7069.356864900676	2
2	14018	7069.807606186737	1
2	14021	7070.617146451045	0
2	14025	7071.369391414983	1
2	14026	7071.443701483235	0
2	14040	7074.638891540432	1
2	14041	7075.450015694783	0
2	14045	7075.671551813364	1
2	14046	7076.558084535268	0
2	14060	7079.9240555264	1
2	14061	7080.023599138403	0
2	14075	7082.852791608497	1
2	14076	7083.432128446411	0
2	14080	7083.474516129573	1
2	14081	7084.379980739534	0
2	14140	7114.250221436222	1
2	14141	7115.15314871346	0
2	14147	7115.314284310262	1
2	14148	7116.041785946147	0
2	14152	7116.072467217618	1
2	14153	7116.920890528554	0
2	14157	7117.38229245176	1
2	14158	7117.891527162431	0
2	14165	7119.444465326064	1
2	14166	7120.040366539949	0
2	14170	7120.189350224274	1
2	14171	7121.044301105229	0
2	14185	7126.49059985179	1
2	14186	7127.008744286215	0
2	14230	7157.086711157279	1
2	14231	7157.265953258314	0
2	14245	7162.96846176974	1
2	14246	7163.106935126633	0
2	14287	7189.199764420766	1
2	14288	7189.438804461165	0
2	14292	7189.547856350147	1
2	14294	7189.788359202625	2
2	14295	7190.322207525755	1
2	14298	7191.294029263696	0
2	14305	7192.27925265149	1
2	14306	7193.284857661566	0
2	14315	7195.312576300705	1
2	14316	7195.553012665044	0
2	14325	7197.344651552371	1
2	14326	7198.144822659097	0
2	14340	7202.177177495931	1
2	14341	7203.173268225915	0
2	14350	7206.655436273672	1
2	14351	7206.82690355191	0
2	14362	7207.994122257657	1
2	14363	7208.481953903288	0
2	14374	7210.066834224901	1
2	14375	7210.458969692421	0
2	14381	7210.541884595544	1
2	14384	7211.297132395767	0
2	14388	7211.645562743344	1
2	14390	7211.92390386506	2
2	14391	7212.137757532206	1
2	14394	7213.321791195684	0
2	14412	7217.048613197097	1
2	14413	7217.86312730778	0
2	14417	7218.503898818916	1
2	14420	7218.947898840159	0
2	14429	7220.316873337398	1
2	14430	7221.023035863694	0
2	14437	7222.754645377197	1
2	14438	7222.950278219767	0
2	14442	7223.705513550286	1
2	14443	7224.056301923189	0
2	14447	7224.098649472516	1
2	14448	7225.171919253748	0
2	14455	7226.334915406355	1
2	14456	7227.143590045534	0
2	14490	7241.490869468798	1
2	14491	7242.068057521374	0
2	14497	7242.587080832012	1
2	14499	7242.73759452547	2
2	14500	7243.035804965102	1
2	14504	7243.973972840875	2
2	14505	7243.989816410967	1
2	14508	7244.923370821529	0
2	14512	7244.964784261349	1
2	14514	7245.234979839255	2
2	14517	7245.888035820925	1
2	14520	7246.779216958803	0
2	14524	7247.31104947376	1
2	14525	7247.719105260108	0
2	14570	7270.673017716544	1
2	14571	7271.406666371743	0
2	14580	7272.70785286283	1
2	14581	7273.264300075224	0
2	14590	7274.381854505759	1
2	14591	7275.19192838646	0
2	14600	7276.706416088417	1
2	14601	7277.541104026562	0
2	14605	7277.643597368914	1
2	14608	7278.623166894498	0
2	14695	7338.472651991357	1
2	14698	7339.11919540831	0
2	14705	7340.262971121996	1
2	14708	7340.909581757273	0
2	14714	7340.961144600177	1
2	14715	7341.947044421389	0
2	14724	7343.402836390028	1
2	14725	7343.784538386139	0
2	14740	7347.079483486906	1
2	14741	7348.025341846636	0
2	14769	7353.037009012563	1
2	14770	7353.090293604256	0
2	14784	7355.351772865596	1
2	14785	7356.103491707639	0
2	14845	7394.488339689067	1
2	14846	7395.28197462428	0
2	14855	7396.734969882502	1
2	14856	7397.624336654409	0
2	14875	7403.04468125958	1
2	14876	7403.089366301756	0
2	14880	7403.323031480523	1
2	14881	7404.182802740253	0
2	14955	7453.153473003877	1
2	14956	7454.068556163037	0
2	15040	7499.769648029641	1
2	15041	7500.28027176972	0
2	15045	7501.091211979911	1
2	15046	7501.13042703209	0
2	15095	7530.805025403923	1
2	15097	7531.412773458671	2
2	15098	7531.542795886403	1
2	15102	7531.661911007182	2
2	15103	7532.537957794989	1
2	15109	7533.073756609544	2
2	15110	7533.376840553271	1
2	15114	7534.001590300687	2
2	15116	7534.124653731643	3
2	15117	7534.487075645129	2
2	15120	7535.377479322466	1
2	15123	7536.236509598165	0
2	15127	7537.288934182764	1
2	15128	7537.303380075122	0
2	15132	7537.751072605325	1
2	15133	7538.141774297065	0
2	15160	7564.574478229861	1
2	15161	7564.6326375957	0
2	15165	7564.662104290566	1
2	15166	7565.71961398389	0
2	15170	7565.999195251864	1
2	15171	7566.787364782987	0
2	15177	7567.399880634261	1
2	15178	7567.606212270109	0
2	15210	7588.867195477605	1
2	15211	7589.736606897893	0
2	15217	7590.195522438024	1
2	15218	7590.670360483336	0
2	15240	7602.906734161604	1
2	15241	7603.496369651765	0
2	15245	7603.882261505922	1
2	15246	7604.402905757133	0
2	15250	7604.448292102349	1
2	15251	7605.602185667086	0
2	15255	7605.984236517322	1
2	15258	7606.636599129591	0
2	15262	7607.104833154759	1
2	15263	7607.812246153936	0
2	15270	7608.740139821714	1
2	15272	7609.412974211107	2
2	15273	7609.760787013233	1
2	15276	7610.730840356428	0
2	15290	7613.98015330956	1
2	15291	7614.495165502478	0
2	15300	7616.101127556723	1
2	15301	7616.570959798748	0
2	15305	7617.151371864286	1
2	15306	7617.524436612649	0
2	15430	7733.788433623265	1
2	15431	7734.583732092164	0
2	15440	7741.723979446185	1
2	15441	7742.024597998474	0
2	15447	7742.568711577187	1
2	15448	7743.200576936498	0
2	15452	7743.762835745296	1
2	15453	7744.208065025367	0
2	15475	7758.009515489585	1
2	15476	7758.807730760246	0
2	15510	7798.492894864298	1
2	15511	7798.821573918935	0
2	15520	7800.014537094041	1
2	15522	7800.145041791043	2
2	15523	7800.734176073287	1
2	15528	7801.634119669039	0
2	15532	7801.864508451988	1
2	15533	7802.656240284786	0
2	15537	7803.242824684447	1
2	15538	7803.754143962793	0
2	15542	7804.56944123309	1
2	15543	7804.772572561696	0
2	15547	7804.805675942145	1
2	15548	7805.970311465084	0
2	15560	7808.461514555325	1
2	15561	7809.387988331014	0
2	15605	7827.644545462532	1
2	15606	7828.537914686363	0
2	15620	7831.820337492831	1
2	15621	7832.759121679838	0
2	15640	7842.831281128188	1
2	15642	7843.341950571089	2
2	15643	7843.644608485032	1
2	15647	7844.283179776184	2
2	15648	7844.678894184981	1
2	15651	7845.580421933238	0
2	15655	7845.74615112874	1
2	15657	7846.066822919818	2
2	15658	7846.419334197403	1
2	15661	7847.564659322877	0
2	15695	7872.915011095455	1
2	15696	7873.47270618743	0
2	15705	7874.549149180458	1
2	15706	7875.520120915312	0
2	15765	7912.055223739989	1
2	15766	7912.401251702114	0
2	15785	7954.410602270281	1
2	15786	7954.446089847644	0
2	15805	7959.813229669471	1
2	15806	7959.864032237668	0
2	15830	7969.680712021299	1
2	15831	7970.366232950947	0
2	15835	7970.773974147824	1
2	15836	7971.235965758431	0
2	15840	7971.330060770782	1
2	15841	7972.348122562616	0
2	15845	7973.084790406089	1
2	15846	7973.423703905064	0
2	15850	7973.790722547164	1
2	15851	7974.361342556271	0
2	15855	7975.130849542366	1
2	15856	7975.305789951011	0
2	15880	7998.72196991462	1
2	15882	7999.188436591352	2
2	15883	7999.381471435325	1
2	15886	8000.340381581494	0
2	15890	8000.376305801932	1
2	15891	8001.37851651811	0
2	15895	8001.505364245275	1
2	15896	8002.534215979529	0
2	15900	8003.439423924367	1
2	15901	8003.573387719383	0
2	15905	8003.823725510942	1
2	15907	8003.965921469462	2
2	15908	8004.486754212314	1
2	15911	8005.496245343676	0
2	15915	8006.292825803722	1
2	15917	8006.580765666581	2
2	15918	8006.60014837428	1
2	15922	8007.461364478607	2
2	15923	8007.469907638868	1
2	15927	8007.901979364264	2
2	15928	8008.621700993152	1
2	15934	8009.740034479947	2
2	15935	8009.807837382117	1
2	15938	8010.727278249589	0
2	15945	8012.255999047994	1
2	15946	8013.091440461733	0
2	15975	8024.593906558649	1
2	15976	8025.029823181737	0
2	15985	8027.015534533677	1
2	15986	8027.749432719277	0
2	15997	8029.160095031953	1
2	15999	8029.434460770855	2
2	16000	8029.642951064242	1
2	16004	8029.90475291524	2
2	16007	8030.797789670119	1
2	16010	8031.66685900191	0
2	16014	8032.061212379027	1
2	16016	8032.733620901897	2
2	16017	8032.812512947676	1
2	16021	8033.503064272214	2
2	16022	8033.660833683294	1
2	16025	8034.515898710173	0
2	16065	8052.194940675002	1
2	16066	8052.979790028821	0
2	16090	8059.455096858123	1
2	16091	8060.411899832387	0
2	16190	8097.621132736022	1
2	16195	8098.640899840953	0
2	16240	8146.811978333182	1
2	16241	8146.822008972661	0
2	16255	8150.597106034593	1
2	16256	8150.816480230021	0
2	16290	8198.993388920918	1
2	16293	8199.349301518423	0
2	16345	8229.766192863025	1
2	16346	8230.621070594765	0
2	16360	8232.888182379307	1
2	16361	8233.531842009123	0
2	16400	8242.259791045852	1
2	16405	8242.837695257402	0
2	16415	8245.238222347574	1
2	16416	8246.077732846736	0
2	16475	8282.527496138753	1
2	16478	8283.49732722601	0
2	16485	8284.588989562462	1
2	16486	8285.287674084567	0
2	16490	8285.496532026294	1
2	16491	8286.089855237287	0
2	16502	8288.227690714214	1
2	16503	8288.423172617412	0
2	16507	8288.48463679222	1
2	16510	8289.442892612132	0
2	16514	8289.846696883113	1
2	16515	8290.579459223884	0
2	16575	8309.530871677315	1
2	16576	8309.884534425753	0
2	16585	8311.64713689004	1
2	16588	8311.8160006457	0
2	16600	8314.379924564649	1
2	16601	8314.886649876646	0
2	16612	8316.337140292754	1
2	16613	8317.040048239286	0
2	16627	8319.152671950553	1
2	16630	8320.265495205204	0
2	16642	8322.209866965082	1
2	16644	8322.681539893439	2
2	16645	8322.853342356811	1
2	16650	8323.76112509882	0
2	16654	8324.831441600356	1
2	16655	8324.903391666896	0
2	16664	8325.845590756289	1
2	16666	8326.039360437435	2
2	16667	8326.722813228983	1
2	16670	8327.832008266262	0
2	16674	8328.293277802763	1
2	16675	8328.840735702402	0
2	16685	8330.808441092983	1
2	16689	8331.421596613679	2
2	16690	8331.531169595755	1
2	16693	8332.656154790334	0
2	16697	8332.7283474455	1
2	16698	8333.729065710306	0
2	16702	8334.298767887404	1
2	16703	8334.646934130322	0
2	16710	8335.757617757139	1
2	16711	8336.532216693926	0
2	16715	8336.586366004582	1
2	16716	8337.703820205759	0
2	16722	8338.658812643846	1
2	16723	8338.854340948071	0
2	16750	8350.162361035365	1
2	16751	8351.12829329636	0
2	16765	8353.813868023372	1
2	16767	8353.991379138346	2
2	16769	8354.450517625686	3
2	16770	8354.58494250636	2
2	16773	8355.564679325292	1
2	16777	8356.572048383142	2
2	16778	8356.744279235801	1
2	16782	8356.934689537107	2
2	16784	8357.25008501583	3
2	16786	8357.405396189674	4
[...]
6	49575	24230.885875325584	0.843041406199
6	49702	24275.006531028087	2.13516429564
6	49730	24283.757895294668	2.041801389289
6	49764	24318.065666058624	1.177801693976
6	49857	24337.128491389121	4.666288562776
6	49872	24345.672114187349	1.194954869617
6	49885	24351.346654082679	3.025901493939
6	49890	24365.182220195561	0.981933342479
6	49940	24385.795606223141	5.288923989237
6	50047	24451.505407626141	1.228388485327
6	50062	24457.345557341161	25.672696386457
6	50077	24461.817878224952	1.49005110764
6	50097	24468.29883481368	1.153636596072
6	50110	24473.813806544853	1.039519740548
6	50115	24475.151059625365	4.087985753883
6	50120	24477.150032077395	1.115761511959
6	50139	24483.615684393358	1.830795627408
6	50147	24485.40832403091	3.547402075466
6	50214	24498.503136030923	14.406755041109
6	50237	24503.635840182624	6.210947127514
6	50272	24511.387203718937	15.907249038916
6	50300	24527.652553832592	0.978620480467
6	50320	24538.693157613122	1.374963715857
6	50335	24556.333383854578	2.06419826666
6	50365	24572.116278178187	4.458679540108
6	50387	24577.581692474571	3.752400206385
6	50395	24579.405387987683	11.221597431468
6	50410	24588.324640349118	2.732759161759
6	50415	24589.468200655524	3.368715577839
6	50420	24592.625310069793	0.948229958862
6	50455	24620.955880773171	10.713219332993
6	50460	24629.722438928443	0.966220352054
6	50480	24634.971336759176	4.128871720077
6	50520	24646.2971227345	15.723371609233
6	50542	24653.057441968045	3.098848052161
6	50562	24657.766995297286	3.187352000084
6	50602	24676.318586970401	1.101043630764
6	50635	24686.950222526351	14.816209177506
6	50660	24704.883123853552	1.553197831074
6	50672	24711.223457777817	1.19221544453
6	50675	24712.272468974665	3.13554847287
6	50692	24718.714554313229	4.21316630385
6	50710	24731.46927237135	2.155249654815
6	50730	24736.717619146969	2.517388729583
6	50815	24761.506127145942	0.806111116242
6	50825	24765.059940856226	10.479494872652
6	50830	24786.719886569363	1.023677928466
6	50885	24826.196747257829	0.841625256184
6	50922	24835.727572557297	1.622232225646
6	50930	24849.097145097862	1.091064482834
6	50947	24855.091307602917	1.007607172616
6	50955	24857.612891101514	7.227902772751
6	50972	24861.119129591108	1.443048390605
6	51007	24871.733922706696	4.589544004187
6	51025	24877.944060090345	19.980874532177
6	51060	24896.019746787624	16.947268063085
6	51065	24897.114700188278	0.942734369356
6	51070	24911.222010138169	0.893950422294
6	51115	24938.089388873279	7.362615660626
6	51162	24952.976686683334	0.95499083465
6	51165	24953.913941342514	15.65086103162
6	51180	24961.568816344258	2.944795394153
6	51190	24983.207177927891	1.039846420009
6	51200	24993.270958141364	0.827762750071
6	51230	25006.476466404127	0.821560303867
6	51300	25036.69628596852	16.89119340377
6	51332	25062.997119700928	4.00802450364
6	51387	25078.161389850595	7.128788513207
6	51410	25088.211141230228	5.8968623695
6	51415	25096.627140578195	0.87845561523
6	51435	25104.05608308055	3.202478665253
6	51465	25114.91552595178	1.379770979943
6	51474	25117.239727929966	10.346282704814
6	51477	25118.10573872848	1.629696487185
6	51485	25122.438900879723	5.852779640992
6	51490	25126.450578858714	1.076069558971
6	51515	25142.050565783623	0.972969492804
6	51579	25179.843279738159	3.734062756836
6	51590	25182.679689290181	8.105078086357
6	51595	25186.177283424014	0.996129780915
6	51622	25213.019266928118	2.136083459823
6	51625	25214.023051860314	4.233695228607
6	51645	25226.10081815878	2.099738438928
6	51655	25228.429538605744	1.154068595015
6	51667	25232.485505163439	5.987661880574
6	51694	25243.745634585054	1.168114244659
6	51710	25248.286360613616	16.470305828694
6	51722	25252.666038154398	1.092393511068
6	51740	25261.198646993393	6.727299393015
6	51747	25267.359073794927	0.899370748363
6	51782	25287.59601334787	3.218778703828
6	51785	25288.719840494981	9.173297179016
6	51795	25303.252716601462	1.049083051924
6	51812	25313.504276308009	0.915049560554
6	51862	25324.47268007137	2.355265400007
6	51882	25332.986090415125	1.047537478711
6	51895	25338.398181542143	2.040673214595
6	51912	25347.282515503335	5.591257101107
6	51940	25361.750192902817	14.736850679434
6	51967	25382.311159965108	1.429636314302
6	51980	25397.853004917126	2.84367362075
6	52079	25435.569997998612	10.39472613314
6	52107	25441.873773170968	11.965832864895
6	52125	25445.661432176323	13.239930093548
6	52155	25477.445704925019	5.852378854989
6	52160	25484.439728415393	1.155413597077
6	52165	25488.085218064767	0.804129321314
6	52170	25491.237616223218	1.186717787012
6	52200	25505.529712812629	3.282688085526
6	52222	25513.65702868518	7.470908551835
6	52230	25523.946297609332	1.014031861722
6	52267	25559.002228896433	5.318775827097
6	52270	25560.045050907714	3.22272234973
6	52342	25588.04199631946	12.546893648595
6	52345	25588.885131420901	20.364861438995
6	52360	25594.957376434536	4.624123604115
6	52415	25628.416096541752	2.315413425378
6	52420	25632.017534643548	1.10103474902
6	52447	25645.169381493807	0.983506395202
6	52450	25646.251501373679	3.156672571838
6	52455	25651.638573003852	0.953612345457
6	52490	25664.748785559024	0.934095260873
6	52530	25678.329350564663	8.167650240309
6	52540	25688.392358409072	0.800475147646
6	52552	25692.837464996609	1.774493027833
6	52555	25693.899160493719	2.514809723575
6	52570	25705.661108627653	1.077290665265
6	52610	25726.583695647011	1.013670319412
6	52637	25745.892160357792	4.532670487533
6	52645	25750.069877099085	4.449203219168
6	52665	25768.339863550536	3.976755940412
6	52709	25788.7088924316	5.486025007027
6	52717	25790.673512452399	7.538284317361
6	52735	25799.945674291991	4.540227682143
6	52745	25803.129682895959	2.848902648647
6	52759	25809.830761338659	3.100324222285
6	52775	25816.550462199582	4.131383827624
6	52790	25830.878140921303	1.018339966796
6	52812	25841.709326735432	1.078308337461
6	52825	25855.977041915926	0.915992763918
6	52862	25870.970543226102	10.744275204329
6	52865	25871.771198033696	3.661277950218
6	52870	25873.478440774559	1.04543879116
6	52875	25883.338975252852	0.824778287951
6	52925	25909.750446094191	7.485522719389
6	52955	25933.055780781061	2.733964316361
6	52982	25947.801468145768	2.261810259404
6	52990	25949.749032702124	4.925689532794
6	53024	25967.427250587777	3.621490794042
6	53035	25972.304861068358	5.201354861862
6	53040	25975.588456667211	0.831313489657
6	53065	25991.031339282495	1.175831244048
6	53077	25999.638979295181	2.90090364881
6	53080	26000.676465937501	1.186870080378
6	53085	26012.445839740733	1.090090246871
6	53090	26015.499890739608	0.99307852732
6	53117	26032.378957877532	6.616370579422
6	53122	26033.488642958682	3.275452333967
6	53142	26042.119249226693	8.65251086292
6	53145	26043.02813376233	1.811737669101
6	53155	26054.421977145015	0.984396529198
6	53162	26057.39839720186	6.533068150648
6	53177	26060.906910882492	3.589127192613
6	53187	26067.77936310476	1.143396717682
6	53190	26068.966167601629	1.524848777889
6	53195	26080.930271323374	0.906139678042
6	53219	26090.922257026159	1.836138299145
6	53227	26092.930781779126	3.800678727162
6	53235	26095.802912242413	0.803041659575
6	53240	26100.516598642143	0.972511059977
6	53262	26115.114091249215	2.716062940099
6	53290	26126.17039912733	1.10651436802
6	53300	26133.045250872965	2.373136916726
6	53329	26146.758856184345	6.247470307004
6	53340	26150.343028642128	7.407377653975
6	53370	26167.499012394256	4.024975382014
6	53387	26211.115123694233	2.055739580752
6	53390	26212.048006491299	1.706545912196
6	53400	26243.564345400084	3.500645441726
6	53440	26272.493722903365	6.470080401546
6	53480	26292.28506144841	2.813200851567
6	53495	26300.618368544475	1.055119944457
6	53510	26305.560915363397	0.826296600513
6	53526	26307.696938899969	11.727667982456
6	53545	26312.91824893427	1.280918310718
6	53550	26316.819680592779	0.800676077884
6	53557	26318.604101002262	12.015170890953
6	53605	26338.796450267761	1.010189846344
6	53620	26350.394993092088	3.819196019511
6	53630	26354.500765489307	6.271550163737
6	53700	26401.655636528033	5.780133298571
6	53705	26406.066016614736	0.997465719003
6	53717	26410.245999475001	3.4816769591
6	53732	26417.377983204863	1.110695558693
6	53735	26418.563188826601	1.434576773341
6	53745	26425.832572533586	3.038859384239
6	53755	26428.875514551037	2.296604198796
6	53812	26442.848204724444	7.265169542966
6	53827	26455.455219962213	2.63669412343
6	53879	26478.691601398734	2.132857925598
6	53889	26480.790786229407	4.739699505626
6	53892	26481.913303702378	7.164385422878
6	53905	26484.815848955659	4.070274454723
6	53910	26488.025202024088	1.019045853801
6	53920	26492.633216995768	2.354993320003
6	53960	26531.499622403622	1.154152869154
6	53980	26545.370904644549	1.296526995927
6	54000	26562.037506874147	2.629184203692
6	54020	26580.150980551732	2.211698235452
6	54037	26587.515217908388	5.87508586747
6	54070	26598.770306198818	1.189757334018
6	54092	26608.734103899768	2.478462444903
6	54157	26631.562203590909	0.928058017511
6	54160	26632.427904061658	10.486710030338
6	54180	26640.416386705081	0.983739754371
6	54205	26646.272449074631	11.547601546303
6	54252	26690.159564792628	1.167455552798
6	54255	26691.131916563476	3.701763975367
6	54282	26708.772556089453	2.829840692238
6	54289	26709.867692281894	4.031583599678
6	54312	26715.019114684187	5.377824770857
6	54325	26717.957534221619	0.93597198965
6	54374	26749.110863563366	0.872207689472
6	54380	26750.920087749086	4.690399615065
6	54385	26752.24187288231	3.901884080849
6	54402	26759.500225892407	1.191598103195
6	54437	26768.430562103351	4.042348998226
6	54519	26810.5071905723	0.946300166352
6	54535	26814.864150714136	1.697811707763
6	54545	26818.734226030615	1.966874840016
6	54552	26823.073801202145	1.060165870469
6	54555	26823.992672066302	1.288512934163
6	54565	26836.925543880581	1.131438555755
6	54585	26843.437707723294	9.648704043067
6	54695	26912.301934202064	4.794041029323
6	54785	26970.44598633167	6.960177410944
6	54812	26993.634623767056	2.553312136841
6	54850	27009.41620567816	1.813097416411
6	54855	27012.025497302578	0.808365224861
6	54890	27040.862866977893	4.7631945424
6	54912	27047.711929293025	2.042101385441
6	54960	27075.13234687649	2.242837064695
6	54980	27082.173847638408	4.21015294482
6	54985	27083.345718402158	0.880833539087
6	55025	27112.119861396579	1.117669574264
6	55050	27129.993812419344	1.100432913443
6	55055	27131.217820182333	3.158104357237
6	55092	27154.969471010642	1.1732799713
6	55130	27171.65235786884	2.549187967673
6	55147	27181.738675209196	0.806072555389
6	55152	27182.801497291462	8.376974305627
6	55172	27186.919417708389	1.713235554009
6	55232	27199.218539867018	2.486664174417
6	55235	27200.221424823374	7.190943489672
6	55312	27232.911398663419	2.016414868895
6	55322	27235.398510502412	1.195571642462
6	55390	27255.982388108143	1.128616592474
6	55410	27278.057742254016	1.194441234753
6	55437	27297.61046637178	4.048700897862
6	55440	27298.567759820936	1.408863106764
6	55477	27314.015280377822	7.04449396662
6	55510	27325.162863458635	3.337068835741
6	55525	27334.648421483207	0.825937222037
6	55530	27344.776854762139	0.909596650954
6	55535	27364.298405741981	0.866133839078
6	55550	27377.679197150234	0.881452925783
6	55555	27378.995918883025	4.10648905789
6	55565	27384.026963405097	2.294549808835
6	55590	27400.978201766362	1.07410651315
6	55600	27408.379538048635	1.844907882915
6	55635	27435.107337341979	1.143136205431
6	55650	27443.737232306072	1.571645485921
6	55667	27447.921033941686	4.110061697738
6	55710	27472.318198429596	1.163351961505
6	55790	27520.050361035823	0.895710264985
6	55795	27520.924806361894	4.170398717581
6	55880	27577.825461349103	2.738246731274
6	55905	27591.203837719434	4.075519918818
6	55910	27593.212901466617	1.026702903584
6	55950	27618.025412340727	1.121531783324
6	55955	27619.084382002454	0.943699357659
6	55965	27625.263785898557	1.081855394412
6	55980	27646.501436823173	0.940272387955
6	56010	27659.715588645765	1.730151958371
6	56037	27665.544932458475	8.806883279742
6	56092	27683.684089613034	1.270508241155
6	56125	27691.548931818646	5.329153574351
6	56170	27706.065484546635	8.653202088677
6	56175	27708.695905543649	1.069579500612
6	56200	27725.857031629683	5.922772192644
6	56210	27732.826010836719	2.832034683631
6	56215	27740.429542558048	1.039640324097
6	56240	27748.828181503196	6.552487575358
6	56250	27759.438677613757	2.764785810772
6	56262	27773.548191952466	5.576450918825
6	56265	27774.694276373594	2.054234472112
6	56280	27782.812573458976	2.992099999571
6	56285	27787.556834460635	0.853838574514
6	56305	27798.640334890793	0.884965184052
6	56329	27805.227698916454	3.866432169088
6	56349	27809.233981305245	2.123485012649
6	56387	27818.950826975642	10.851012602448
6	56412	27824.07946115921	15.641008424708
6	56466	27835.075189762408	6.291218248529
6	56472	27836.890718517204	16.16494266968
6	56492	27840.615938453034	8.709195906727
6	56505	27844.277930726693	9.906376105432
6	56527	27859.455266983787	2.618307497185
6	56550	27868.430705834172	12.932202909531
6	56584	27875.421995656701	5.744355966596
6	56600	27879.455761898446	1.064907574576
6	56610	27889.282356285363	15.658274890509
6	56652	27906.628560275396	0.929562110805
6	56679	27926.735334617462	1.075509345438
6	56685	27928.830191039111	2.113214358048
6	56695	27935.645829928908	2.459473078378
6	56700	27942.995612346021	0.849727496691
6	56745	27968.991106934187	4.240883612179
6	56847	27991.463308450184	27.47866481553
6	56942	28020.767184469404	0.991039053723
6	56945	28021.670560585635	1.083094718082
6	56955	28024.029872501406	13.998488006292
6	57010	28067.730189695943	2.854582023278
6	57030	28073.027521184975	3.829933200674
6	57040	28083.401997305814	2.180453267719
6	57072	28099.121346935324	2.213491945226
6	57085	28104.565317841564	6.936453119123
6	57090	28107.887727884067	0.914088880643
6	57105	28118.003997934908	0.926799216215
6	57125	28134.165319113421	0.861288469285
6	57179	28153.058585680125	2.677239066019
6	57195	28157.274505668336	4.819170120246
6	57215	28174.040374580411	1.19619911015
6	57274	28189.734098581329	6.27504002596
6	57300	28196.017353797532	11.84117994102
6	57315	28200.592300152356	2.339240540273
6	57330	28214.918860535328	2.637512032296
6	57337	28222.798222558964	1.07952762777
6	57352	28227.26533937571	1.73955778244
6	57370	28231.495846652524	3.30666571271
6	57380	28233.806772590875	1.758769419561
6	57405	28254.521342707323	0.993488499522
6	57425	28261.120690671777	1.38800067912
6	57430	28264.758977631389	1.010220012721
6	57435	28270.675606696078	0.865796631481
6	57470	28286.853635015139	10.66285126416
6	57475	28295.088877671695	1.149596527219
6	57500	28307.46786314119	5.210769977559
6	57547	28328.085768224627	6.745060711244
6	57577	28335.462166685352	4.444209879517
6	57580	28336.343587274497	3.788547237629
6	57605	28346.86761863367	8.855390543835
6	57617	28349.165164620486	5.395741268069
6	57632	28352.657600937921	4.477811471306
6	57642	28357.166757758078	1.012163402792
6	57695	28368.191089579821	8.190481905248
6	57729	28383.226618233727	2.530331350501
6	57750	28391.973354372973	9.863361230779
6	57780	28415.759098232982	6.495616456149
6	57785	28418.692847586352	1.131918161549
6	57810	28433.291809679206	4.784872993779
6	57860	28466.993149497662	5.45335019714
6	57891	28478.839116324096	1.86974605745
6	57926	28485.845151670354	7.383452760052
6	57941	28488.751015980153	4.328537473364
6	57950	28491.718195600605	12.968165591402
6	57965	28496.863987986424	1.159686236177
6	57975	28504.551849877249	0.987435524445
6	57985	28518.808259128089	4.971706227935
6	58030	28579.33506312604	1.651463165696
6	58065	28599.308721615488	7.211201767002
6	58070	28600.571604895186	8.710795630178
6	58129	28624.172602187296	2.607945470645
6	58150	28630.451124471455	11.226294614206
6	58155	28639.849195291683	1.185090576392
6	58160	28641.837776266395	0.816738051176
6	58165	28648.001842455975	1.061377153546
6	58170	28651.81820173398	1.056271749455
6	58175	28658.082296332149	0.981115906592
6	58180	28665.658417240428	0.866622320656
6	58192	28680.81233881781	0.986388695613
6	58215	28686.250113165858	6.108929631542
6	58245	28711.854563643831	0.81793427784
6	58255	28715.024130392865	2.792862500391
6	58260	28727.50468797209	1.086076732725
6	58282	28749.127332143069	3.021005258336
6	58317	28759.158788175974	1.929288995441
6	58330	28765.056203982707	6.126050505899
6	58411	28788.846490779806	7.822116062975
6	58422	28791.39992335337	8.946049708489
6	58437	28794.501853028932	20.975977490002
6	58520	28812.698117220832	10.787224694109
6	58577	28831.25983423083	4.339325947601
6	58585	28833.468960310176	15.116887895313
6	58640	28875.181830165428	0.993272460252
6	58645	28878.253332594782	1.02201442346
6	58652	28880.870450447436	0.804451901373
6	58685	28894.842323891484	2.74983174717
6	58785	28943.204004718359	1.61672818599
6	58795	28947.524660273664	1.007637138665
6	58805	28953.397816802072	2.460563981912
6	58855	28978.683506151751	1.378024682587
6	58890	28989.346256414806	9.763071443467
6	58895	28990.768959884442	1.18745052861
6	58905	29011.784216139977	5.350380257511
6	59104	29076.091374958396	21.468692817379
6	59114	29078.036462026365	2.310878173245
6	59125	29080.998396952167	8.778632047661
6	59137	29083.299872984941	30.299264700311
6	59140	29084.259973257891	2.887304019556
6	59205	29130.067164158949	0.897548782825
6	59252	29146.246862659816	4.137718911912
6	59290	29160.55858587434	5.776308025384
6	59305	29185.932157661042	0.877767808083
6	59320	29200.500967506425	0.959571917728
6	59397	29255.2594065882	1.886788427348
6	59444	29284.820695597795	1.015392262395
6	59559	29307.64308772434	10.952405592083
6	59564	29308.660190413077	4.991201298488
6	59574	29310.68154163633	21.832019330669
6	59630	29343.724403214369	5.083268427481
6	59652	29363.087075191364	0.892766635679
6	59662	29365.221523788361	0.895354141761
6	59689	29370.796550460081	1.177481607691
6	59736	29379.759185783116	11.79197293157
6	59752	29384.089082939474	7.801966311443
6	59755	29385.249893383419	12.658207944078
6	59767	29387.613602033011	1.56426193257
6	59772	29388.756467864043	2.653174018004
6	59780	29390.63518975818	1.624016755669
6	59790	29402.198515365458	1.190422155242
6	59815	29421.138928773712	1.637893678238
6	59822	29423.659167978055	0.83213621024
6	59825	29424.510450987685	1.27593130874
6	59905	29482.441440774702	1.046082107536
6	59927	29490.822328125096	1.73601820467
6	59949	29510.444978584254	1.05761124352
6	59965	29514.564732783751	3.825783942733
6	60005	29531.387984146816	0.864510330185
6	60025	29538.152802502979	4.453958808429
6	60047	29549.689900359017	3.236560483556
6	60050	29550.889087131591	4.151189796342
6	60055	29555.301573723309	1.130989979673
6	60065	29569.20797724278	1.120115343388
6	60070	29580.384267662199	0.993110866006
6	60080	29586.30865390055	0.935020770943
6	60115	29598.983007117961	0.922555662878
6	60150	29610.111437263269	0.86820788784
6	60170	29623.776308301249	2.605440504891
6	60195	29633.905768385212	8.30082800541
6	60202	29636.22894607257	4.887817675821
6	60212	29638.348551719642	0.934921619762
6	60312	29678.411606118035	1.148755280022
6	60319	29679.253754944306	3.72218526166
6	60400	29702.25550036	0.903324160911
6	60422	29712.783410734839	1.15022963694
6	60462	29723.572920855502	4.821914510062
6	60469	29724.420915540489	3.912039081415
6	60514	29736.060696698955	15.430709461399
6	60527	29738.925570777195	14.658567356047
6	60537	29741.112761382056	1.291440184917
6	60570	29751.927734045641	2.369814006558
6	60597	29765.202186537325	2.666363833702
6	60655	29783.190123378857	0.914380665766
6	60695	29796.45186664427	4.664820150177
6	60710	29827.824987151832	1.024953852687
6	60722	29836.125165452939	6.120928394438
6	60740	29861.026444820268	2.521099288294
6	60765	29871.930758814404	8.042183320457
6	60770	29891.523281322325	1.17993917698
6	60800	29905.153762974527	13.620905726753
6	60840	29954.896803280804	0.849582241196
6	60845	29958.170530583883	1.155687156506
6	60895	29984.123336221808	5.877282234329
6	60905	29991.246210238056	0.96964014899
6	60910	29996.221341990321	1.090287386719
6	60920	29999.993936388141	1.041232824791

