version 2
run Second_exit_5-15-20191114-11:42:38-8931
attr configname Second_exit_5
attr datetime 20191114-11:42:38
attr experiment Second_exit_5
attr inifile omnetpp.ini
attr iterationvars ""
attr iterationvarsf ""
attr measurement ""
attr network ResponseTimeNetwork
attr processid 8931
attr repetition 15
attr replication #15
attr resultdir results
attr runnumber 15
attr seedset 15
param **.Source.interArrivalTime exponential(5s)
param **.jobPriority bernoulli(0.6)
param **.PS.serviceTimeU1 "uniform(0.8s, 1.2s)"
param **.PS.serviceTimeU2 "uniform(1.8s, 2.2s)"
param **.SS1.serviceTime exponential(1s)
param **.SS2.serviceTime exponential(1.2s)
param **.PS.exitProbability bernoulli(0.5)

vector 0 ResponseTimeNetwork.sink lifeTimeU1:vector ETV
attr interpolationmode none
attr title "lifetime of arrived jobs U1, vector"
attr unit s
vector 1 ResponseTimeNetwork.sink totalServiceTimeU1:vector ETV
attr interpolationmode none
attr title "the total time spent  by arrived jobs U1, vector"
attr unit s
vector 2 ResponseTimeNetwork.sink lifeTime:vector ETV
attr interpolationmode none
attr title "lifetime of arrived jobs, vector"
attr unit s
vector 3 ResponseTimeNetwork.sink totalServiceTime:vector ETV
attr interpolationmode none
attr title "the total time spent  by arrived jobs, vector"
attr unit s
vector 4 ResponseTimeNetwork.sink lifeTimeU2:vector ETV
attr interpolationmode none
attr title "lifetime of arrived jobs U2, vector"
attr unit s
vector 5 ResponseTimeNetwork.sink totalServiceTimeU2:vector ETV
attr interpolationmode none
attr title "the total time spent  by arrived jobs U2, vector"
attr unit s
vector 6 ResponseTimeNetwork.QueueU2 queueLength:vector ETV
attr interpolationmode sample-hold
attr title "queue length, vector"
vector 7 ResponseTimeNetwork.QueueU1 queueLength:vector ETV
attr interpolationmode sample-hold
attr title "queue length, vector"
vector 8 ResponseTimeNetwork.SS1 queueLength:vector ETV
attr interpolationmode sample-hold
attr title "queue length, vector"
vector 9 ResponseTimeNetwork.SS2 queueLength:vector ETV
attr interpolationmode sample-hold
attr title "queue length, vector"
0	20575	10000.039700734256	1.639392997843
0	20590	10012.620010703453	0.804406984895
0	20615	10020.562350682646	3.274567466602
0	20620	10027.353340232725	0.952800649218
0	20662	10062.927871549712	1.004953810107
0	20665	10064.057593538077	5.417009326111
0	20680	10103.360191628482	6.790265216633
0	20685	10121.866776335497	0.983726093546
0	20700	10139.465222558205	1.139775401074
0	20705	10142.65779229124	1.175177274179
0	20717	10147.213629531686	2.404215193665
0	20720	10148.30711172988	1.231924738107
0	20730	10161.376608860183	3.4595130347
0	20752	10169.699284239985	3.084724638704
0	20765	10176.922263280033	1.003796428628
0	20792	10210.124880559324	0.979409393668
0	20810	10214.786095668905	4.913326878745
0	20855	10244.312073643537	4.806998246676
0	20862	10246.890597610727	1.178912759852
0	20865	10247.83943790029	9.503050703301
0	20870	10249.515211083674	1.187141244207
0	20887	10252.886774787395	2.872329567093
0	20927	10261.679079757966	11.519877574068
0	20935	10264.216888607866	5.855039703105
0	20955	10279.610197657357	4.247466479785
0	20962	10284.542853743613	0.81783826286
0	20965	10285.578317789205	1.790515088358
0	21007	10319.298475766592	8.142261221886
0	21015	10321.947865076035	10.226957109728
0	21050	10341.360430692066	6.734261310514
0	21075	10359.758741749884	3.392331631797
0	21085	10384.945701023132	2.069751901992
0	21095	10392.463210741166	2.606618532479
0	21120	10407.985674945507	9.278453890384
0	21137	10419.859097900614	1.081457381044
0	21157	10425.425504668441	1.840049221367
0	21179	10430.432421111106	1.080120168533
0	21194	10433.056696519791	3.280117572461
0	21207	10436.446887916024	2.005079939209
0	21215	10438.391136299795	16.353601855934
0	21229	10444.046983853014	1.39221915536
0	21237	10446.198713407232	2.752310943261
0	21242	10447.359417384709	1.996918694693
0	21247	10448.423189696143	6.16847905526
0	21289	10457.374128269961	1.402513659123
0	21306	10460.344400352331	2.436588241621
0	21317	10463.111770742011	15.571406635615
0	21327	10464.957868306708	10.392727725808
0	21372	10474.609393986602	1.44922433144
0	21387	10479.329316183581	5.14396889323
0	21415	10493.278089509791	5.06343516517
0	21430	10502.262147304127	3.666137914385
0	21445	10507.958738030224	3.622779437529
0	21482	10532.261665264421	2.807101176373
0	21485	10533.389992391501	1.767986446701
0	21495	10537.673466458652	2.553653308931
0	21525	10552.972630969923	2.445434273648
0	21545	10566.607785297362	6.357196842243
0	21555	10571.225664829259	2.907081242749
0	21605	10624.801585230347	5.017990008787
0	21632	10636.974318338719	3.387225520145
0	21640	10648.119009594805	0.91025222484
0	21652	10658.443569865986	1.078695198428
0	21698	10668.575268026247	2.102198598914
0	21701	10669.764052649486	2.85746223659
0	21707	10671.861833198268	5.638778109746
0	21715	10674.108059955627	18.488234329331
0	21725	10677.758572016348	1.004358162851
0	21740	10692.048916435585	3.311670873407
0	21764	10700.263085244357	2.737138763274
0	21767	10701.265391691069	1.796847633823
0	21780	10706.982548571325	8.599886966311
0	21795	10736.318846791749	1.882529978387
0	21800	10739.388652166924	5.224485727367
0	21815	10756.012375922751	1.106349387769
0	21839	10760.286703963594	1.173073843059
0	21842	10761.357250492384	5.076444790802
0	21865	10768.782592666176	0.852084946446
0	21872	10770.940079342362	1.175674161594
0	21880	10787.722187999696	0.977486493532
0	21927	10799.366734801648	1.64414300862
0	21940	10808.27220813947	4.536969075241
0	21957	10814.035182894171	1.638438303431
0	21979	10818.233772978586	4.736384967511
0	22004	10826.696495198199	17.326079730322
0	22015	10830.315468111501	14.809732837711
0	22035	10866.813354808273	1.099035519082
0	22090	10912.614898702826	2.563638895777
0	22107	10923.250808574222	4.638191539174
0	22115	10925.487200754356	0.97125938423
0	22120	10928.215848757827	5.955473425659
0	22145	10942.848375571803	8.013511755839
0	22209	10963.843845740893	14.671940746515
0	22232	10970.005984734845	2.189446620956
0	22237	10971.130123497833	7.716599940902
0	22272	10978.285311969749	7.074218074693
0	22292	10983.603755294935	1.501497237953
0	22305	10987.567418923501	19.968156895953
0	22326	10990.992493647878	1.775836343642
0	22339	10993.728349749447	8.193275999333
0	22342	10994.920541242493	6.374261269511
0	22367	11000.819288784609	1.012715437632
0	22439	11015.829596849666	10.235779896843
0	22442	11016.833705389635	9.325975520481
0	22450	11022.085528618143	0.993059759401
0	22460	11036.361884427176	0.805171917193
0	22470	11048.164496105669	0.880119046196
0	22485	11075.77129257698	0.928616377525
0	22502	11082.220937174447	0.912805409729
0	22505	11083.244509677012	5.198357840303
0	22515	11091.443115856871	1.924239322252
0	22548	11101.075710438756	4.983126976283
0	22551	11101.893357185652	3.913298589798
0	22567	11106.014013689295	1.16604330377
0	22575	11108.03715375698	0.860373364668
0	22615	11136.112142939586	1.087283099256
0	22635	11161.736519388846	2.863777762186
0	22682	11177.267459598668	0.874604801927
0	22690	11181.251372525018	16.763777636632
0	22719	11196.823774247441	4.434459898835
0	22729	11198.614529079955	5.716884749177
0	22749	11203.860285348254	1.166761295032
0	22757	11205.6220591139	1.052323832594
0	22779	11210.830995660148	18.429358953112
0	22790	11213.639384087607	6.347102903924
0	22800	11219.930596694539	3.010923998363
0	22812	11222.639581915979	1.414596004661
0	22820	11224.911552338981	1.064531980082
0	22835	11238.862904013322	3.83108849375
0	22840	11240.475173725762	1.143659029342
0	22867	11253.002408559503	0.983667005599
0	22870	11254.11779664054	1.711687347627
0	22875	11257.311675751611	1.09811128797
0	22882	11266.104492447766	1.197551298235
0	22907	11272.630218507104	7.608888824379
0	22940	11287.215534628776	1.194847752806
0	22947	11298.130252062671	1.139133308642
0	22960	11301.92351915354	4.342744545919
0	22967	11306.255969516015	1.136260336265
0	22970	11307.441101240008	2.268572791004
0	23015	11318.784977811129	8.968723630228
0	23035	11327.713539712989	1.693247071947
0	23050	11335.36185003213	3.092770857659
0	23065	11347.064098430459	1.659933867695
0	23077	11350.300708056261	2.109312668103
0	23101	11354.524749857487	2.367110037686
0	23104	11355.479324327895	2.247877202266
0	23122	11359.326522764211	2.701346675411
0	23130	11361.467916966529	11.320011337237
0	23139	11365.281378774853	0.974262574688
0	23142	11366.463273505909	1.698696893746
0	23180	11376.755650906362	3.798310450659
0	23185	11378.290638486036	0.830294525344
0	23195	11405.169357656684	1.067023366503
0	23200	11406.160451186136	0.888237089384
0	23210	11423.569994126462	2.443070149448
0	23215	11434.716724278438	0.87410620749
0	23222	11456.94944806086	0.915660248417
0	23245	11464.357344013525	1.57236656165
0	23275	11497.893431730614	3.327923750835
0	23307	11514.58680917295	4.210001478242
0	23310	11515.681231593157	1.484132744137
0	23320	11518.861305913251	11.491489788367
0	23350	11539.647121780019	1.012462353054
0	23397	11553.661199132326	1.24647623294
0	23427	11564.666457137029	5.912813131932
0	23440	11568.026296254091	5.030408225302
0	23445	11569.087378265179	1.000960665289
0	23482	11600.084404467016	3.162311797139
0	23485	11601.175526709359	3.086139737256
0	23495	11608.075951868187	1.069887189101
0	23500	11620.289986934232	0.919227356743
0	23505	11622.659146362686	0.867621215805
0	23527	11627.201990877668	2.073455126322
0	23545	11635.656562757307	0.854403868131
0	23575	11647.466472287616	4.521502176428
0	23590	11654.718518039994	1.273950726478
0	23595	11655.782892260401	5.384847523742
0	23602	11660.595787578832	1.14189967094
0	23605	11661.537004562199	2.056037400117
0	23610	11672.160876895709	0.989556472469
0	23615	11683.858319463343	0.991227318812
0	23635	11696.386662678389	10.144442779807
0	23660	11707.580697274677	10.200781848729
0	23705	11727.627849713681	5.261267073556
0	23729	11741.241992716808	6.815408383672
0	23809	11758.676011035372	19.900294872635
0	23872	11783.068293406662	3.83091103047
0	23880	11785.063183236342	4.237612162982
0	23885	11786.242329341429	3.876989698997
0	23907	11822.320794016663	2.136530151656
0	23930	11834.42518365137	1.186482665408
0	23975	11848.927169418692	11.994073676091
0	24007	11863.093301429075	1.276572605285
0	24032	11870.506364425586	3.099486892379
0	24045	11873.3171344415	1.631137284387
0	24055	11903.115457483606	4.828037459292
0	24060	11906.616027242055	1.143655893393
0	24070	11909.468302712707	2.193119682009
0	24080	11920.011548539538	0.966386827361
0	24105	11940.078610659366	1.066312461719
0	24122	11946.080132425176	2.832101184595
0	24125	11947.074723033672	3.597223942362
0	24142	11984.935042270884	1.099455494434
0	24154	11988.313537515211	3.644183899611
0	24170	11992.848771691005	4.849523124812
0	24185	12009.019257661637	2.180390452687
0	24195	12021.571748632411	2.789350543023
0	24200	12022.949426393501	0.945417790208
0	24234	12034.875187594328	1.876200679249
0	24249	12038.210133657955	6.570235954878
0	24252	12039.01513590559	2.011305554299
0	24267	12043.764634897632	16.110531374447
0	24272	12044.877102312425	2.094034289023
0	24287	12048.191240547077	1.014459910152
0	24300	12051.746439472431	7.135399744922
0	24310	12060.973498308744	1.161235298682
0	24315	12067.408210525123	0.998361537792
0	24330	12076.202818359066	4.001417405904
0	24345	12104.070664560219	1.078924787696
0	24360	12116.971660903173	1.337425259438
0	24365	12118.348678425539	1.11427735053
0	24372	12119.208171922125	0.825074695796
0	24392	12124.079533496096	1.927894685409
0	24412	12130.687688461995	11.559985706355
0	24420	12133.788800858495	1.02457564706
0	24435	12138.156656828886	1.057237696461
0	24474	12147.261796594941	7.357915569719
0	24477	12148.097379140154	5.73797057133
0	24487	12150.326742110279	1.914626378003
0	24490	12151.259172369697	17.447777365202
0	24510	12161.991752141475	5.743749679142
0	24525	12169.885821448988	2.801053967997
0	24585	12205.649624554039	3.388280954754
0	24590	12213.347711407264	1.011889889929
0	24595	12215.744060172363	0.829981020931
0	24644	12238.920278101703	3.453215983693
0	24660	12245.460750277084	0.968382874969
0	24677	12254.386087466138	0.814128374867
0	24690	12257.714808714461	1.249405730273
0	24727	12267.826293735315	1.067412888235
0	24761	12279.64145274899	13.678647457336
0	24790	12286.379747383307	28.425013193169
0	24797	12289.082108306051	0.978565445915
0	24825	12306.227907712616	1.048771442752
0	24850	12314.692540336168	3.528358055169
0	24870	12336.810495257178	2.742707558721
0	24875	12337.861579423634	3.284127137985
0	24915	12352.397877223969	1.790493853982
0	24927	12355.113044182742	1.826518103093
0	24959	12363.850887649364	9.079319573854
0	24972	12367.004266471925	4.13807062954
0	24977	12368.159684554904	2.39394060231
0	24985	12370.003819150243	1.253558791478
0	25019	12378.013670435234	2.813742833742
0	25024	12378.883809820528	7.936878566846
0	25027	12379.903072034906	2.691087573932
0	25035	12381.982516262186	7.250435364302
0	25059	12393.024285369185	5.310236473749
0	25064	12394.178843758446	5.890421713026
0	25067	12395.271578648225	4.42163365744
0	25080	12403.48005669418	1.040778688341
0	25109	12427.906763733049	1.344570433851
0	25152	12440.505080068224	3.404117488006
0	25180	12451.652471117819	1.013718263712
0	25202	12461.742388084649	3.518630405237
0	25207	12462.636486324972	3.224448149415
0	25222	12466.738766475786	4.750498535119
0	25230	12468.944883373426	5.442396572515
0	25262	12488.084537872811	1.868412833402
0	25276	12490.157472882651	1.598221552641
0	25279	12491.352719259214	2.766863171339
0	25297	12495.92533273102	11.737858565142
0	25300	12496.945730496116	7.686703510775
0	25330	12527.403684099092	5.749677649275
0	25355	12549.282185045184	2.171313218492
0	25380	12575.212172218909	0.843972077128
0	25389	12584.348210668312	1.11976908287
0	25392	12585.344979765666	1.820440942844
0	25437	12607.485014493434	3.036041179097
0	25465	12616.073817932928	7.582994420382
0	25477	12619.215207257519	1.058362432756
0	25485	12621.617429985433	8.597232731763
0	25495	12625.298921657283	1.134319457691
0	25507	12638.905995491516	1.187550422363
0	25527	12646.693567706829	1.15094091231
0	25577	12675.766907496423	8.862307818089
0	25590	12680.963488492698	5.304958264429
0	25609	12689.778750458642	2.069391015035
0	25612	12690.930337693638	3.310955876857
0	25647	12706.148032654532	7.301042396847
0	25660	12725.254353313999	3.906945313212
0	25667	12727.059731924642	1.135030996427
0	25679	12729.135995658781	1.480985140437
0	25684	12729.968192332159	1.185486687424
0	25700	12734.562305962828	1.058712518774
0	25725	12741.105805843956	4.259269952893
0	25737	12749.163078990824	2.284871280675
0	25750	12756.730199961983	0.912521673646
0	25760	12760.527544898203	2.356528735388
0	25772	12763.306687959861	2.091824710538
0	25802	12780.855135832371	3.130263191132
0	25810	12783.795690911432	11.229769650824
0	25815	12789.212018939658	1.037863614317
0	25840	12800.527808474701	4.703550503152
0	25845	12805.70797658996	0.999571470078
0	25882	12815.617339762325	6.429593424555
0	25890	12817.998771837052	2.541325678604
0	25932	12837.377626931823	1.449095804875
0	25937	12838.445191544543	5.755064780229
0	25988	12851.002374086295	9.659551494831
0	25996	12852.759182128076	3.093250498588
0	25999	12853.905724326939	18.438387022057
0	26025	12859.755418904823	12.000397365659
0	26035	12865.574061132597	1.161296704505
0	26045	12873.281185978536	1.047238564398
0	26055	12876.463689853342	2.193031561572
0	26102	12904.879153356236	7.550827278109
0	26112	12907.980055180211	5.716730060741
0	26120	12910.091223482874	2.291063239283
0	26130	12918.424280362081	3.768172361782
0	26135	12921.174497161788	1.172625669371
0	26152	12925.61818365922	1.690781815224
0	26191	12938.615589003135	16.239413124914
0	26194	12939.714752155412	2.998258161076
0	26204	12941.520416904483	4.574641213237
0	26212	12943.878928487711	8.416549245455
0	26239	12951.895361189869	2.131964295094
0	26242	12952.814488125172	3.742067292239
0	26245	12953.7270958086	17.830813856042
0	26265	12966.085597945887	0.949065628462
0	26275	12969.343728370272	1.466528669734
0	26280	12971.425771319311	3.885746613562
0	26287	12978.030834912304	0.858637575619
0	26290	12979.223081150726	1.812165546702
0	26325	13010.13793746936	5.492067376732
0	26332	13013.205123673004	1.161223149765
0	26335	13014.240735918746	1.927949075954
0	26340	13015.902420346484	1.019920915551
0	26352	13023.006201772616	1.137644141447
0	26380	13032.243052255606	2.301461467324
0	26385	13041.184244536834	0.962336755171
0	26397	13062.021044826094	3.438666026977
0	26412	13066.466137330039	5.227481916982
0	26447	13078.19978610886	1.082364401966
0	26455	13080.152050635529	13.858877731088
0	26467	13090.895822142509	1.446202419083
0	26490	13099.440190021999	0.859150435682
0	26510	13111.373013593142	0.950585790351
0	26515	13117.058071222392	1.047625975218
0	26520	13118.489412839412	0.922953457292
0	26542	13131.01640189854	8.011492384063
0	26560	13136.787379943703	5.896830240474
0	26601	13145.244623091204	4.186535021224
0	26621	13149.701786125304	10.567175613902
0	26627	13151.520016670824	4.016364544685
0	26644	13154.673619348781	17.858761987865
0	26647	13155.840968541561	4.210312274545
0	26655	13159.556457501293	1.15732760597
0	26695	13191.932491863598	5.300223661178
0	26705	13197.988582114636	2.826869897363
0	26717	13201.933917812889	1.005537429079
0	26725	13204.894236470591	1.051926941704
0	26730	13216.730039577113	0.856846816931
0	26747	13227.850352226621	3.384913027008
0	26762	13231.637374753767	0.96905203918
0	26789	13236.843563142494	12.268628425145
0	26819	13246.316763996892	3.199568780233
0	26830	13249.25422562426	4.66259363638
0	26837	13250.545273050895	0.803157374077
0	26845	13252.941944068677	0.947229778953
0	26855	13256.00444552255	1.003163372073
0	26870	13261.463622368766	4.49302674988
0	26875	13273.336167554359	1.167550840415
0	26885	13282.532385235874	3.486742506927
0	26895	13289.879619434811	2.094133269221
0	26932	13304.557210179987	8.758994342277
0	26945	13314.485064192907	2.918465348496
0	26994	13326.69482892531	4.712202413807
0	27013	13329.654110416519	8.452928192947
0	27016	13330.643336686334	3.502034028879
0	27042	13336.311420992231	18.32223025909
0	27077	13346.175032426705	4.70285254279
0	27092	13350.826659894081	9.284288905612
0	27100	13352.705389821528	1.346494375341
0	27120	13369.575332649058	1.143107013591
0	27130	13386.755775207038	4.105344837416
0	27135	13390.800812453682	1.044640392438
0	27145	13396.401198392723	2.923734201015
0	27167	13424.070295071706	1.683994255651
0	27170	13425.227371170662	3.275422535836
0	27180	13432.067576892117	2.470521743854
0	27202	13442.896736942068	9.432026884292
0	27227	13449.83954781377	4.265033849114
0	27245	13457.096311634367	0.889715244342
0	27267	13463.82670109245	0.940840154141
0	27270	13464.902120377971	6.60498229038
0	27284	13469.586868163232	1.396311051393
0	27300	13474.273575245646	1.479792757686
0	27320	13479.347566695096	0.846417654771
0	27342	13484.849746030386	10.458270439368
0	27377	13502.911644506463	6.703665990062
0	27395	13517.253422925287	0.817905943189
0	27483	13540.988518874004	13.529293157349
0	27496	13544.492850902427	11.16029478537
0	27501	13545.339509277821	2.769868205521
0	27507	13547.511386672251	6.924144362457
0	27544	13556.365113905941	30.733780995658
0	27584	13578.188538497046	6.655437274243
0	27615	13585.852413959104	13.451065535026
0	27632	13591.57489685436	0.979453866184
0	27652	13595.725100429211	7.061948094732
0	27660	13597.400686988925	0.813428789936
0	27665	13598.776585601728	5.09950948853
0	27685	13610.021064496812	4.212563421502
0	27730	13627.645755767999	10.237810084565
0	27747	13632.61340932592	12.368919705482
0	27755	13635.762572351402	0.974761213828
0	27767	13638.552033200735	5.975079237879
0	27770	13639.547417184027	1.956037066013
0	27787	13645.628158989026	5.803204379254
0	27792	13646.591714506353	3.107157985386
0	27815	13653.956146409497	0.936853716057
0	27820	13655.336442166808	0.936916243285
0	27840	13661.776806747488	5.563709042702
0	27870	13679.336908369386	3.864923874514
0	27875	13683.922694446187	0.844401467033
0	27912	13699.301667400737	1.494765887703
0	27917	13700.412779331495	6.430813048982
0	27925	13704.259618880159	4.571168958463
0	27957	13715.068628268527	3.525930919966
0	27960	13716.028013935244	8.831573201304
0	27970	13726.323871867832	4.000408985601
0	27977	13729.126093266417	1.010141825397
0	28052	13756.779750122832	6.962075770563
0	28055	13757.758377919117	1.410230436032
0	28070	13782.170275859155	1.05284600351
0	28075	13790.242177602259	1.185075588897
0	28080	13793.852226862866	0.852536019497
0	28100	13806.765360265728	0.898378666304
0	28125	13816.707794472627	1.598656449404
0	28130	13818.143318901422	5.88606538156
0	28140	13822.718864330459	11.382976733744
0	28145	13828.868217999543	0.827022516262
0	28160	13836.948889878376	1.025693073403
0	28165	13839.881746201257	0.899529987108
0	28197	13850.604391150669	7.940974604756
0	28212	13854.729965007772	9.326470754192
0	28247	13867.513896571783	8.330012135583
0	28255	13871.203898662707	1.072122349776
0	28280	13910.99609244567	1.050291575119
0	28287	13912.347837517565	0.970535726473
0	28292	13913.300710454738	1.704718224935
0	28300	13917.366851202562	1.180502387509
0	28320	13923.426144165658	3.617206432022
0	28330	13946.78620862811	5.14143777369
0	28352	13953.815024835636	2.609963227796
0	28355	13954.989667740484	1.259691396117
0	28360	13957.477390217102	0.874454094004
0	28379	13965.939679813035	2.078513484617
0	28382	13967.11133104239	4.709611772925
0	28410	13978.211148764064	4.353976713067
0	28432	14000.518519031233	1.45540798152
0	28445	14003.933395700296	7.945800703368
0	28450	14025.234630227134	0.865227222163
0	28472	14054.678467960566	3.356338758845
0	28475	14055.727418490223	2.023142737159
0	28497	14067.741685605779	4.295688338691
0	28530	14090.912842340326	2.036356981913
0	28540	14107.818100854094	1.188043863326
0	28550	14112.272577479313	1.880122741036
0	28562	14121.979451795247	1.028944880981
0	28579	14125.030697560541	5.64310940722
0	28605	14133.792207888167	9.024675196588
0	28632	14151.446866775905	0.921665600315
0	28657	14159.697302465932	2.938078913837
0	28680	14168.368685656542	10.570458339057
0	28709	14186.049506309272	0.957981451189
0	28712	14187.106230021005	4.235878841748
0	28720	14193.16247883247	0.914998399746
0	28762	14220.310556956795	2.421046386403
0	28775	14226.421295621657	6.892790040855
0	28780	14231.219569645952	1.097021039017
0	28787	14238.116441560185	0.899086943362
0	28807	14244.654292148221	3.298839427413
0	28810	14245.493578974213	1.569167131109
0	28829	14248.342688681807	2.032502489966
0	28832	14249.202480074174	2.839907391183
0	28840	14251.018101350187	4.937352856647
0	28845	14252.061959107915	6.46717083657
0	28889	14260.908135429753	4.6582830297
0	28892	14261.801261793526	8.525904404964
0	28897	14262.855414438231	10.13173991805
0	28900	14263.752907022351	1.937676147083
0	28910	14272.978278947024	2.892506183453
0	28915	14286.342822425716	1.098737546243
0	28925	14290.319051627298	1.388357655256
0	28954	14300.933939155687	2.166602321417
0	28957	14301.884684343666	3.210431267041
0	28974	14310.911554410315	2.394508613646
0	28982	14312.851963315817	2.05322102617
0	28992	14314.989982719911	4.354280480287
0	29010	14328.232887236904	5.506619656369
0	29042	14341.433553929941	4.801795868389
0	29060	14353.149680429825	0.89939355785
0	29082	14359.277226576238	1.503017117743
0	29095	14362.461915116426	4.066439168645
0	29100	14364.175823850882	9.977656438767
0	29105	14366.242732889873	0.861321109254
0	29110	14370.474718012588	0.993157945108
0	29115	14377.939529057822	0.876197892893
0	29130	14419.561993691742	0.897089723684
0	29157	14446.725552509533	1.990819165179
0	29175	14462.558749397788	4.390972324376
0	29182	14464.510090409389	1.011094666831
0	29239	14479.367581474157	3.131060125376
0	29244	14480.545517296372	16.175530893302
0	29270	14490.608204221949	0.811365979444
0	29275	14492.180538601667	3.835931398589
0	29317	14504.147199623645	0.837962139305
0	29340	14513.34532860203	8.64701772386
0	29375	14527.224049902531	3.855451456456
0	29400	14546.087012405247	7.135361754137
0	29420	14565.52828614985	1.15619459888
0	29427	14573.93803088393	0.839888781495
0	29430	14574.839799400865	0.944902312864
0	29440	14583.199781290898	2.849736338863
0	29445	14585.453804536607	1.023323498014
0	29460	14591.244607141236	2.470410483675
0	29490	14635.270858092419	3.071245480095
0	29500	14638.530956023681	2.449754915082
0	29515	14661.956933839843	2.489694510749
0	29546	14667.924738143004	1.607736211362
0	29554	14669.918716460645	4.050730127189
0	29566	14672.095426757999	2.041473700449
0	29571	14673.21969222761	5.331048448928
0	29587	14677.125064337618	4.133938056569
0	29630	14687.6528395332	11.629056561781
0	29635	14690.123266946612	0.924557423312
0	29662	14699.739173655352	0.968631094322
0	29682	14705.823974714828	0.967335232347
0	29700	14715.649982894717	1.138130957633
0	29717	14720.027544138182	1.353160276434
0	29730	14724.573533019196	0.861873204913
0	29757	14736.90533045936	3.011753362231
0	29760	14737.83299891302	3.830513694377
0	29780	14754.532131967468	2.246610969767
0	29825	14784.992207641023	1.165283570066
0	29830	14803.224998581724	0.915511241835
0	29837	14811.040411096453	0.839209009148
0	29840	14811.896999947182	1.391782072857
0	29897	14827.087618704524	6.94328679763
0	29947	14838.709553920904	20.16592540639
0	29979	14844.741307520174	6.006955372254
0	29995	14849.412043140343	9.59406972982
0	30002	14850.350389526775	0.808834802732
0	30030	14872.238715535967	2.840995994753
0	30035	14876.250068751589	1.15105466973
0	30040	14877.782589622661	1.056783420686
0	30055	14900.562520208972	4.297388885436
0	30070	14905.436489601301	2.777092461661
0	30097	14930.318192229705	4.590300344533
0	30105	14936.257732886793	1.192064887378
0	30124	14940.576882898707	1.898712677923
0	30151	14946.112014855251	5.781905431022
0	30205	14962.024153684406	2.132883214739
0	30215	14984.148646963212	1.090419790056
0	30225	14987.565824634923	0.817181179114
0	30244	14995.810961884374	3.38801273387
0	30265	15003.608702775543	10.838935515665
0	30307	15022.141872110992	1.649278555398
0	30310	15022.993857248157	3.59468357293
0	30332	15033.043553624391	1.69466423434
0	30347	15037.553255857857	5.958586986105
0	30372	15050.864506274944	1.02812430663
0	30382	15052.989259608591	5.352609037916
0	30442	15078.734216373799	1.450460033521
0	30462	15083.272202716018	20.710810159296
0	30465	15084.225490758098	1.424222015107
0	30475	15086.830014713505	2.232242253965
0	30480	15088.181185573664	0.946577633359
0	30485	15091.111960327892	0.833171323407
0	30526	15104.549645147871	2.169553017207
0	30529	15105.570146026674	6.263453347794
0	30532	15106.693041747554	9.209425904257
0	30542	15108.613672035758	1.095924346242
0	30560	15126.958252008243	2.611533645058
0	30565	15128.192489590381	0.808597375359
0	30585	15137.59565919244	1.152867675386
0	30590	15148.640699796212	1.169784636702
0	30625	15163.098848423157	9.84197166329
0	30657	15194.656403384146	3.123517566489
0	30665	15204.400219045535	0.889873451367
0	30670	15206.078768514715	1.006986098457
0	30680	15213.053085162372	3.686559981111
0	30692	15224.159411117622	3.405706243157
0	30697	15225.319031202794	1.725992489756
0	30740	15243.657639748906	2.999648638793
0	30745	15248.58292361777	1.176378169376
0	30752	15252.044822212617	0.853058891837
0	30755	15253.234867515816	1.315226581502
0	30775	15277.256278426841	0.952071689628
0	30800	15286.596597725762	3.564876099453
0	30810	15293.650855501453	1.065635626018
0	30832	15302.638165667938	4.608231912043
0	30845	15306.725987734235	4.556232707986
0	30865	15325.087782935756	1.11899186261
0	30889	15330.508892253623	5.317171027146
0	30907	15334.378419340862	4.19680662583
0	30915	15336.28243720475	1.169762176136
0	30932	15342.326973102014	1.150585296005
0	30947	15345.290519453729	6.992484694738
0	30960	15349.872013849164	0.852769101318
0	30965	15352.291335771417	9.410728814168
0	31027	15407.852520365405	1.548985069056
0	31051	15412.255149101888	6.468379587127
0	31054	15413.368755247493	2.353125357539
0	31062	15415.074532284264	5.407180253912
0	31082	15419.429196510691	2.829619288538
0	31085	15420.31989453616	8.921061935554
0	31102	15425.311226816136	1.020951489963
0	31110	15427.53265437674	2.250950833561
0	31182	15447.256633368998	6.713564933276
0	31230	15468.47130128339	3.254518322088
0	31240	15472.555864202407	13.754909208117
0	31245	15477.338846884217	0.924038742296
0	31267	15502.013954446119	2.806718948204
0	31272	15503.042371137374	2.252286299739
0	31277	15503.888756873206	4.329258074007
0	31280	15504.713683010944	1.304255621804
0	31300	15517.804771589175	6.281154330042
0	31315	15527.759560124137	4.058100937985
0	31327	15532.219699725756	2.810838177862
0	31347	15537.179765441354	1.875420140496
0	31350	15538.370492209766	7.13329733918
0	31389	15579.89982147812	8.005735575301
0	31405	15585.311457585319	1.27510977932
0	31415	15587.918056651123	1.735273247831
0	31429	15590.851883052392	0.91916013835
0	31453	15595.391129526412	9.65411254335
0	31467	15599.370650316039	1.520670832666
0	31535	15614.224706261111	1.169395257087
0	31550	15617.974278783433	26.137226681129
0	31560	15623.063751940807	2.165804499285
0	31607	15636.943640905743	0.951038987528
0	31637	15645.424916509744	4.012168785628
0	31645	15651.443455200372	1.018679434992
0	31680	15660.614632575953	0.817851939425
0	31685	15664.889836820536	0.91344216466
0	31700	15682.060547667931	4.586315157131
0	31707	15684.175722907988	1.025749394391
0	31710	15685.012542418336	1.652365652789
0	31740	15695.054089149853	8.666931046596
0	31767	15702.180101639962	4.601642479108
0	31770	15703.248072099032	5.457659433869
0	31775	15712.758174495765	1.148601984326
0	31780	15716.686064879088	0.855170271266
0	31785	15718.698039576807	1.095637507364
0	31797	15726.025530404943	3.03733113548
0	31805	15727.893809126756	1.071121950707
0	31820	15735.881696695357	4.697640719462
0	31825	15737.454023292355	0.829652420711
0	31849	15744.410613136574	1.840561381512
0	31864	15747.242441535204	1.030851962014
0	31879	15750.1341323307	4.954892722323
0	31894	15753.02896261264	1.920243089996
0	31927	15764.737582866949	3.969490256571
0	31935	15779.507690931196	1.193049771618
0	31966	15790.340905208596	1.778302289519
0	31979	15793.626361837414	5.273666592193
0	31986	15794.814393247561	6.17663688986
0	31991	15795.721829281179	1.880596151575
0	32002	15798.816697902968	8.810873542907
0	32040	15839.682108904059	0.969548838958
0	32049	15840.852195240614	3.436358357636
0	32052	15842.025043929425	1.670997882356
0	32055	15843.019455976841	2.340260287651
0	32065	15855.468084517888	2.465998912535
0	32090	15866.052285167698	3.081718932904
0	32105	15893.146615474227	3.667020360367
0	32110	15894.940493278474	1.007869218569
0	32115	15897.157455787728	0.926207640953
0	32135	15914.223369127051	1.041649774648
0	32140	15919.055375485432	0.857047319878
0	32155	15923.342105273811	3.894342737277
0	32160	15924.749550793582	0.959057161957
0	32175	15936.269731688046	2.493406304065
0	32190	15940.803007724742	1.065379505344
0	32245	15984.87453678709	3.359527517171
0	32250	15993.11678947843	0.976095423289
0	32265	16003.680245310165	2.020756625647
0	32277	16022.843974706401	0.865823529102
0	32285	16025.290625706056	2.46473122261
0	32330	16043.207904039332	0.861844739132
0	32347	16048.942698425492	8.066263282776
0	32362	16053.487925096856	6.589108779657
0	32377	16056.567491437087	3.450653517866
0	32390	16062.909103360777	0.812551260181
0	32415	16071.30186833674	1.168735395107
0	32420	16075.742850933358	1.112811458949
0	32447	16101.468129993544	1.056553847902
0	32457	16104.275193858635	0.882894317526
0	32500	16118.003154536025	0.885209773295
0	32517	16125.054211672739	0.916421039322
0	32555	16143.185863031614	1.731508313385
0	32577	16152.488832832781	6.431614440409
0	32600	16162.345607664234	10.199585675684
0	32610	16166.011147012125	2.248063429608
0	32630	16199.493593260358	0.913058592658
0	32650	16212.416114617377	1.19645570172
0	32682	16241.219105791412	0.801950434502
0	32690	16243.347431429215	1.334327727691
0	32705	16250.899403237123	2.029233143222
0	32740	16266.707622769414	0.952711512148
0	32750	16272.670209787063	2.180900700155
0	32755	16277.829821596493	1.005697012786
0	32760	16285.017873561857	0.82072751727
0	32785	16294.042565351833	2.523394618792
0	32805	16311.320830172339	2.174531461005
0	32830	16327.521777286107	0.986597304232
0	32857	16333.867369052006	3.995831344775
0	32862	16334.804526112771	1.210762464364
0	32865	16335.657618909965	1.269677745528
0	32901	16342.835228150009	4.42983325691
0	32909	16344.848525997574	1.366083555307
0	32934	16349.684329845054	11.597052752055
0	32962	16362.984652589217	1.243727611179
0	32990	16373.745297038909	5.401728375124
0	33017	16384.673473669818	5.800194252255
0	33020	16385.792990372653	2.254441835162
0	33044	16394.374591500814	2.961718881346
0	33047	16395.175872878208	16.050049852562
0	33074	16401.652596977879	1.905738931037
0	33119	16410.943829732077	15.071419408669
0	33131	16413.161021388104	10.766084579977
0	33134	16413.968237723471	1.667466015438
0	33180	16431.95831510609	4.240506317197
0	33190	16434.103518532289	2.055687791236
0	33210	16451.798078553858	1.735593651745
0	33215	16456.960980861057	0.824062290508
0	33220	16458.429890419984	1.132459739968
0	33232	16466.928570424667	2.542142728542
0	33282	16490.675281102766	4.00373277947
0	33297	16493.85471602889	7.523300084706
0	33310	16502.166108086023	0.919820500817
0	33315	16504.559051032262	1.090554351639
0	33330	16525.99135162605	0.899149967823
0	33350	16551.100761947578	2.129417785246
0	33365	16557.755215407828	4.794619469407
0	33417	16589.31030426904	2.118403559819
0	33440	16599.742328032583	12.587823370916
0	33455	16605.480268892223	4.640863605536
0	33465	16618.084396856148	1.941570769165
0	33490	16640.426976442675	0.819947407208
0	33500	16650.279563294158	0.851706790552
0	33515	16656.144311701831	0.951646757871
0	33520	16659.506472142549	5.875499944198
0	33552	16671.612262653277	1.15298062441
0	33555	16672.759843282585	12.397259248357
0	33572	16684.930193670989	3.201697685832
0	33577	16685.932009182741	2.61045852811
0	33639	16700.505394350162	1.469833240369
0	33662	16706.004335212889	9.440305176636
0	33665	16706.920499094105	4.451748288463
0	33687	16712.658436995395	3.641906754544
0	33690	16713.584170719259	4.628559285031
0	33695	16720.005230828007	0.83765555732
0	33705	16724.413610186526	2.379200131087
0	33739	16732.559241526959	7.356118575401
0	33742	16733.396037845419	1.322220661648
0	33755	16751.087289272935	1.101367795467
0	33782	16759.083581562099	3.328224113032
0	33804	16764.910223398411	2.53565841499
0	33820	16776.543175496081	1.163278394751
0	33830	16779.009075643849	5.036834462034
0	33864	16785.806030659192	1.956586292295
0	33867	16786.718806551304	6.414241465267
0	33887	16790.836960257031	3.471896604759
0	33897	16792.803626906965	11.584032871014
0	33915	16811.396751624902	2.955840140985
0	33930	16829.132902557238	1.013780613337
0	33935	16830.649010870749	7.201948720061
0	33965	16871.284302823542	5.745981220769
0	33977	16873.211540538893	1.080961003565
0	33980	16874.107910486852	1.384184855727
0	34000	16880.462227575926	2.887847357777
0	34020	16896.125298927958	0.919966356177
0	34025	16898.911521277641	0.808299642988
0	34079	16912.213837746025	2.237579467822
0	34082	16913.379251250212	13.406478490173
0	34095	16919.09642669049	1.070997716859
0	34105	16926.533819801144	0.868428862281
0	34125	16939.51004587481	3.363095252855
0	34154	16951.543185367682	5.373627954313
0	34164	16953.616162650534	4.731156909065
0	34170	16955.542996233949	10.213997998868
0	34175	16956.644619073628	4.373019338715
0	34180	16963.015402286954	1.150881212112
0	34190	16970.863168341191	4.180174292044
0	34195	16978.710423222322	0.885544797126
0	34205	17002.373817403571	1.071401230991
0	34215	17017.03413541636	1.090149648301
0	34245	17026.771325381961	2.898766458651
0	34260	17035.671955088799	1.170885653049
0	34265	17036.668520991784	4.114411964782
0	34309	17050.253089026133	5.806505703507
0	34322	17053.411357981856	1.890320350374
0	34340	17057.557604475611	6.582401471142
0	34345	17060.471401838859	4.955173202865
0	34369	17074.226145496126	0.847208356112
0	34376	17075.338057201728	1.800148137332
0	34404	17080.973803911638	6.098917884922
0	34410	17083.293636056502	8.825935222355
0	34415	17086.018001593994	18.690996824736
0	34445	17098.854045642918	6.688209102128
0	34450	17100.149253275622	1.056965933368
0	34501	17111.147767964755	10.672445103463
0	34504	17112.057279540975	6.804089334476
0	34530	17123.406613512313	1.171731702267
0	34557	17131.26857811277	3.683364110471
0	34570	17135.907008381798	5.253479901392
0	34592	17143.135081013368	3.122687321199
0	34595	17144.259023492021	2.870407212153
0	34612	17157.782169884336	1.101785024069
0	34615	17158.94545041461	2.136790305104
0	34630	17164.801090835641	2.766381700243
0	34635	17165.778467914225	0.948403061461
0	34652	17175.873646208104	13.406905345621
0	34671	17178.951058543585	5.058702304121
0	34683	17180.844293472375	1.868853018278
0	34704	17186.022091866768	1.364210680102
0	34714	17188.071153819672	7.433485887039
0	34750	17198.865923464397	1.019762515929
0	34760	17203.159537186549	2.610907319249
0	34786	17209.193287770681	4.171535212906
0	34806	17212.965871964626	3.854976810921
0	34819	17216.224706195806	7.652768545452
0	34847	17224.144949264685	3.630319397114
0	34867	17229.869681519447	1.15571713534
0	34884	17233.674696568755	1.677169862902
0	34889	17234.527181668842	2.277431905471
0	34942	17252.067889479008	9.557418436692
0	34975	17269.023923559069	3.349247739571
0	35006	17278.00754260259	1.982331809998
0	35009	17278.940891849587	5.659434293717
0	35030	17302.348713859209	1.044716266356
0	35050	17321.516921524322	2.376585094478
0	35055	17322.665497915083	0.893912759796
0	35060	17329.823504194538	0.866722162906
0	35077	17335.222100846899	2.090867761857
0	35085	17337.136519061724	5.424827158351
0	35090	17342.754628559514	0.990281880554
0	35110	17355.603382559954	3.864037949112
0	35137	17372.866696131965	3.301323991225
0	35147	17374.856524644969	1.842973089582
0	35160	17378.758710444818	3.965074703022
0	35201	17388.522860009767	5.717742251181
0	35206	17389.480674284402	5.605954949837
0	35236	17395.199481521159	9.45217936087
0	35239	17396.221226007569	2.42102509614
0	35255	17402.106664743809	2.154942277251
0	35265	17405.483982896692	2.565110893687
0	35270	17408.226663427391	1.199869872909
0	35326	17426.851032221131	6.025428944472
0	35339	17429.761031778064	14.277461678069
0	35342	17430.722645911482	16.870864426078
0	35355	17443.346230254886	1.147812485043
0	35387	17468.6657492952	1.148628259916
0	35400	17475.739632107881	1.831225398203
0	35415	17498.557426568366	2.212389529273
0	35420	17507.064429753436	1.041880463157
0	35430	17533.605950710853	1.107777354773
0	35435	17538.938587175383	1.056668145861
0	35477	17560.055323206625	2.493936312958
0	35487	17562.255976151387	6.128038326744
0	35490	17563.421972967489	7.225522604387
0	35500	17567.992073372142	2.483687698264
0	35567	17588.486909610227	10.455824084673
0	35585	17593.636856738231	17.482146640552
0	35594	17595.228471210801	1.145616047271
0	35597	17596.083979760219	1.121832847264
0	35617	17607.615538969786	1.048123742826
0	35625	17610.032048339282	5.079740029153
0	35632	17612.880997050913	1.197604685929
0	35637	17613.827620873308	1.218533476722
0	35640	17614.849895139864	1.880566839664
0	35657	17631.599269128972	0.886345886439
0	35665	17633.82855338252	2.831127072418
0	35680	17651.479279093947	5.036000181145
0	35685	17653.116734693199	1.007208365202
0	35690	17654.93385239443	0.83457791796
0	35702	17659.69759603035	1.514846852471
0	35717	17663.936736829128	2.753151834071
0	35725	17669.0002046571	1.032946898416
0	35735	17674.606483832801	1.025724019669
0	35740	17677.044635441821	1.054005040787
0	35755	17681.39299854448	0.891802245844
0	35760	17684.783170589072	1.155915285181
0	35782	17689.28680093265	3.949994449626
0	35785	17690.393154973861	1.334292361995
0	35790	17692.771307236732	0.821579237189
0	35819	17702.23597410879	4.32108289513
0	35824	17703.406774126355	5.841063550486
0	35827	17704.379746940721	1.889693491432
0	35847	17716.372930747101	3.20291936146
0	35850	17717.190629692858	1.94724953165
0	35875	17734.210731653649	7.829175186238
0	35885	17743.50963180306	0.80604675496
0	35924	17758.88670198773	4.005426471586
0	35927	17759.845155653311	4.401763532539
0	35930	17760.803516509431	4.093738842307
0	35964	17775.226201581808	4.866351495962
0	35967	17776.14147679223	1.30856282953
0	35975	17777.8710063714	1.642674793245
0	35980	17781.009608388928	1.068756930437
0	35985	17833.009527312976	1.030409306567
0	35990	17839.872146312107	1.150963108055
0	35995	17846.502938486866	0.879040746856
0	36000	17849.59884542067	0.858900753129
0	36005	17853.683140785296	0.98736522682
0	36012	17855.319784131083	1.039152930398
0	36020	17859.198214792774	0.867066098005
0	36042	17879.748399369161	6.058926857865
0	36057	17883.800028933711	3.117404470125
0	36067	17886.083741999544	1.545447783072
0	36079	17887.980662015997	1.028526427038
0	36111	17893.67522987992	4.032486492897
0	36137	17899.5892852689	6.838882715096
0	36175	17912.941475269504	1.184452758543
0	36222	17927.341958330795	4.023654479253
0	36235	17932.995838834911	9.488576539705
0	36240	17936.179496976281	18.848549961715
0	36287	17963.430142195203	17.623256425513
0	36297	17965.731102822653	0.832115548197
0	36322	17972.775598939035	1.060910559725
0	36325	17973.738159896519	8.335729119877
0	36330	17985.648843490377	0.812676436175
0	36340	17991.850641602924	2.106071939553
0	36345	17993.043404675301	1.077159817517
0	36367	18000.744544371044	0.810935632791
0	36372	18001.598731364229	5.101764983604
0	36390	18006.954657942183	8.10480403294
0	36400	18011.643313205952	2.115950861728
0	36415	18022.122741275171	5.545087803767
0	36439	18028.910119206716	4.995259813835
0	36444	18030.060418121681	4.414166076482
0	36447	18031.257997467347	2.940022534391
0	36460	18051.425969938057	0.881857984979
0	36470	18065.348294996888	0.974068963155
0	36492	18080.629000410322	3.118911018502
0	36500	18082.922721900954	7.175471631293
0	36517	18097.430891098332	4.146521446805
0	36520	18098.457772183948	1.420913681649
0	36525	18104.926380570334	1.102171865478
0	36537	18111.208954774204	2.816613254196
0	36545	18112.972922804381	1.659702784042
0	36560	18120.162193862849	9.215027479049
0	36575	18126.457485369732	4.626861693381
0	36590	18138.895717752407	5.276294235566
0	36605	18145.780079188331	4.056124241818
0	36657	18165.437775851037	12.093022314677
0	36660	18166.530784229092	1.491155831971
0	36670	18176.323459280262	0.972299062362
0	36682	18187.720132472413	2.706334058787
0	36690	18190.030524165479	3.131941104261
0	36695	18198.663634428752	1.066100505739
0	36715	18224.172699712409	5.728172718103
0	36720	18226.125002455799	0.957244264148
0	36732	18230.677169174845	2.873309311404
0	36735	18231.692245410247	1.881548117866
0	36762	18243.976717098421	4.977323295337
0	36772	18245.67549009313	1.51749744068
0	36779	18246.520686411943	2.323599819692
0	36790	18249.503810657832	3.051042221346
0	36807	18254.693630107661	2.90753312977
0	36822	18260.209942305564	1.482008030306
0	36832	18263.830161140227	5.55301699034
0	36850	18270.037374209107	6.567176171079
0	36870	18276.103263916335	0.82592999218
0	36877	18277.438696777763	0.842902137991
0	36880	18278.305039647257	1.53327787931
0	36885	18281.700658191463	0.950486433133
0	36897	18295.632789100871	2.233647918311
0	36900	18296.493439147693	1.255131877962
0	36915	18304.912173004795	6.445049054338
0	36944	18316.479942056432	1.067541353125
0	36955	18319.365769575059	6.80818993361
0	36985	18325.795746762995	6.33751963072
0	37009	18334.596173448624	1.133998848777
0	37022	18337.719446634638	1.746536870781
0	37044	18342.175885466369	12.817421827174
0	37047	18343.100665613147	11.267849539515
0	37050	18344.061403733282	2.040311975489
0	37055	18356.104573105421	0.933275059331
0	37092	18389.380285844973	1.735888845807
0	37107	18400.460631536481	1.501884109123
0	37172	18416.312042524128	13.914113502416
0	37217	18427.669532887013	24.005997505523
0	37225	18429.694517309432	1.900734516196
0	37230	18430.673717213045	29.561885255655
0	37252	18440.914641594484	3.328023907912
0	37272	18445.882643872358	9.041153508035
0	37287	18450.743871166143	1.06696247831
0	37290	18451.588299388769	2.859854940808
0	37297	18457.488446104733	1.075274835061
0	37310	18460.487203752457	0.874717772659
0	37330	18467.656063242083	1.156132314168
0	37335	18486.176407258731	0.858854703885
0	37345	18491.034609086014	1.062880661381
0	37357	18493.277233062441	1.760665120994
0	37402	18502.205121694105	7.914411351128
0	37425	18508.277870517411	15.041554112436
0	37460	18539.699436562642	8.2904649627
0	37465	18544.514723544404	1.001243287325
0	37472	18545.757425252807	0.912104826979
0	37480	18548.265537281009	3.150269709887
0	37490	18553.546475610125	2.65187958678
0	37502	18573.857183068995	1.067469093483
0	37505	18574.929447008953	3.400643034139
0	37510	18585.969997748297	1.159870693274
0	37522	18595.131105226021	1.802474898151
0	37525	18596.071129941404	3.128642136697
0	37542	18602.627353753995	4.578784379987
0	37550	18607.561871777722	0.933247143216
0	37565	18617.917564630021	0.915161445551
0	37582	18637.393996137954	4.755782855714
0	37600	18641.858109046432	4.723324028383
0	37620	18651.729102549406	2.024145145975
0	37635	18660.720866560965	0.866212998703
0	37645	18665.616001932835	1.191029956192
0	37650	18668.669865344027	1.061344700772
0	37672	18681.737606151344	1.331931360071
0	37700	18688.311095783791	8.284149401345
0	37710	18697.2021031708	0.897105643805
0	37715	18703.015861906549	1.16463914169
0	37720	18705.65192980841	0.80778837977
0	37730	18710.75553675034	2.148174067353
0	37755	18718.270264941486	6.177900513332
0	37782	18738.856730493223	0.807143103518
0	37807	18749.091508217386	4.753260779613
0	37810	18750.01732643428	3.05325377211
0	37851	18759.726442701218	3.785583791061
0	37861	18761.778224698024	8.80557871454
0	37867	18763.678389432969	8.904944733688
0	37884	18766.574486209767	14.07561695762
0	37907	18771.626029555349	7.648569050866
0	37954	18788.035679981281	2.818853322261
0	37957	18789.006826211494	5.480566392201
0	37970	18793.853997066396	2.67048735784
0	38035	18866.247746581214	1.052467829044
0	38040	18870.161033706518	7.95544117195
0	38045	18873.30530959455	1.085077556968
0	38050	18878.459878076626	0.963409128599
0	38065	18887.653607091691	1.412292030431
0	38112	18905.430080902765	4.496269108044
0	38179	18921.401046466168	10.056710709264
0	38200	18944.108270470105	1.047481917497
0	38205	18946.495388014986	0.802203771193
0	38262	18988.291074047597	0.958522257302
0	38270	18991.105130343223	1.087772601284
0	38285	18995.864306941712	8.169211125515
0	38295	19001.796359893763	3.669669763568
0	38305	19014.05604622464	2.440678341139
0	38335	19023.279992912751	5.505056815589
0	38340	19026.586186820437	0.910426393803
0	38350	19032.109365842344	2.116319784565
0	38360	19041.847040411566	3.080436276128
0	38370	19060.018930932808	4.902049574314
0	38375	19066.997462438051	1.13501867326
0	38410	19101.443358074026	2.798317590722
0	38429	19118.908688038182	2.317127489084
0	38437	19121.037378879604	1.878506317514
0	38455	19125.461590538019	1.241662209438
0	38460	19126.874647191142	8.472708023956
0	38485	19154.976873284576	5.578509621209
0	38500	19178.636247794778	1.144043306168
0	38509	19181.574113176052	0.901285043173
0	38514	19182.580798232869	1.435187994736
0	38517	19183.420029610802	2.154128000896
0	38525	19187.952477414341	5.455284848961
0	38530	19191.521997376223	0.974364696071
0	38549	19195.99528788198	1.720074461824
0	38557	19197.816084446947	5.20465348908
0	38572	19200.345138806483	4.971259462517
0	38595	19216.943943970309	1.442178318648
0	38607	19220.637959936477	10.808496497695
0	38615	19224.358306532748	5.821510262594
0	38645	19239.929528435058	4.328173709461
0	38650	19251.086554289375	0.876221425738
0	38655	19254.734149547644	1.081126006972
0	38694	19274.334056061841	1.138106055465
0	38705	19277.292901870477	3.588615024683
0	38772	19299.658084590107	13.23796101519
0	38802	19306.38851663494	18.100932219597
0	38830	19323.879596729638	4.964706451345
0	38835	19329.922711839807	0.926629727427
0	38930	19365.619479063891	0.926337429602
0	38944	19367.596496382601	4.507612712001
0	38947	19368.69463345405	1.911741496623
0	38967	19374.154526578542	5.336816004519
0	38972	19374.995523721446	7.67955785525
0	38995	19387.215112047871	0.993554136157
0	39025	19399.387174535919	1.567446721664
0	39047	19403.543359158319	7.054141330931
0	39050	19404.486671439224	3.812054598933
0	39055	19410.000597850087	1.097988097928
0	39132	19441.828427869768	0.811155424826
0	39135	19442.972580612485	4.312075478854
0	39151	19457.046509083548	1.657319426157
0	39154	19458.024938500674	2.546277868914
0	39174	19462.322606951398	1.361317225025
0	39190	19466.64474581158	4.531359147283
0	39195	19473.114225509594	0.845271863043
0	39200	19478.97759658763	1.000068826228
0	39210	19483.39164670732	2.660733740146
0	39225	19486.922084488912	3.218688848075
0	39240	19493.944222097815	3.70618411326
0	39247	19502.550807879454	0.906539499573
0	39262	19523.566277779145	1.0244959566
0	39275	19528.094354930907	6.703372430844
0	39280	19530.383040214942	0.895601566229
0	39285	19534.856281283676	0.956111360434
0	39310	19548.16968067814	1.093986205012
0	39319	19551.393785508585	1.133382718172
0	39334	19554.275929336578	3.647522865133
0	39360	19561.745378180878	3.08977281414
0	39380	19579.623319431057	1.087327884324
0	39460	19601.462254043257	8.115471191265
0	39465	19611.138166614166	1.195419671852
0	39477	19613.486632466801	1.905565478079
0	39505	19621.895464806945	5.756330304681
0	39510	19623.960102196111	12.558621450754
0	39527	19641.591265381191	3.048054074495
0	39544	19644.349945255236	5.634135319306
0	39556	19646.292905168289	2.372022374526
0	39559	19647.351920752933	2.875463668545
0	39567	19649.55815774515	5.824214040494
0	39572	19650.359937603359	2.797546693285
0	39575	19651.312310036045	9.556399861996
0	39580	19670.485248687454	0.846872187313
0	39600	19680.53127040253	7.220981048177
0	39605	19685.864285390725	0.910111954343
0	39615	19690.356960875672	1.949735596133
0	39627	19693.054730677927	1.719278449961
0	39635	19695.251167860886	7.132130126038
0	39640	19700.964083524232	1.104061497469
0	39669	19709.86750050881	0.980866313828
0	39672	19710.930869813962	4.789801225635
0	39682	19713.091007523938	2.121082248307
0	39685	19714.207448521583	2.332086269045
0	39692	19715.426559430018	1.084445612133
0	39695	19716.321978587314	1.717967599876
0	39705	19738.949904512682	1.061755142268
0	39729	19743.758641086394	4.382806239691
0	39755	19757.105220282944	6.245903928704
0	39770	19770.914325707336	4.928380726957
0	39792	19783.630657654856	3.75095608734
0	39812	19790.372856569813	4.565103548872
0	39820	19792.924376895933	2.977320454539
0	39830	19801.124041655119	2.30460511127
0	39847	19807.368151617959	0.845300627034
0	39865	19813.007178102166	8.097188002585
0	39882	19819.315542514729	0.802526397631
0	39915	19838.41220571699	3.180491958555
0	39925	19841.460486316754	1.109093764517
0	39965	19861.108248456241	1.031292869058
0	39975	19893.50145345072	0.900067810155
0	39980	19894.85678243069	0.901707408112
0	40026	19918.94475868241	7.962883712337
0	40031	19919.755664315532	6.121675684773
0	40034	19920.875777589428	8.876303463616
0	40039	19921.832479445535	9.775787593626
0	40072	19932.714122647037	1.657521771498
0	40075	19933.564594336589	2.990992513299
0	40085	19939.248341466669	2.946932305532
0	40121	19950.912887524568	8.712201863435
0	40140	19958.637307459001	1.156819847785
0	40145	19965.673370022067	1.168490913045
0	40150	19979.445593114868	1.112436331995
0	40172	19992.628920676205	5.908983922308
0	40197	19998.862461905829	9.275946039777
0	40212	20002.200193586838	12.100966392408
0	40217	20003.358063106224	3.138177273236
0	40220	20004.37148408106	1.551750735086
0	40230	20031.198693301768	1.284954248869
0	40237	20032.146512263996	2.997065264475
0	40242	20033.137405151857	1.411469722506
0	40252	20035.907578715585	0.97614761116
0	40265	20040.51874781507	8.023658953849
0	40275	20044.193931489464	0.956823772006
0	40285	20047.974419823108	3.122990380794
0	40290	20059.710076923117	1.085474586207
0	40300	20062.674849857906	0.931577765569
0	40327	20077.356903546217	3.642215202294
0	40335	20079.606835322408	0.993940347712
0	40387	20091.875767830286	10.255916296604
0	40410	20097.198315835261	11.362512740966
0	40437	20105.007210253649	9.453510488033
0	40440	20105.896632802677	1.44240729585
0	40465	20117.355929334883	10.235917158656
0	40502	20140.179907561531	1.104298553895
0	40505	20141.337344201905	1.554251304589
0	40510	20143.115568554937	0.896946376655
0	40540	20165.851947349139	3.794602482585
0	40555	20170.520209562836	2.038105052527
0	40560	20174.13928106466	1.147714274377
0	40585	20203.650253434415	5.680060188165
0	40607	20218.659695862455	7.700145389374
0	40617	20231.391432521324	0.948517669458
0	40635	20237.273637142395	3.797507063355
0	40640	20248.637135745467	1.091168190725
0	40650	20255.643557121699	2.386002330269
0	40655	20256.849221667452	0.899874543864
0	40685	20270.897543534227	3.713927821365
0	40690	20272.146957752194	10.895509975705
0	40707	20277.615616690058	4.108250566516
0	40710	20278.722564751625	1.81815054199
0	40767	20309.693227621184	1.012524884567
0	40770	20310.540928174385	3.941914204197
0	40802	20336.435287985141	1.015529278759
0	40805	20337.461001184984	1.223195732907
0	40820	20352.674807520737	4.824664424033
0	40827	20364.19917824718	0.914044828154
0	40830	20365.119103544139	1.2777823825
0	40842	20370.678927535062	2.014706786039
0	40845	20371.499677833599	1.654367896586
0	40850	20373.812952547728	0.807485578209
0	40855	20392.061478440551	0.926078867353
0	40867	20397.378272613551	1.177491873223
0	40870	20398.537178195588	4.717929851941
0	40887	20405.352811022053	1.475985016341
0	40905	20411.807760274098	11.1966936209
0	40915	20422.415899145599	2.14111554032
0	40922	20428.214532851083	1.17820073124
0	40927	20429.133644499099	1.513180146929
0	40955	20456.135124906488	0.875280312728
0	40977	20466.19658004872	6.550706238538
0	40995	20499.973636221711	1.123735881038
0	41010	20506.836792767534	2.181755740482
0	41035	20522.605664359915	5.703843734214
0	41040	20531.193212986753	1.014277475048
0	41052	20537.419917153611	2.308164516638
0	41060	20540.38493795299	3.64155900812
0	41065	20548.943045117589	1.10658466937
0	41070	20553.371663181112	1.180581068434
0	41080	20558.616264787273	2.906487358656
0	41085	20561.574489061499	0.935763143562
0	41090	20572.974892903778	1.146165868733
0	41149	20611.131541606598	1.690847394183
0	41162	20614.111346536317	1.33297022413
0	41177	20617.345705781133	7.75798142544
0	41209	20624.940765434852	18.204297015188
0	41222	20628.115028351428	3.389549528436
0	41237	20634.663563849269	0.996752036456
0	41240	20635.609197598374	1.941235950775
0	41252	20647.539278709411	1.593453396566
0	41257	20648.721102761931	3.304817295075
0	41270	20651.711551926179	3.42274547007
0	41275	20652.672755464345	3.33594831946
0	41280	20654.287747446338	1.047451641131
0	41297	20660.821406687871	0.879691353254
0	41300	20661.763608265557	3.782565333397
0	41310	20667.87751731119	1.111638036463
0	41327	20674.117598244282	0.965206642076
0	41342	20683.835495248258	1.800280871011
0	41345	20684.740587102163	2.784624565858
0	41355	20689.086891515524	1.39176394961
0	41377	20694.033802363116	1.964014809886
0	41405	20700.371437170843	2.376889084353
0	41447	20719.554685395716	1.989659873982
0	41470	20725.31173576298	6.147444429274
0	41520	20744.974564632355	8.252367442867
0	41535	20749.032803451695	6.515820157126
0	41569	20766.192286538822	7.369102490134
0	41580	20770.948405510507	7.649847187604
0	41592	20780.643357231722	2.292573356879
0	41597	20781.821137432915	1.980486506042
0	41605	20784.280871874819	2.774188124523
0	41630	20799.951593374213	4.388529937417
0	41650	20839.986906850055	1.07157804016
0	41695	20857.389800439646	1.708931585826
0	41715	20866.961424478211	2.18854349752
0	41732	20883.063324419557	0.985048337281
0	41745	20886.508617072404	3.76279351741
0	41752	20887.74106117776	1.138257317711
0	41780	20904.841363837665	2.40126810587
0	41785	20906.701489652217	0.924341111351
0	41825	20930.091828327136	3.545170247002
0	41840	20972.381758162341	1.198386474326
0	41877	20982.4106995097	9.701200126627
0	41880	20983.50319570942	3.953348382139
0	41895	20989.561082200191	3.438171924372
0	41900	20990.972596021867	3.470305008244
0	41905	21001.62106555121	1.001471807342
0	41922	21005.943584993726	3.020796282235
0	41927	21007.030105297512	1.662364786333
0	41935	21009.757708360237	6.129095663
0	41945	21012.039633430477	1.186912109641
0	41965	21025.766775890329	1.352756027771
0	42012	21037.658379978189	6.06257002641
0	42024	21044.090502012345	12.243408109886
0	42034	21046.164142391469	8.569591515016
0	42069	21060.983052620808	1.019015481051
0	42080	21063.699657406709	4.664557653479
0	42092	21067.658521462945	2.35154354405
0	42095	21068.647468697807	1.033136231403
0	42100	21075.758271072572	1.039652955998
0	42105	21082.296627446723	0.862900521234
0	42137	21108.915101749785	1.147406171728
0	42152	21111.926868359986	1.172589997688
0	42171	21114.820015745553	0.810185294133
0	42207	21122.666810620584	1.992598125063
0	42212	21123.801459107742	22.125340229812
0	42217	21124.780257952221	1.472394412566
0	42252	21136.348682901045	2.600007508106
0	42305	21159.975608556583	5.390130772461
0	42332	21178.900523614524	0.802963644732
0	42344	21181.273976302346	12.350952884428
0	42375	21188.676022713964	1.809961316208
0	42385	21197.319641084345	3.080670382706
0	42402	21207.528835109048	4.197835719959
0	42410	21223.236283877686	0.962291756086
0	42424	21237.154661798055	1.107287710346
0	42461	21244.203734523839	2.039817581749
0	42474	21247.334032755568	11.096190524589
0	42477	21248.463493233956	5.894646377953
0	42515	21256.518929880044	4.994690860105
0	42537	21263.307825522382	4.595184229254
0	42542	21264.399288748834	1.375369320244
0	42560	21268.756988209778	5.384064428591
0	42565	21270.836405077734	0.911532014888
0	42575	21279.965715752456	4.389578930776
0	42607	21294.106670829388	6.156592339679
0	42631	21305.867854313952	3.059805163182
0	42659	21311.941658590016	8.423494777254
0	42705	21329.474584650074	6.321360497654
0	42712	21331.293904458275	1.134724208433
0	42752	21340.724765875972	1.837235575939
0	42755	21341.807130386065	7.209477550534
0	42777	21364.534529471577	1.182325206604
0	42785	21366.855924354256	2.846988780466
0	42795	21370.587852121582	3.138344343196
0	42800	21377.76120250905	0.842352997977
0	42810	21381.844138777617	2.119712354101
0	42815	21395.108379026653	0.820653715357
0	42872	21413.426779142071	10.99859543707
0	42905	21425.67107409065	4.803736141355
0	42910	21428.506946221971	1.193050589692
0	42929	21434.747734984472	4.055854027313
0	42932	21435.808263349622	2.614420386035
0	42957	21440.941456263782	0.986755612872
0	42965	21444.956619142142	10.474944150935
0	43012	21463.376654532533	0.937722424231
0	43037	21474.162072910448	4.865200994077
0	43042	21475.173939449047	3.918661418143
0	43069	21482.903847225426	4.222836139557
0	43086	21486.152086768342	5.388614391069
0	43106	21490.023051185948	6.709597718254
0	43116	21492.059144832702	1.916716808378
0	43119	21493.07385432175	2.066212668753
0	43140	21498.65286093691	1.02647325797
0	43162	21508.415939154614	6.173575762692
0	43165	21509.288324874312	1.459452721792
0	43180	21512.575684971825	3.020627901029
0	43185	21516.072474462341	0.903119515255
0	43209	21522.1059353949	1.020509894364
0	43230	21529.7073145005	11.677500265108
0	43240	21533.030941994552	1.626345140996
0	43255	21537.279647557323	1.159319130823
0	43260	21540.468887543944	0.83554387195
0	43272	21546.062382138549	2.369234463445
0	43275	21547.210296453285	1.472561121435
0	43309	21560.417773884457	1.012433858775
0	43348	21567.004688538812	2.025511677155
0	43368	21571.127212265335	11.243259368586
0	43371	21572.326055151705	9.315099496356
0	43374	21573.334789882709	13.883757241476
0	43425	21594.434402622972	1.02040744992
0	43447	21615.256226740383	0.890822213236
0	43457	21617.350898390334	4.233061107358
0	43460	21618.163978769235	3.284259046861
0	43482	21628.632891887946	1.164921405327
0	43500	21634.452249758364	13.129870276501
0	43507	21636.071444542124	6.798841442765
0	43520	21647.571876564801	2.183475427913
0	43530	21651.203453747893	2.283086775403
0	43561	21666.198624091427	2.039198700588
0	43574	21669.467899284344	4.890897834177
0	43620	21686.85713080851	6.265794528074
0	43630	21693.880151920047	3.572611466323
0	43640	21697.921231154312	1.710956727272
0	43655	21704.198997189591	3.50301158189
0	43672	21707.158452386663	2.833994893587
0	43710	21725.979195211426	4.57120688539
0	43760	21749.410959406019	4.946501893029
0	43787	21768.382664513568	0.934980497696
0	43797	21770.368383274952	6.772698445861
0	43805	21772.499289246118	11.679228806441
0	43839	21780.056359243742	5.612695142719
0	43842	21781.130478527001	5.562143157942
0	43857	21788.494182942578	1.000292600267
0	43865	21790.932860257692	4.416137512474
0	43875	21798.785849783034	0.952968801744
0	43880	21800.31105283298	4.880314207038
0	43915	21809.669201149157	3.427614299565
0	43942	21817.196609817625	5.898175751322
0	43945	21818.272896523208	6.494439600092
0	43974	21825.28942812121	3.662930390961
0	43977	21826.290639589527	5.354422410503
0	43985	21835.784671232864	0.949669094104
0	43990	21838.694289687031	1.197499787528
0	43995	21842.262107428492	1.169084015582
0	44010	21853.463429438738	2.191286722063
0	44015	21854.594678688991	0.800048394874
0	44020	21857.365959893042	0.843246008176
0	44027	21859.514795627672	1.105942531023
0	44030	21860.444396070059	1.725003155973
0	44050	21887.675112093246	1.444569149723
0	44055	21892.51686809645	1.110663712304
0	44065	21919.152440960477	0.865911873244
0	44092	21931.039787081345	1.563312475304
0	44107	21937.517938198879	1.587985969546
0	44117	21940.163105000913	1.144067276362
0	44132	21946.288328474313	10.903232515264
0	44150	21967.705555715743	1.113568434771
0	44155	21984.353878197509	1.184264545795
0	44160	21988.023914274045	0.926261943765
0	44165	21990.985868466303	0.97593902275
0	44185	22006.320765442671	4.941712314034
0	44220	22029.928484752892	1.182422102802
0	44225	22039.734198682179	1.125984823611
0	44230	22045.146949256066	0.871438911371
0	44265	22063.224448479886	14.635801939037
0	44272	22073.476279945049	0.867018993571
0	44287	22079.8564405871	1.067332443222
0	44300	22085.196951969014	9.293170322381
0	44310	22092.857174986871	7.163238904958
0	44330	22105.534868207354	3.622503352768
0	44335	22107.112871311358	0.804591395892
0	44345	22112.029972607886	2.287953400902
0	44355	22121.810272477546	3.145772167409
0	44367	22129.501994649413	1.807055865881
0	44377	22133.971097556316	4.834388038294
0	44420	22160.039379066663	10.379708542768
0	44457	22170.389715106806	8.480534726461
0	44467	22173.309791078179	1.171566921938
0	44480	22176.23774043018	9.096674935371
0	44507	22187.880936167577	2.722309416903
0	44515	22194.418300094152	1.184269325249
0	44540	22230.90171327818	1.15889713401
0	44550	22233.905461019087	2.058472568414
0	44557	22236.858399836328	0.963138044067
0	44565	22238.853392961366	2.174213919814
0	44575	22248.534426436784	1.800711851686
0	44590	22252.447317287397	2.986647944008
0	44597	22257.101480101636	1.106324569881
0	44607	22259.104423147562	0.958623982171
0	44625	22262.714534068229	6.655817263759
0	44685	22285.255330921823	7.279397485782
0	44697	22288.163089175861	2.72062636131
0	44700	22289.242623492576	1.559559597443
0	44722	22300.691520775004	2.481267631728
0	44725	22301.803394993848	1.492332336213
0	44730	22303.350697461839	0.944427846558
0	44742	22308.542742246084	3.437445601839
0	44795	22326.026475926459	3.07227700279
0	44814	22339.043223624603	1.922424756421
0	44835	22344.351113277174	7.554495112079
0	44855	22348.767553408046	3.866515187268
0	44894	22355.819243558364	2.586984633932
0	44904	22358.159787222052	1.675680138188
0	44907	22359.086429701241	14.14743674347
0	44925	22369.803271609454	1.091251660111
0	44939	22373.406177464811	0.942952611297
0	44944	22374.415440207751	6.366930631111
0	44947	22375.354417562702	2.155169809552
0	44977	22392.321889816279	3.613656952388
0	44980	22393.255927289239	2.984842069075
0	45000	22403.061945226485	1.154756650422
0	45020	22414.809859141458	5.827052310909
0	45037	22431.643198998537	3.141842111807
0	45040	22432.811953837223	1.89844388191
0	45085	22458.39904106569	0.847127490304
0	45090	22460.442448206374	1.085740777571
0	45111	22479.140643933072	1.933629316558
0	45114	22480.287396878592	4.289775377884
0	45137	22491.253170593559	1.222913972204
0	45145	22493.681092944249	1.17026859941
0	45167	22508.378381996211	5.938127310647
0	45202	22517.415086406991	8.343238976279
0	45229	22540.637450204102	4.519261618652
0	45232	22541.460347374214	2.136274530181
0	45264	22566.420483030636	0.972268929053
0	45277	22569.604847747717	4.134310190754
0	45282	22570.732025876339	1.819344366703
0	45314	22576.94613693913	2.394361496336
0	45317	22577.827813618793	8.171921195947
0	45325	22580.116547287977	6.045692781044
0	45339	22582.61865505126	1.70240442567
0	45342	22583.544840833048	21.155058337197
0	45345	22584.361735639224	2.60247690072
0	45370	22590.547141206799	5.401477542337
0	45407	22606.068108674892	1.059037543926
0	45415	22608.280871485647	1.361135592542
0	45440	22622.363859058939	2.370612785597
0	45455	22627.799702216418	5.091011258023
0	45460	22632.225573570999	0.812331205327
0	45487	22645.72820848665	6.301362184412
0	45495	22647.727877767671	5.86910770489
0	45500	22649.063660198164	4.515033667561
0	45540	22667.925670002887	13.468321984506
0	45562	22673.378593592013	3.394856234304
0	45581	22676.384959353639	4.068916375075
0	45584	22677.27920239907	2.541767109625
0	45587	22678.403595018985	2.343791661937
0	45621	22693.323657900686	7.281978224495
0	45641	22697.540904999371	2.255796661094
0	45666	22702.633676652272	11.231025710145
0	45669	22703.613411749002	10.756653273708
0	45682	22706.583302788564	2.015476014793
0	45690	22709.595942663811	4.371980918675
0	45695	22715.186320411144	1.041107083485
0	45700	22717.621162903091	0.841985707916
0	45737	22727.511727467507	5.557057658997
0	45745	22730.132364848573	1.021028132737
0	45769	22735.340454726235	1.01885435041
0	45772	22736.192887315934	1.142627180031
0	45780	22745.76871789639	0.856674156524
0	45830	22764.404384359168	12.437958986595
0	45885	22794.471009041378	1.083638453111
0	45925	22823.511815750765	0.867374879122
0	45930	22827.518080906612	1.046473922767
0	45942	22830.327701448621	2.515707202248
0	45992	22845.821067963652	4.473787966469
0	46022	22863.392389770052	3.750422054651
0	46035	22867.472526804256	0.976475214306
0	46040	22877.543256241887	1.087526621856
0	46045	22883.194367880307	1.020457667857
0	46075	22915.374839136392	6.901054150031
0	46087	22919.484204938727	6.857203807189
0	46090	22920.425472147203	1.921151236593
0	46100	22927.799435463928	3.892312185835
0	46122	22936.80663987099	6.319806821787
0	46125	22937.99347961339	1.843869807866
0	46142	22943.960363258278	4.347258226697
0	46160	22948.844142679777	7.2565286712
0	46165	22951.629784639282	6.170671224613
0	46170	22957.710595094599	1.114624896459
0	46182	22959.936310311131	1.623523465447
0	46212	22974.349936940271	1.114760210179
0	46247	22983.21745538475	12.660961092947
0	46265	22997.253707870293	0.884983784892
0	46270	23009.057269462179	0.939796311315
0	46275	23011.614968318819	1.190576914325
0	46282	23014.2678547596	1.032031131443
0	46300	23029.30275898702	0.868833859917
0	46305	23030.521897251556	4.135238528105
0	46315	23041.791522064891	2.634606042098
0	46344	23051.942210607237	1.360208460239
0	46349	23052.887269072241	1.991119702142
0	46368	23055.666932458996	1.471193852253
0	46378	23057.863815324481	4.736408894667
0	46396	23061.846326734878	11.74770757109
0	46411	23064.814738970443	6.96410133822
0	46414	23065.885067933339	6.448879595167
0	46447	23077.287246726386	1.659957946648
0	46480	23121.137270315917	1.190522040706
0	46487	23124.155838897669	1.105269608926
0	46495	23126.200353290786	0.976842625905
0	46500	23127.750481199558	3.783373256907
0	46517	23135.111691924345	2.055438628623
0	46545	23141.882987312607	1.70093365822
0	46555	23148.835791670498	1.169918716699
0	46585	23165.615122234238	1.651765313092
0	46612	23177.379918996739	1.824104538593
0	46650	23202.196140343872	6.225682876952
0	46665	23205.06244486981	8.637803945188
0	46675	23207.910581477508	5.206084621206
0	46725	23244.774041690066	1.036667962372
0	46785	23266.973442028612	12.91468797133
0	46802	23279.172457581128	2.160602360991
0	46839	23286.369656090079	1.42159187346
0	46861	23289.912253748452	9.528265364748
0	46866	23290.999167853327	15.162711001448
0	46869	23291.995732762211	2.515074266861
0	46872	23293.006066988793	10.502432537298
0	46947	23317.080225685228	10.681474888605
0	46954	23318.154721903138	1.97535165703
0	46967	23321.545046766461	4.015581926922
0	46982	23324.977785469456	0.801104818657
0	46989	23325.968607738292	1.403058299478
0	46997	23328.026348764686	2.141842625259
0	47007	23330.188293379223	9.230173539088
0	47015	23332.985581827344	5.927656012847
0	47020	23337.108897407042	1.175038650818
0	47035	23365.095489405904	2.965820571128
0	47055	23384.494830941099	5.522697771972
0	47080	23391.656105272469	7.153397302179
0	47094	23405.411914234962	1.206562586173
0	47129	23415.454639017199	1.15451468904
0	47132	23416.61296016517	12.24201614397
0	47135	23417.798194355321	5.541553122995
0	47140	23421.160490410845	1.117474291101
0	47145	23425.076234947965	1.019132364076
0	47155	23444.83466896242	1.055758324545
0	47172	23450.925466120471	3.980040864606
0	47214	23464.882371847513	5.089384628242
0	47220	23467.178208325426	8.957516226707
0	47235	23473.184105229054	9.676117244327
0	47240	23476.562562655789	0.859651222546
0	47247	23477.591882099014	0.910273852479
0	47260	23482.513827846965	5.166855530584
0	47270	23488.279783503447	3.739414695697
0	47285	23513.449725489712	0.872914100997
0	47295	23521.129136301199	1.066057156213
0	47300	23522.70420124679	6.817245027875
0	47307	23530.628742868309	1.163775592763
0	47347	23564.765152078764	1.620873064354
0	47357	23566.766306784366	1.249346344523
0	47370	23571.51607360549	8.646062713011
0	47387	23576.044246392733	0.969391392637
0	47400	23579.854626826488	8.098379041769
0	47422	23584.731296292438	8.369500109469
0	47455	23605.380503926518	3.013359066471
0	47460	23607.670252961235	1.166777973808
0	47465	23613.509443163668	0.935091022309
0	47480	23627.390585190636	6.745735393598
0	47500	23646.602171253052	1.128652801365
0	47505	23654.728657603224	0.890361129679
0	47520	23673.494007520273	0.969508562516
0	47535	23692.701004927434	1.022095340397
0	47540	23695.957603151853	0.813990040589
0	47550	23709.566518652242	3.839096393644
0	47565	23713.485499876879	3.451994562573
0	47580	23724.869047602473	1.60725232168
0	47585	23733.348225501054	1.004611384962
0	47592	23748.405298081359	0.836679161619
0	47625	23760.894847296588	2.62673324327
0	47630	23770.954621638526	1.13439601874
0	47637	23791.066095630029	1.117004572786
0	47650	23796.144882035852	1.088471114729
0	47717	23816.874427607313	6.80721062154
0	47750	23827.76081260652	11.140564765106
0	47769	23834.623052295766	3.075677641761
0	47782	23838.484865906139	5.321157600936
0	47800	23844.006426277395	11.684755795053
0	47805	23847.005461526961	4.855429141609
0	47810	23851.92370422679	1.015390354488
0	47820	23856.961687109215	1.061782993842
0	47844	23861.802124221896	4.475582913728
0	47867	23867.245499834962	8.424090150078
0	47890	23873.01090062109	2.628657168922
0	47895	23873.959758021907	0.871337609366
0	47930	23891.300569069423	5.146800439325
0	47945	23898.276090666456	2.35580971062
0	47955	23907.332308155627	4.746929024749
0	47970	23913.137258607281	4.843271720815
0	47985	23932.86157069545	1.18716460513
0	48015	23950.237829552451	7.877185464067
0	48025	23955.694117233448	1.111824049614
0	48055	23988.458905404309	6.555917661998
0	48070	23993.199218491125	4.13847543683
0	48096	24007.81297240425	1.616999594672
0	48116	24012.030129347184	6.284387607226
0	48122	24014.190994703491	2.758627944036
0	48150	24022.035953336094	14.287984062648
0	48160	24025.131364596031	1.780412390132
0	48165	24029.433851014158	1.07163802702
0	48187	24052.739628484549	0.973767279647
0	48195	24055.004319040363	3.170243480009
0	48214	24068.108711788903	0.896408548858
0	48222	24069.939922257053	3.851786543263
0	48225	24070.851208789839	6.904344796085
0	48235	24076.515175683956	5.282271498503
0	48247	24083.118538091455	1.689059652761
0	48255	24086.832406651472	1.010196725745
0	48279	24093.095181093231	1.903915950844
0	48287	24095.011203216721	1.983046536997
0	48290	24096.145501436998	6.18061158089
0	48327	24113.848297182841	4.543382066861
0	48330	24114.999062921757	4.342247781186
0	48337	24122.888827313636	1.009583976772
0	48340	24123.945244505968	1.304222712038
0	48345	24129.811025807836	0.846317560971
0	48370	24145.839174481881	4.524068363768
0	48375	24152.004662865942	1.15968132494
0	48385	24164.150191748204	1.981518772291
0	48390	24169.905891798464	0.936129420716
0	48395	24171.252710363672	0.83765217904
0	48405	24181.42450017156	0.963050870132
0	48437	24198.524803135184	1.39594095712
0	48440	24199.679586838105	1.750032321355
0	48476	24207.307028276529	1.052601433165
0	48510	24215.377834508532	4.092056970486
0	48572	24242.162147871944	4.020631500079
0	48590	24246.560111670238	11.856120820643
0	48612	24251.494774445934	3.97313823048
0	48625	24254.438984164452	6.316092712704
0	48630	24255.956666879707	7.153705458858
0	48635	24260.419382684674	0.957989984192
0	48640	24262.375007377262	1.10403000731
0	48674	24281.600906952165	3.138832310916
0	48685	24284.858554135178	5.69453605129
0	48695	24295.89549708639	1.023092008661
0	48705	24303.420919555873	4.535182060744
0	48710	24305.04781981304	1.120157109294
0	48749	24318.813179938838	1.089256650489
0	48765	24324.881530517205	3.153370993336
0	48775	24329.661538383603	2.612574819382
0	48787	24333.881144816692	2.055519715785
0	48795	24336.539863955928	4.859093790657
0	48800	24340.73989290003	0.98804358067
0	48805	24344.325704472752	0.951087426767
0	48810	24347.06094936846	0.921413333714
0	48815	24352.848498102236	1.143096437305
0	48837	24359.471500519954	1.47537920014
0	48842	24360.667799543508	5.225823069395
0	48850	24362.499421977267	5.699461958008
0	48870	24385.171557216563	3.424732010145
0	48875	24392.110165469701	0.910737157706
0	48927	24444.944555400592	8.344896982668
0	48932	24445.755484160688	1.616754062643
0	48935	24446.588126202114	7.043927140102
0	48940	24451.058912994274	1.008641846292
0	48945	24454.688264638841	0.945070096478
0	48970	24471.108940133724	4.346547922432
0	48980	24474.34565859548	2.16680999271
0	48985	24475.646980825519	1.093752133008
0	48990	24495.067306300061	1.178618396819
0	48995	24496.763592866195	0.923963520583
0	49012	24518.424922448184	0.912958753668
0	49015	24519.489786370817	1.886925438772
0	49025	24534.398095294506	2.258770107683
0	49032	24537.897121981178	0.948295371793
0	49040	24539.932831471246	1.402692598713
0	49064	24545.719433550515	5.45092965351
0	49084	24549.714436453745	3.854038397425
0	49087	24550.756670386508	2.208365248434
0	49092	24551.853026733898	2.479663679099
0	49119	24559.954198626818	1.907702928515
0	49122	24561.108177764917	5.941182025672
0	49130	24571.657720660394	0.952386808302
0	49135	24581.331565567366	1.182646652497
0	49165	24597.055868563105	8.610976570985
0	49199	24615.406141743133	0.99448955711
0	49245	24647.301005515062	0.840195018891
0	49262	24650.527403757702	2.829057307637
0	49280	24658.424599848718	4.951599461119
0	49285	24659.282135614704	0.827084911801
0	49290	24660.262429346913	10.097003500317
0	49327	24672.46099819104	0.987996719964
0	49340	24677.964560514385	3.2501568142
0	49367	24701.486565137186	6.860875102942
0	49372	24702.62639142703	4.652055898119
0	49380	24704.756359252237	1.504365318863
0	49395	24715.16945984666	1.105149640236
0	49405	24717.123942145887	1.271101136594
0	49415	24729.120517470301	2.80620766553
0	49430	24738.477844393371	1.515579180301
0	49435	24740.340975262214	3.535660070238
0	49455	24754.753648699139	1.020944016427
0	49465	24759.762486061129	3.146344078046
0	49470	24762.955235945189	0.933546860795
0	49480	24768.978056401695	3.849901859338
0	49495	24777.071703244695	0.968385682721
0	49500	24786.415287023929	1.011407926399
0	49527	24797.309566439538	1.702025171666
0	49535	24799.136025430298	1.431737976724
0	49540	24802.509497882189	8.761255524489
0	49570	24818.707633825668	3.716465236548
0	49587	24826.426838050027	12.267008330965
0	49590	24827.502909585171	1.511954447195
0	49595	24830.757283153732	0.925367684383
0	49600	24846.232891915923	0.855530066881
0	49607	24847.668121853922	1.052037882339
0	49610	24848.4936966298	1.40122927827
0	49632	24858.545284012788	4.05433268965
0	49635	24859.603711364129	3.961582652114
0	49642	24864.320236993338	1.103090150654
0	49660	24869.025988898549	5.406798839675
0	49672	24873.485238371415	2.282837903747
0	49707	24888.874850043835	3.038632254552
0	49722	24892.233053369978	1.960062308736
0	49725	24893.396682490659	1.746675838955
0	49742	24897.164362676394	1.579956534735
0	49762	24902.381725558282	4.391049995241
0	49769	24903.541072007098	2.322346109282
0	49777	24905.330399174631	2.43759238262
0	49792	24910.086400062965	0.844692043401
0	49800	24912.220693718992	15.132655202941
0	49810	24919.47545794441	0.818093088362
0	49822	24931.042740701201	2.982114659814
0	49825	24932.00510164431	0.987918541093
0	49842	24951.096433252127	0.966734854784
0	49870	24981.470072242799	1.142176306713
0	49875	24994.699324315029	0.963111230079
0	49880	24997.522891597854	1.084795982856
0	49900	25019.513910413717	0.810087853018
0	49920	25035.269939657769	0.92889777692
0	49940	25050.844005621252	1.193844726589
0	49960	25055.63831399953	3.282413744647
0	49967	25058.020957382298	0.867075479031
0	49992	25063.366377292816	6.093388032818
0	49995	25064.372275603526	3.239419547308
0	50010	25083.404918999396	3.448063058997
0	50020	25086.244364289914	5.020903591894
0	50045	25094.384542084597	5.22649733523
0	50050	25100.500946143845	0.983438115288
0	50055	25119.033265437011	1.065023764409
0	50060	25123.751051467641	1.051768745482
0	50086	25129.228324569825	1.631726963374
0	50111	25134.260359344974	4.533183017377
0	50114	25135.390671010937	9.968497642178
0	50137	25140.525735427315	7.819002947141
0	50155	25145.592299324747	6.36973567708
0	50160	25150.349761433648	1.166696305666
0	50177	25156.346021182106	3.97920661703
0	50180	25157.433729234261	3.497347488952
0	50195	25165.810570598584	0.848299303185
0	50200	25171.466661629265	1.057005179208
0	50225	25185.151013744484	8.988589694535
0	50230	25186.62872736239	0.863663488813
0	50257	25197.872541593889	1.647936518639
0	50272	25201.032964165544	2.477735762723
0	50290	25205.838454270436	10.228903241027
0	50302	25223.819639043289	3.80140929694
0	50315	25229.09129910837	5.610671208524
0	50344	25239.30836854911	1.334058090583
0	50349	25240.175000869842	6.6472725276
0	50352	25241.034883438969	1.526456388686
0	50362	25242.990383610675	1.159532456491
0	50370	25250.203643936751	1.139950200729
0	50380	25252.617370004945	1.022593714307
0	50390	25256.987125034463	1.070372077357
0	50415	25280.690257104658	2.810604989883
0	50420	25292.852915216642	1.02838931689
0	50462	25314.971247190706	2.775602437461
0	50485	25332.768652688794	0.880027588271
0	50500	25340.438426646151	2.304319890961
0	50505	25341.958619290655	1.119241455477
0	50532	25355.375879933228	7.630974426184
0	50562	25362.276685655992	1.197233275976
0	50595	25370.246198801501	3.962302015433
0	50600	25372.046085733471	23.966497547932
0	50612	25379.084003147276	1.095076788682
0	50620	25381.905140220787	3.537510111376
0	50645	25397.946640272585	1.265372227686
0	50674	25403.78131488242	8.995738101386
0	50690	25407.858707490532	5.231843859326
0	50695	25416.080110806954	1.057735002972
0	50707	25418.910708705357	1.873134681986
0	50730	25426.659633011766	8.231336197705
0	50735	25447.656947443623	1.113493886683
0	50740	25449.742589876121	1.066977239959
0	50745	25458.442397254764	0.811527158972
0	50757	25463.525931618848	3.238895464187
0	50770	25469.360702911773	0.848516317457
0	50810	25491.860371772394	1.001083712932
0	50820	25494.403990064578	1.150243649141
0	50825	25495.837358426638	9.188342102207
[...]
7	59510	29708.520348085213	1
7	59511	29708.937416052123	0
7	59515	29709.916994405686	1
7	59516	29710.085800665667	0
7	59575	29751.746844391585	1
7	59576	29752.45618571736	0
7	59585	29754.671292510114	1
7	59586	29754.731856935695	0
7	59617	29762.416334809383	1
7	59618	29763.142734544418	0
7	59627	29764.85940811123	1
7	59628	29765.017826730172	0
7	59655	29774.337136099362	1
7	59657	29774.865439523104	2
7	59658	29775.255388198166	1
7	59661	29776.209890181689	0
7	59705	29789.094538611918	1
7	59706	29789.479921069085	0
7	59722	29807.908282384309	1
7	59723	29808.288715846506	0
7	59742	29813.823427095191	1
7	59743	29813.823735935203	0
7	59765	29822.342899230386	1
7	59766	29822.608969100356	0
7	59795	29830.516095595633	1
7	59796	29830.672921477626	0
7	59800	29831.377310879511	1
7	59801	29831.860308224424	0
7	59830	29838.853517363766	1
7	59833	29839.314584679184	0
7	59852	29853.109751614266	1
7	59853	29853.222760520872	0
7	59860	29854.886312193324	1
7	59861	29854.893632633515	0
7	59865	29855.042956078836	1
7	59867	29855.092881634713	2
7	59870	29855.840177707184	1
7	59873	29857.020315828264	0
7	59877	29857.117220223369	1
7	59878	29858.108976163712	0
7	59885	29859.246845285855	1
7	59886	29860.075980631446	0
7	59905	29864.651885032485	1
7	59907	29864.871098517674	2
7	59908	29865.747461294433	1
7	59913	29866.811834305482	0
7	59917	29867.427065231809	1
7	59921	29867.741681675116	2
7	59922	29867.982505540786	1
7	59926	29868.17993844381	2
7	59927	29869.160867020445	1
7	59931	29870.024535126895	2
7	59932	29870.284441865193	1
7	59936	29870.916135383516	2
7	59937	29871.435369877382	1
7	59941	29871.649598200735	2
7	59944	29872.35775042647	1
7	59948	29873.375722555045	2
7	59949	29873.505013384628	1
7	59952	29874.381539152148	0
7	59956	29874.561968955443	1
7	59957	29875.333251689425	0
7	59961	29875.617931208241	1
7	59962	29876.316642144745	0
7	60010	29893.516833486443	1
7	60011	29893.799433584465	0
7	60085	29916.328799860959	1
7	60086	29916.714074939245	0
7	60095	29918.511371935248	1
7	60096	29918.873967519782	0
7	60100	29919.959812108023	1
7	60101	29920.001289956931	0
7	60130	29942.30499019821	1
7	60131	29943.051325345677	0
7	60165	29969.884963547905	1
7	60166	29970.874783601506	0
8	20842	10241.271177227297	1
8	20846	10242.307698096552	0
8	20990	10312.89508302898	1
8	20991	10313.08473678564	0
8	20995	10314.057427552224	1
8	20996	10316.491342552643	0
8	21000	10317.495149820748	1
8	21001	10318.346594551895	0
8	21282	10456.430248415189	1
8	21284	10456.487045364841	0
8	21960	10814.997652916574	1
8	21961	10815.114908734364	0
8	21967	10816.303698310749	1
8	21969	10816.572067931879	0
8	21985	10820.342916919504	1
8	21986	10821.264332626606	0
8	21995	10823.2114841509	1
8	21996	10825.887176142001	0
8	22227	10968.809209012155	1
8	22229	10969.748851070216	0
8	22257	10975.273657517515	1
8	22259	10975.538667000416	0
8	22300	10986.625025789833	1
8	22301	10986.700415777687	0
8	22422	11012.937937227772	1
8	22424	11013.27693887549	0
8	22712	11195.840317204047	1
8	22716	11196.758144907371	0
8	22767	11208.106092332759	1
8	22771	11209.804437582626	0
8	23300	11513.369062108476	1
8	23301	11513.562073148697	0
8	23865	11781.667634654745	1
8	23866	11781.950171564553	0
8	24445	12141.181679627337	1
8	24457	12144.018958768498	2
8	24459	12144.251261612154	1
8	24466	12145.375348960802	0
8	24469	12146.203511293855	1
8	24471	12146.953794196977	0
8	24722	12266.836893235722	1
8	24724	12267.302887869235	0
8	24730	12268.97140868792	1
8	24739	12275.839943596135	0
8	24745	12277.203139934674	1
8	24746	12277.454071268068	0
8	24750	12278.362350631693	1
8	24751	12278.836264143894	0
8	25045	12389.581346356041	1
8	25051	12390.950122814657	0
8	25054	12391.835378200286	1
8	25056	12392.731519181774	0
8	25215	12464.704968749104	1
8	25216	12465.828438438215	0
8	25285	12493.298896513832	1
8	25286	12493.71218125594	0
8	25290	12494.716493013754	1
8	25291	12494.729921521724	0
8	25460	12613.933361224081	1
8	25461	12615.001262594802	0
8	25795	12779.601789098951	1
8	25796	12779.826616245897	0
8	25927	12836.458101429201	1
8	25929	12837.211561788083	0
8	25945	12842.250981944396	1
8	25946	12842.537808439943	0
8	25955	12844.707831896345	1
8	25956	12846.437909169169	0
8	26177	12936.35931879865	1
8	26179	12936.707701379095	0
8	26609	13147.617134773398	1
8	26611	13147.622723365646	0
8	26614	13148.639397477584	1
8	26616	13148.68938124921	0
8	26974	13322.590935378829	1
8	26976	13323.256149675572	0
8	26979	13323.649801171506	1
8	26981	13323.928995268508	0
8	26986	13324.745046841009	1
8	26988	13325.16436561036	0
8	26991	13325.550400969694	1
8	26996	13326.706886721923	0
8	27067	13343.720735871057	1
8	27071	13345.097801408553	0
8	27430	13530.728784818718	1
8	27431	13531.629653184518	0
8	27449	13535.021137184586	1
8	27452	13536.187125920254	2
8	27454	13536.919667946509	1
8	27459	13537.857839449111	0
8	27491	13543.30506976613	1
8	27493	13544.379213127367	0
8	27575	13573.371663845656	1
8	27576	13577.127350900799	0
8	27710	13622.63534425224	1
8	27711	13622.96532420134	0
8	27715	13623.888232052231	1
8	27716	13624.658336302908	0
8	27780	13644.35287555573	1
8	27781	13644.528769368714	0
8	27945	13712.533829401549	1
8	27946	13712.791779341294	0
8	28117	13814.401438687607	1
8	28126	13817.201007241408	0
8	28180	13846.520802044135	1
8	28181	13847.802337488466	0
8	28857	14254.64650397923	1
8	28859	14255.181191394405	0
8	28867	14256.713364650106	1
8	28869	14257.150000823177	0
8	28877	14258.747844899522	1
8	28879	14259.322685909302	0
8	29085	14360.106498993776	1
8	29086	14360.464481546957	0
8	29875	14822.314722563375	1
8	29884	14824.176468093266	0
8	31441	15593.154722192054	1
8	31443	15593.776230090113	0
8	31757	15699.853692531388	1
8	31761	15701.090152519381	0
8	31969	15791.486570706488	1
8	31971	15791.609068461694	0
8	33005	16381.591926298361	1
8	33006	16382.678512171326	0
8	33094	16405.910135833515	1
8	33096	16405.937845932596	0
8	33109	16408.97104673252	1
8	33111	16409.702712170457	0
8	33270	16488.358672144275	1
8	33271	16488.427635225651	0
8	33655	16704.579762658275	1
8	33656	16705.026496467641	0
8	33675	16710.711297990218	1
8	33676	16710.73185120041	0
8	33857	16784.667992622406	1
8	33861	16785.364924583786	0
8	34135	16947.079153442783	1
8	34136	16948.484531059829	0
8	34147	16950.662249903721	1
8	34149	16950.795232390507	0
8	34484	17108.118560772952	1
8	34486	17108.487594366108	0
8	35290	17418.014524767816	1
8	35291	17419.337533839943	0
8	35295	17420.428928282449	1
8	35296	17420.560570075459	0
8	35302	17421.578242381758	1
8	35305	17422.630561661909	2
8	35306	17423.243676272187	1
8	35310	17424.20400946109	2
8	35311	17424.943657959439	1
8	35314	17425.271541930427	0
8	35317	17425.945411422197	1
8	35319	17426.006941402981	0
8	35472	17558.983861332285	1
8	35474	17558.985430617897	0
8	35525	17579.22377527627	1
8	35526	17580.638599565683	0
8	35547	17584.507724992896	1
8	35549	17585.050749249038	0
8	35555	17586.436901087931	1
8	35559	17586.536333987086	0
8	35802	17699.402255995282	1
8	35804	17699.432874562434	0
8	36207	17924.302859039922	1
8	36209	17924.427064092217	0
8	36225	17928.511408218685	1
8	36226	17928.6696322983	0
8	36230	17929.482020226108	1
8	36231	17931.958624068654	0
8	36360	17999.789638389688	1
8	36364	18000.280510261996	0
8	36427	18026.652663081303	1
8	36429	18026.982874263128	0
8	37000	18332.790996660399	1
8	37004	18333.530764366319	0
8	37017	18336.652036663188	1
8	37019	18336.768149953984	0
8	37032	18339.694545949294	1
8	37036	18341.108983442349	0
8	37120	18403.331415743635	1
8	37125	18404.749240207215	2
8	37126	18407.517753117924	1
8	37129	18408.003797937892	0
8	37132	18408.641240825524	1
8	37137	18409.472547909172	2
8	37141	18409.996367645705	1
8	37146	18410.862584899331	0
8	37159	18413.790262423943	1
8	37161	18413.958628803991	0
8	37164	18414.70383034332	1
8	37166	18415.284688257416	0
8	37169	18415.510469400718	1
8	37174	18416.927199761208	0
8	37180	18418.20135224473	1
8	37184	18419.541860209242	0
8	37190	18420.62687165505	1
8	37191	18421.071180270342	0
8	37195	18421.98596187002	1
8	37196	18423.655802846451	0
8	37205	18425.607507968632	1
8	37206	18425.822510102325	0
8	37377	18497.311627198914	1
8	37379	18497.341960578904	0
8	38725	19289.403869333849	1
8	38726	19290.307474399591	0
8	38760	19297.285875225672	1
8	38761	19297.442372416358	0
8	38955	19370.513597305644	1
8	38956	19370.935585022032	0
8	38960	19371.805786572922	1
8	38961	19373.091668641754	0
8	39495	19618.184020196788	1
8	39496	19619.343297571542	0
8	39500	19620.406933676491	1
8	39501	19620.915386096516	0
8	39535	19643.494887809984	1
8	39536	19643.501156667766	0
8	39549	19645.394534551685	1
8	39551	19645.410983955761	0
8	40014	19916.955267390041	1
8	40016	19917.219996336351	0
8	40021	19917.769449996753	1
8	40023	19918.830137231322	0
8	40182	19994.534285021592	1
8	40191	19997.665858744546	0
8	40367	20087.709066033356	1
8	40369	20087.973195650173	0
8	41152	20612.276053830237	1
8	41164	20614.885354877344	0
8	41915	21004.852299917716	1
8	41916	21004.930161029065	0
8	42002	21035.415723747076	1
8	42004	21036.053261314662	0
8	42015	21038.482264033394	1
8	42016	21043.160368363011	0
8	42464	21245.258922080173	1
8	42466	21245.687153507418	0
8	43336	21564.981054245975	1
8	43338	21565.201707806949	0
8	43341	21565.959511224475	1
8	43343	21566.525834803914	0
8	43354	21568.935236814912	1
8	43356	21569.836424904451	0
8	43361	21570.124935602225	1
8	43363	21570.864138227302	0
8	43492	21630.621712246871	1
8	43496	21633.617081174114	0
8	43780	21764.766852010989	1
8	43784	21767.624854960208	0
8	43930	21813.794010947734	1
8	43931	21815.216529758734	0
8	44450	22169.022578707344	1
8	44451	22169.48520355236	0
8	44847	22346.890247446832	1
8	44849	22347.354511947959	0
8	45304	22574.930743549369	1
8	45307	22575.839060686506	2
8	45309	22576.042946938128	1
8	45311	22576.513859569754	0
8	45636	22696.391924881782	1
8	45643	22698.339669748777	0
8	45656	22700.427367087208	1
8	45658	22700.438715633721	0
8	46070	22913.51423020561	1
8	46071	22914.176375452258	0
8	46135	22942.470795469989	1
8	46136	22942.79068511617	0
8	46155	22947.386613499708	1
8	46156	22947.69005144462	0
8	46645	23200.328152117082	1
8	46646	23201.020512287774	0
8	46660	23204.170076315558	1
8	46661	23204.211033516851	0
8	46817	23282.37611645927	1
8	46827	23284.345062211541	2
8	46834	23285.668277760617	1
8	46836	23285.699518046413	0
8	47122	23414.366676467088	1
8	47124	23415.110107038272	0
8	47197	23460.602165280775	1
8	47201	23463.016052534054	0
8	47395	23578.045526727418	1
8	47396	23578.917552682676	0
8	47775	23836.747960208453	1
8	47776	23837.333751807598	0
8	47795	23842.979292570899	1
8	47796	23843.176364794291	0
8	48099	24008.843191868999	1
8	48104	24010.139893572307	0
8	48205	24066.926731393006	1
8	48209	24067.334122225215	0
8	48320	24111.461390890244	1
8	48321	24112.692140485903	0
8	48915	24441.388154809237	1
8	48916	24442.851513449569	0
8	49270	24654.668865354483	1
8	49271	24655.127973476414	0
8	49275	24656.101697872568	1
8	49276	24657.527975430929	0
8	49355	24699.142603063398	1
8	49359	24699.877357603479	0
8	49560	24816.355839910242	1
8	49561	24816.73321201028	0
8	49750	24899.166949388616	1
8	49751	24900.409898462814	0
8	50099	25132.329511689085	1
8	50101	25132.434781312372	0
8	50170	25155.007703225099	1
8	50171	25155.270616464798	0
8	50515	25349.935456080866	1
8	50516	25350.316033670534	0
8	50525	25352.337624576915	1
8	50526	25354.531380092641	0
8	51270	25730.809276945335	1
8	51271	25730.813065327549	0
8	51465	25872.047236992895	1
8	51466	25872.653889047035	0
8	51495	25878.807118843569	1
8	51496	25879.031312828114	0
8	52252	26270.79498676867	1
8	52254	26271.432990450635	0
8	52260	26272.643532118711	1
8	52261	26273.672155140378	0
8	52265	26274.797062615622	1
8	52266	26275.187955405574	0
8	52782	26582.838385288321	1
8	52784	26582.946260666709	0
8	52820	26594.514368534189	1
8	52821	26595.630994213836	0
8	52897	26630.977819959557	1
8	52899	26631.269530958009	0
8	52994	26672.348635060501	1
8	52996	26672.696876461751	0
8	53262	26787.821524940385	1
8	53269	26790.628899951689	0
8	53395	26848.749909185272	1
8	53396	26849.256168491818	0
8	53400	26850.15579300826	1
8	53401	26850.585569000384	0
8	53415	26853.855671797366	1
8	53416	26854.232896135603	0
8	53432	26857.162882389636	1
8	53434	26857.69154447778	0
8	53509	26877.910768039452	1
8	53514	26879.033599889619	0
8	53535	26884.036597078872	1
8	53536	26884.331830938499	0
8	53552	26887.960906909054	1
8	53554	26888.392007330888	0
8	53855	27006.174823365827	1
8	53856	27006.309872172222	0
8	53875	27010.128463445612	1
8	53876	27012.149980802756	0
8	53880	27013.010856912486	1
8	53886	27015.097083201344	0
8	54417	27338.756064919111	1
8	54421	27339.627663896177	0
8	54830	27575.291199459328	1
8	54831	27578.042994963443	0
8	54835	27579.0952847894	1
8	54836	27579.790486154362	0
8	54859	27584.000582272495	1
8	54864	27585.746472267734	0
8	54867	27586.149875336542	1
8	54869	27586.930376971334	0
8	54880	27588.833991645027	1
8	54881	27589.218826758729	0
8	55265	27770.391858034763	1
8	55266	27770.940065685795	0
8	55605	28035.556694690358	1
8	55606	28039.88802285951	0
8	55907	28165.235889486554	1
8	55909	28165.964851053513	0
8	55920	28168.420256385538	1
8	55921	28168.872786270309	0
8	55925	28169.884899972792	1
8	55931	28172.41088151643	0
8	56277	28348.1435346538	1
8	56281	28348.627238330235	0
8	56289	28349.927198143097	1
8	56292	28350.952350988591	2
8	56296	28351.227808988046	1
8	56298	28351.488620523018	0
8	56320	28354.97829108916	1
8	56322	28355.298748010214	0
8	56374	28365.274453851374	1
8	56377	28366.190728384981	2
8	56379	28366.193736875235	1
8	56381	28366.237783713339	0
8	56389	28367.98785281943	1
8	56391	28368.447410663637	0
8	56500	28394.447912360435	1
8	56501	28394.620430042902	0
8	56575	28430.821395313804	1
8	56576	28431.836357039993	0
8	56587	28433.956727480644	1
8	56591	28435.920156979586	0
8	56765	28516.065100884339	1
8	56766	28516.305460152001	0
8	56770	28517.29904509277	1
8	56771	28518.60014229185	0
8	57970	29004.965863322022	1
8	57976	29006.660921561366	0
8	58495	29263.027885095935	1
8	58496	29263.819781112079	0
8	58502	29264.874660346438	1
8	58504	29265.127546497998	0
8	59097	29569.255328906901	1
8	59099	29569.698121016213	0
8	59104	29570.259141928345	1
8	59106	29570.473849167717	0
8	59122	29573.825636624094	1
8	59126	29574.961554077484	0
8	59178	29583.879546595022	1
8	59181	29584.772895741679	2
8	59183	29584.840672208077	1
8	59185	29584.858645853658	0
8	59208	29589.632567783289	1
8	59210	29590.101570550416	0
8	59225	29592.390008214612	1
8	59233	29594.672021772603	0
8	59507	29708.056473868017	1
8	59509	29708.520348085213	0
8	59945	29872.35775042647	1
8	59947	29873.375722555045	0
9	22364	10999.888459370349	1
9	22369	11000.907569055795	0
9	23365	11543.610615368404	1
9	23366	11547.128266996676	0
9	23755	11747.467947440445	1
9	23756	11747.865836931826	0
9	23762	11748.876649687314	1
9	23764	11749.643100205562	0
9	23772	11750.995534734023	1
9	23774	11751.124072823535	0
9	23782	11753.340234387075	1
9	23786	11754.136668524468	0
9	23817	11760.371015003663	1
9	23819	11760.387357343075	0
9	24555	12181.712641790944	1
9	24556	12183.670058162465	0
9	24615	12229.374098370988	1
9	24616	12229.717468976775	0
9	24620	12230.722268695464	1
9	24621	12233.807404172936	0
9	24625	12234.945204595806	1
9	24631	12236.653231249573	0
9	25115	12430.034001535607	1
9	25116	12430.161442268048	0
9	25120	12431.263962066699	1
9	25121	12431.81040141366	0
9	25125	12432.833895510785	1
9	25131	12436.700721254406	0
9	25695	12733.30151085529	1
9	25701	12736.104267787893	0
9	26795	13238.856502779742	1
9	26796	13239.591653956643	0
9	26800	13240.724395877479	1
9	26804	13243.672601399016	0
9	27045	13337.219790667882	1
9	27046	13337.281322972558	0
9	28007	13746.593246949922	1
9	28009	13746.737658240292	0
9	29530	14665.742189972325	1
9	29534	14666.036180142595	0
9	29584	14676.104359720267	1
9	29589	14678.004873304169	0
9	29670	14701.956204515742	1
9	29671	14703.146082552103	0
9	30130	14942.613901100114	1
9	30136	14943.704967641985	0
9	30715	15229.367443008263	1
9	30716	15230.604487354222	0
9	31492	15604.27315140265	1
9	31496	15605.873443286816	0
9	31602	15636.129577145757	1
9	31604	15636.488766693265	0
9	31610	15637.756227654902	1
9	31611	15639.070674578244	0
9	31615	15640.047023911638	1
9	31616	15641.123516783665	0
9	32205	15948.218316742709	1
9	32206	15952.359988640033	0
9	32310	16037.768381349091	1
9	32311	16038.473004191944	0
9	32467	16106.405380577524	1
9	32471	16108.826182068592	0
9	32475	16109.993785857676	1
9	32476	16110.302181546684	0
9	32879	16338.781729741625	1
9	32881	16339.226567662814	0
9	33605	16694.097115081399	1
9	33606	16694.499594179617	0
9	34664	17177.988292033896	1
9	34666	17178.172631846128	0
9	34735	17193.193557576946	1
9	34736	17193.894997035561	0
9	34900	17237.429305483477	1
9	34901	17238.37790099641	0
9	36087	17889.914593699839	1
9	36094	17891.224579192346	0
9	36097	17891.902670817994	1
9	36099	17892.445914252176	0
9	36150	17906.683687072214	1
9	36151	17907.433627323764	0
9	39090	19423.231092914393	1
9	39091	19423.287333736584	0
9	39095	19424.40788527738	1
9	39096	19425.217036121107	0
9	39397	19585.830028516515	1
9	39401	19586.191674889988	0
9	41680	20852.161046086663	1
9	41681	20854.15358101871	0
9	42260	21138.399984534984	1
9	42261	21139.325866175835	0
9	42454	21243.043044760487	1
9	42456	21243.409705820614	0
9	42720	21333.728078574884	1
9	42724	21334.619047479444	0
9	43402	21580.384666683825	1
9	43406	21581.570300656321	0
9	43410	21582.635010148535	1
9	43411	21583.527277805782	0
9	45725	22724.655687717472	1
9	45726	22725.446242256325	0
9	45850	22778.294073581728	1
9	45851	22779.074206069252	0
9	46525	23137.137239526373	1
9	46526	23137.695573274891	0
9	46570	23159.381187309078	1
9	46571	23160.33925026544	0
9	48432	24197.64175105804	1
9	48441	24200.340528312154	0
9	48460	24204.509216501672	1
9	48464	24205.539388123608	0
9	48520	24218.123179244167	1
9	48521	24220.065654524395	0
9	48525	24221.205985762903	1
9	48526	24222.393227960439	0
9	49300	24663.809722591146	1
9	49301	24664.530562857028	0
9	49305	24665.49527530526	1
9	49306	24665.65296342313	0
9	50240	25190.377982821254	1
9	50241	25194.308289618614	0
9	52460	26381.582956832682	1
9	52461	26381.585548557795	0
9	52510	26401.311766642754	1
9	52511	26402.434797454087	0
9	52515	26403.63159529308	1
9	52516	26404.486101502389	0
9	52520	26405.61381844005	1
9	52521	26405.805649786731	0
9	52735	26567.066839199286	1
9	52736	26567.264227289057	0
9	52745	26569.486793251431	1
9	52746	26571.515248980214	0
9	53020	26677.733595510919	1
9	53024	26679.270063763026	0
9	53030	26681.265304781758	1
9	53034	26682.159217148356	0
9	56715	28498.099299540032	1
9	56716	28499.431553355972	0
9	56720	28500.448509330856	1
9	56724	28503.070687820422	0
9	56931	28564.67150898083	1
9	56934	28565.700701007255	2
9	56939	28566.971146397839	1
9	56942	28567.97043853701	2
9	56944	28568.076143747089	1
9	56946	28568.939912277047	0
9	56949	28569.09408296422	1
9	56951	28569.72254088627	0
9	56959	28570.995215339408	1
9	56964	28572.44004503639	0
9	57520	28845.531483893962	1
9	57521	28845.537363070773	0
9	57534	28847.348706453631	1
9	57536	28848.00300878103	0
9	57615	28873.076834744588	1
9	57619	28874.872965215042	0
9	57640	28879.435604296473	1
9	57644	28880.216626048743	0
9	57680	28895.104953495632	1
9	57681	28897.841411123456	0
9	57685	28899.039583232844	1
9	57686	28899.097968239803	0
9	57697	28901.237008814141	1
9	57699	28901.454078012333	0
9	57717	28905.334106937329	1
9	57719	28905.611644258133	0
9	57802	28941.640976761528	1
9	57804	28941.730539491485	0
9	57815	28944.918235640382	1
9	57816	28945.49688040981	0
9	58325	29170.129053663266	1
9	58326	29171.121394643668	0
9	58332	29171.922584023528	1
9	58334	29172.097924462555	0
9	58577	29290.092358328561	1
9	58586	29292.614113896331	0
9	59332	29631.203027192109	1
9	59334	29631.225772714647	0
9	59350	29635.089789211915	1
9	59351	29635.282816574647	0
9	59460	29698.404375190979	1
9	59461	29698.857511293938	0
9	59680	29781.659320657922	1
9	59681	29782.559879241979	0
9	60020	29897.533980533939	1
9	60021	29898.577704006133	0
9	60070	29913.021487448382	1
9	60071	29913.216579514996	0
9	60075	29914.13896548373	1
9	60076	29914.859750959871	0

