version 2
run Second_exit_8-19-20191114-11:42:49-8971
attr configname Second_exit_8
attr datetime 20191114-11:42:49
attr experiment Second_exit_8
attr inifile omnetpp.ini
attr iterationvars ""
attr iterationvarsf ""
attr measurement ""
attr network ResponseTimeNetwork
attr processid 8971
attr repetition 19
attr replication #19
attr resultdir results
attr runnumber 19
attr seedset 19
param **.Source.interArrivalTime exponential(5s)
param **.jobPriority bernoulli(0.6)
param **.PS.serviceTimeU1 "uniform(0.8s, 1.2s)"
param **.PS.serviceTimeU2 "uniform(1.8s, 2.2s)"
param **.SS1.serviceTime exponential(1s)
param **.SS2.serviceTime exponential(1.2s)
param **.PS.exitProbability bernoulli(0.8)

vector 0 ResponseTimeNetwork.QueueU1 queueLength:vector ETV
attr interpolationmode sample-hold
attr title "queue length, vector"
vector 1 ResponseTimeNetwork.SS1 queueLength:vector ETV
attr interpolationmode sample-hold
attr title "queue length, vector"
vector 2 ResponseTimeNetwork.sink lifeTimeU1:vector ETV
attr interpolationmode none
attr title "lifetime of arrived jobs U1, vector"
attr unit s
vector 3 ResponseTimeNetwork.sink totalServiceTimeU1:vector ETV
attr interpolationmode none
attr title "the total time spent  by arrived jobs U1, vector"
attr unit s
vector 4 ResponseTimeNetwork.sink lifeTime:vector ETV
attr interpolationmode none
attr title "lifetime of arrived jobs, vector"
attr unit s
vector 5 ResponseTimeNetwork.sink totalServiceTime:vector ETV
attr interpolationmode none
attr title "the total time spent  by arrived jobs, vector"
attr unit s
vector 6 ResponseTimeNetwork.QueueU2 queueLength:vector ETV
attr interpolationmode sample-hold
attr title "queue length, vector"
vector 7 ResponseTimeNetwork.SS2 queueLength:vector ETV
attr interpolationmode sample-hold
attr title "queue length, vector"
vector 8 ResponseTimeNetwork.sink lifeTimeU2:vector ETV
attr interpolationmode none
attr title "lifetime of arrived jobs U2, vector"
attr unit s
vector 9 ResponseTimeNetwork.sink totalServiceTimeU2:vector ETV
attr interpolationmode none
attr title "the total time spent  by arrived jobs U2, vector"
attr unit s
0	50037	10000.174766760064	0
0	50041	10000.379241582191	1
0	50043	10000.49232596587	2
0	50044	10001.290026606923	1
0	50048	10001.53188025668	2
0	50049	10002.111711502751	1
0	50053	10002.456420671111	2
0	50054	10003.224334924319	1
0	50057	10004.21273294373	0
0	50061	10004.753583933081	1
0	50062	10005.185746675567	0
0	50066	10005.378908238265	1
0	50068	10005.790838454879	2
0	50069	10006.28109000607	1
0	50073	10006.379365246474	2
0	50075	10007.124028879488	3
0	50076	10007.346063312726	2
0	50080	10007.510838318153	3
0	50081	10008.447731900426	2
0	50084	10009.271183811525	1
0	50088	10009.419078908718	2
0	50090	10010.085163874901	3
0	50091	10010.316104902631	2
0	50095	10010.704204949725	3
0	50096	10011.251121120366	2
0	50100	10011.706299660804	3
0	50101	10012.271185904114	2
0	50104	10013.357023062209	1
0	50107	10014.500513087703	0
0	50114	10016.281412658826	1
0	50115	10016.287431882812	0
0	50219	10038.363365914686	1
0	50221	10039.107351073356	2
0	50222	10039.164032570389	1
0	50228	10039.775009911098	2
0	50229	10040.022479512473	1
0	50233	10040.289035706905	2
0	50238	10041.006674539973	1
0	50241	10041.95913775193	0
0	50245	10041.991131369835	1
0	50247	10042.165001478179	2
0	50252	10042.992075829976	1
0	50255	10044.111960226041	0
0	50259	10044.250137078446	1
0	50263	10044.700938070945	2
0	50265	10045.299066594784	3
0	50266	10045.308420394291	2
0	50272	10045.86503009225	3
0	50273	10046.407803492737	2
0	50276	10047.379167716973	1
0	50280	10047.768325360067	2
0	50281	10048.5054391145	1
0	50285	10049.417083205012	2
0	50286	10049.552792228967	1
0	50289	10050.457525794696	0
0	50296	10051.326117938515	1
0	50298	10051.93622280352	2
0	50299	10052.477220783219	1
0	50303	10052.555268549766	2
0	50304	10053.464397379779	1
0	50310	10054.05588044941	2
0	50311	10054.524704441917	1
0	50316	10055.456971607194	0
0	50320	10055.641135055593	1
0	50321	10056.26382186322	0
0	50325	10056.4489626235	1
0	50328	10057.131452725292	0
0	50332	10057.904647149775	1
0	50333	10058.078626505867	0
0	50337	10058.152393588743	1
0	50338	10059.169294748571	0
0	50348	10061.74804216801	1
0	50350	10061.906936643629	2
0	50353	10062.276829877704	1
0	50359	10063.15006339056	2
0	50360	10063.195487706944	1
0	50363	10064.140828588348	0
0	50367	10064.219159420271	1
0	50368	10065.274450998217	0
0	50374	10066.172980199931	1
0	50375	10066.190670150541	0
0	50382	10067.577232482299	1
0	50383	10068.168755987402	0
0	50395	10070.454986246002	1
0	50397	10070.664778268528	2
0	50399	10071.156471757849	3
0	50400	10071.300478725809	2
0	50403	10072.203309264894	1
0	50406	10073.261076865367	0
0	50422	10075.720861254254	1
0	50423	10076.085092146158	0
0	50427	10076.251117277381	1
0	50429	10076.448613264368	2
0	50430	10077.135744651429	1
0	50438	10078.138926835065	2
0	50439	10078.210879899677	1
0	50442	10079.075033587985	0
0	50452	10081.652662051095	1
0	50453	10081.939842960446	0
0	50467	10084.4055635126	1
0	50468	10085.013463216949	0
0	50477	10086.144049140096	1
0	50479	10086.40799601791	2
0	50480	10086.905641448706	1
0	50485	10087.782890159659	0
0	50489	10088.475917934099	1
0	50491	10088.921785471466	2
0	50492	10088.965377897791	1
0	50496	10089.361884117548	2
0	50497	10089.977996376924	1
0	50500	10090.838606139667	0
0	50509	10092.332738912597	1
0	50510	10092.908830801327	0
0	50523	10095.725495445623	1
0	50526	10096.552853636932	0
0	50530	10096.676483331504	1
0	50531	10097.548956866678	0
0	50535	10097.999531413985	1
0	50536	10098.729371362854	0
0	50546	10101.099096849024	1
0	50547	10101.495395762123	0
0	50553	10102.20083115722	1
0	50554	10102.474553328588	0
0	50558	10103.381125408062	1
0	50559	10103.52911631076	0
0	50563	10104.241995948585	1
0	50564	10104.635706083964	0
0	50573	10106.340337636821	1
0	50574	10106.633723725679	0
0	50583	10108.204701863428	1
0	50584	10108.37218224073	0
0	50594	10110.892136003105	1
0	50595	10111.288232725693	0
0	50601	10111.534737517002	1
0	50602	10112.187000051813	0
0	50609	10113.307610957999	1
0	50610	10113.92134232728	0
0	50617	10115.349849118781	1
0	50620	10115.808584262451	0
0	50624	10115.882686300777	1
0	50625	10116.825678618179	0
0	50629	10116.852186654912	1
0	50631	10116.904380103389	2
0	50632	10117.973445907721	1
0	50636	10118.123695967928	2
0	50637	10119.167386997977	1
0	50640	10120.121782948283	0
0	50644	10120.186103310744	1
0	50646	10120.212649278132	2
0	50648	10120.416218802781	3
0	50649	10121.083719011044	2
0	50653	10121.112543933619	3
0	50656	10122.171458663346	2
0	50660	10122.257160784138	3
0	50661	10123.268842953278	2
0	50664	10124.290222843105	1
0	50668	10124.809191472421	2
0	50669	10125.318116790542	1
0	50672	10126.135854322763	0
0	50676	10126.198886017635	1
0	50678	10126.814630986354	2
0	50680	10126.837127470478	3
0	50681	10127.072945182139	2
0	50684	10128.038386480624	1
0	50688	10128.365155280776	2
0	50689	10129.058841328902	1
0	50693	10129.377977279658	2
0	50695	10129.411826342811	3
0	50696	10130.150133466089	2
0	50699	10131.026945595184	1
0	50703	10131.152661740771	2
0	50705	10131.270249964235	3
0	50707	10131.426756889106	4
0	50708	10132.172338488252	3
0	50712	10132.386587028285	4
0	50713	10133.047708500569	3
0	50716	10133.972770136149	2
0	50720	10134.347460615861	3
0	50721	10135.064498385714	2
0	50725	10135.286830380969	3
0	50726	10135.946319216789	2
0	50730	10136.742287752539	3
0	50731	10137.010777412654	2
0	50734	10138.100796404128	1
0	50738	10138.562146501748	2
0	50739	10139.182771906183	1
0	50743	10139.415841482837	2
0	50745	10139.665953012331	3
0	50746	10139.994283452929	2
0	50749	10140.931806070657	1
0	50753	10141.165540988094	2
0	50754	10141.936513159537	1
0	50757	10142.985368482602	0
0	50769	10145.135789346628	1
0	50771	10145.187643076348	2
0	50774	10146.104784211349	1
0	50779	10147.190795201082	0
0	50783	10147.648196084701	1
0	50784	10148.009464433808	0
0	50788	10148.511580995922	1
0	50790	10148.727478642376	2
0	50791	10148.82682364082	1
0	50795	10149.182651915935	2
0	50797	10149.604675350874	3
0	50798	10149.792306004577	2
0	50802	10149.833467698148	3
0	50804	10150.147998359635	4
0	50807	10150.796740680114	3
0	50811	10151.490904748947	4
0	50812	10151.617716763095	3
0	50816	10152.5758252077	4
0	50817	10152.628601710332	3
0	50821	10152.646172925131	4
0	50822	10153.729008483255	3
0	50826	10153.959594856553	4
0	50827	10154.710633509347	3
0	50830	10155.847435810065	2
0	50834	10156.088198102928	3
0	50835	10156.704164913224	2
0	50838	10157.63437574899	1
0	50841	10158.5472421949	0
0	50858	10161.746026183736	1
0	50860	10162.030732722032	2
0	50863	10162.246012292357	1
0	50866	10163.275300050361	0
0	50873	10164.290971520423	1
0	50875	10164.729522126731	2
0	50876	10165.09476981966	1
0	50880	10165.294596445394	2
0	50884	10165.801880400271	3
0	50885	10166.261016663836	2
0	50888	10167.327333302444	1
0	50891	10168.255835795516	0
0	50898	10170.032883509026	1
0	50899	10170.317117579115	0
0	50906	10171.682860759309	1
0	50908	10171.844817916336	2
0	50910	10172.052394317953	3
0	50911	10172.37679185087	2
0	50914	10173.22197672913	1
0	50917	10174.310730495697	0
0	50921	10175.013232866968	1
0	50922	10175.145863244424	0
0	50929	10176.398935695873	1
0	50934	10177.239497126288	0
0	50938	10177.541497427488	1
0	50940	10177.907555454975	2
0	50941	10178.237524883378	1
0	50945	10178.371683119474	2
0	50948	10179.265989802055	1
0	50952	10179.302796879389	2
0	50953	10180.221109590888	1
0	50959	10180.362678993409	2
0	50960	10181.322026774403	1
0	50963	10182.173954727337	0
0	50967	10182.183942695565	1
0	50968	10183.183376421429	0
0	50982	10185.671899479626	1
0	50983	10185.948679556812	0
0	50987	10186.10102989465	1
0	50990	10186.752034723501	0
0	50997	10188.20760596705	1
0	51002	10188.760970564487	0
0	51011	10190.922653605225	1
0	51012	10191.148964057977	0
0	51024	10193.381198790618	1
0	51026	10193.432220490517	2
0	51029	10194.008841878103	1
0	51034	10195.12780406682	0
0	51056	10200.157185063931	1
0	51057	10200.400603393858	0
0	51064	10201.602779582372	1
0	51069	10202.176730476806	0
0	51078	10203.414453938851	1
0	51079	10203.943530539351	0
0	51088	10205.050901736808	1
0	51089	10205.880930582455	0
0	51098	10207.612102341585	1
0	51099	10207.746058457552	0
0	51108	10209.035776466908	1
0	51111	10209.817421922015	0
0	51121	10211.926706884202	1
0	51125	10212.642674965369	2
0	51126	10212.824141000231	1
0	51131	10213.730557606575	0
0	51138	10215.398718116239	1
0	51140	10215.551933535165	2
0	51142	10215.606829831238	3
0	51143	10215.781367771533	2
0	51146	10216.929473413267	1
0	51149	10217.755625403878	0
0	51153	10217.980999210178	1
0	51156	10218.635309957453	0
0	51160	10219.220398311532	1
0	51162	10219.351309718138	2
0	51163	10219.814594133683	1
0	51167	10220.083307984185	2
0	51168	10220.804884632044	1
0	51172	10220.894521991309	2
0	51173	10221.893300708775	1
0	51179	10222.727169865173	2
0	51180	10222.775117510856	1
0	51183	10223.593603540976	0
0	51187	10224.148100888787	1
0	51188	10224.733278721776	0
0	51195	10225.723529621381	1
0	51197	10225.835280753125	2
0	51198	10226.426242818423	1
0	51201	10227.511035306864	0
0	51210	10229.190462734235	1
0	51211	10229.445401377715	0
0	51215	10229.784353411987	1
0	51216	10230.315129706468	0
0	51222	10230.79237253129	1
0	51223	10231.23790373329	0
0	51227	10232.114094065038	1
0	51228	10232.355212014652	0
0	51235	10233.248142945537	1
0	51236	10234.10612979533	0
0	51245	10235.443712992518	1
0	51246	10235.861904075573	0
0	51253	10236.922457088553	1
0	51256	10237.533025205898	0
0	51265	10239.062215560257	1
0	51266	10239.438397776166	0
0	51276	10241.77809666079	1
0	51277	10242.573240755608	0
0	51293	10244.622025561119	1
0	51294	10245.480340482683	0
0	51308	10247.684251638012	1
0	51311	10248.528862210286	0
0	51323	10251.1603608951	1
0	51324	10251.322249259723	0
0	51335	10252.187721864153	1
0	51340	10253.193893528187	0
0	51355	10257.015855539523	1
0	51356	10257.262966679612	0
0	51367	10258.532664889116	1
0	51370	10259.460507907828	0
0	51377	10261.284057038426	1
0	51380	10261.312721601797	0
0	51540	10296.29280871391	1
0	51541	10296.525390311718	0
0	51550	10298.382572505545	1
0	51551	10298.538804843757	0
0	51555	10298.794201381817	1
0	51558	10299.434364807807	0
0	51574	10301.618379838552	1
0	51576	10301.747605275878	2
0	51579	10302.613851372168	1
0	51584	10303.709061710645	0
0	51588	10304.512103683998	1
0	51589	10304.62560824474	0
0	51593	10304.664746726832	1
0	51594	10305.744672637169	0
0	51598	10306.362042757408	1
0	51599	10306.847445175719	0
0	51606	10308.4798170169	1
0	51607	10308.538581936077	0
0	51627	10313.340485596614	1
0	51628	10313.686275161725	0
0	51651	10318.461374462876	1
0	51654	10319.247020435256	0
0	51668	10322.489776273875	1
0	51669	10322.622545675111	0
0	51675	10322.789932977219	1
0	51678	10323.659776133873	0
0	51682	10323.939585519592	1
0	51684	10324.604239425876	2
0	51685	10324.61905854588	1
0	51688	10325.442527725656	0
0	51695	10326.751389686245	1
0	51696	10327.793831766132	0
0	51700	10327.855426562684	1
0	51702	10328.409767162039	2
0	51703	10328.822574378751	1
0	51706	10329.672568293582	0
0	51718	10332.324825549728	1
0	51719	10332.710199055835	0
0	51723	10333.272248325824	1
0	51725	10333.520409605445	2
0	51726	10333.627659415654	1
0	51730	10333.924941152318	2
0	51733	10334.793731299429	1
0	51737	10335.049603541122	2
0	51738	10335.816250449153	1
0	51743	10336.763388003609	0
0	51750	10338.818888355182	1
0	51751	10339.059760620459	0
0	51760	10340.029248347925	1
0	51761	10341.090651820055	0
0	52082	10410.295087789238	1
0	52087	10411.325857772879	0
0	52091	10411.589150902317	1
0	52092	10412.383910780322	0
0	52111	10416.164611759288	1
0	52114	10416.507983497918	0
0	52125	10417.76910009834	1
0	52126	10418.753392866735	0
0	52133	10419.808790782423	1
0	52134	10420.852843579479	0
0	52145	10422.179533862131	1
0	52148	10422.711692746931	0
0	52157	10423.990869248097	1
0	52158	10424.882589697016	0
0	52167	10425.886831923688	1
0	52168	10426.80515799673	0
0	52179	10428.546361224199	1
0	52180	10428.732271592894	0
0	52194	10430.88864134134	1
0	52197	10431.651059907039	0
0	52210	10432.942070663957	1
0	52211	10433.659610330143	0
0	52218	10435.222534041169	1
0	52219	10435.795747750827	0
0	52226	10437.428229473267	1
0	52227	10437.843635677376	0
0	52234	10439.473330605613	1
0	52237	10439.811603118589	0
0	52274	10446.170508158788	1
0	52279	10447.209239519403	0
0	52286	10448.763360132969	1
0	52287	10449.251855269463	0
0	52296	10451.021628958878	1
0	52297	10451.141638231759	0
0	52301	10451.446008440499	1
0	52304	10452.197859631029	0
0	52308	10452.737837636549	1
0	52309	10453.122918835391	0
0	52323	10455.620801606462	1
0	52326	10456.125819798761	0
0	52348	10460.729644506857	1
0	52350	10460.762104925827	2
0	52351	10461.067602209111	1
0	52358	10462.049072243196	0
0	52362	10462.326339719345	1
0	52363	10463.150470662692	0
0	52367	10463.552744421345	1
0	52368	10464.320399464962	0
0	52372	10465.184657943117	1
0	52373	10465.282455053196	0
0	52377	10465.750893940844	1
0	52381	10466.071803516575	2
0	52383	10466.145668623776	3
0	52384	10466.438947403167	2
0	52388	10467.02023388823	3
0	52390	10467.103727506677	4
0	52391	10467.450203709785	3
0	52395	10467.861411255613	4
0	52397	10468.182201767109	5
0	52398	10468.411109906729	4
0	52402	10468.942682311854	5
0	52403	10469.425284268908	4
0	52406	10470.569196274239	3
0	52410	10470.677703129617	4
0	52412	10471.306948134929	5
0	52413	10471.607098527919	4
0	52417	10471.635956352119	5
0	52418	10472.480317278873	4
0	52422	10472.560169058268	5
0	52424	10472.81710762276	6
0	52425	10473.57542766539	5
0	52428	10474.736191553079	4
0	52432	10474.917525217266	5
0	52433	10475.910090372354	4
0	52437	10476.025027136166	5
0	52438	10476.9923762303	4
0	52442	10477.3436853324	5
0	52444	10477.785246773168	6
0	52445	10478.156765484453	5
0	52449	10478.255078741011	6
0	52450	10479.061552417108	5
0	52453	10480.130641572845	4
0	52457	10480.600773962817	5
0	52458	10481.04627598833	4
0	52461	10482.141580055763	3
0	52464	10483.109209694077	2
0	52468	10483.401398537997	3
0	52471	10484.024791098588	2
0	52474	10484.882149444443	1
0	52478	10485.238426482221	2
0	52479	10485.886485002578	1
0	52482	10486.768471432213	0
0	52486	10486.976413136489	1
0	52488	10487.435306819211	2
0	52489	10487.888518113099	1
0	52492	10488.73130452206	0
0	52514	10492.720741999312	1
0	52515	10493.752746840022	0
0	52519	10493.889798490669	1
0	52522	10494.573409799315	0
0	52526	10494.858335426617	1
0	52528	10495.365167326993	2
0	52529	10495.632667050805	1
0	52533	10495.788863549096	2
0	52534	10496.497643007353	1
0	52538	10497.124336083624	2
0	52539	10497.503811246172	1
0	52543	10498.468125476555	2
0	52544	10498.490150703039	1
0	52548	10498.792542491534	2
0	52549	10499.483486680608	1
0	52553	10500.288824335194	2
0	52554	10500.549730828605	1
0	52558	10500.821410389784	2
0	52559	10501.547031368423	1
0	52563	10502.555339316204	2
0	52564	10502.560115084532	1
0	52568	10502.835631747182	2
0	52570	10503.475936950532	3
0	52571	10503.624498038381	2
0	52574	10504.601251825425	1
0	52578	10505.178947232594	2
0	52580	10505.328944987129	3
0	52581	10505.741062270957	2
0	52585	10506.607053033294	3
0	52586	10506.845570463887	2
0	52589	10507.800812843642	1
0	52593	10508.190473411205	2
0	52595	10508.533540258629	3
0	52596	10508.834292759667	2
0	52601	10509.937681588451	1
0	52605	10510.610412721351	2
0	52606	10510.855761923189	1
0	52610	10511.405444394261	2
0	52611	10511.80262937156	1
0	52615	10512.251605846235	2
0	52616	10512.905058955042	1
0	52620	10513.165222245052	2
0	52622	10513.246815600818	3
0	52624	10513.293625151693	4
0	52626	10513.367464386426	5
0	52627	10514.037875491022	4
0	52630	10515.184693029537	3
0	52634	10515.510704237551	4
0	52635	10516.305902841608	3
0	52639	10516.711711884698	4
0	52640	10517.185935839093	3
0	52643	10518.297661976157	2
0	52647	10518.991098353727	3
0	52648	10519.385227137352	2
0	52651	10520.472405995349	1
0	52655	10520.812842631042	2
0	52656	10521.300699664014	1
0	52660	10521.929007442749	2
0	52661	10522.21206694256	1
0	52665	10522.923596341724	2
0	52666	10523.063319409093	1
0	52670	10523.622057452192	2
0	52672	10523.887415092279	3
0	52673	10524.254025946571	2
0	52677	10524.459888639941	3
0	52679	10525.332855105343	4
0	52681	10525.429352661839	5
0	52682	10525.436049987203	4
0	52685	10526.509146860907	3
0	52689	10527.277031732899	4
0	52690	10527.392444683718	3
0	52693	10528.377739079683	2
0	52696	10529.4459263947	1
0	52700	10530.236122803012	2
0	52701	10530.584435927602	1
0	52705	10530.754283356385	2
0	52706	10531.398959423522	1
0	52710	10531.673207069017	2
0	52711	10532.328965138471	1
0	52715	10532.631370107436	2
0	52716	10533.235050546671	1
0	52719	10534.116364182173	0
0	52726	10535.753798907825	1
0	52727	10535.942619013242	0
0	52741	10538.486524457886	1
0	52745	10538.803574291009	2
0	52746	10538.985419055369	1
0	52749	10539.86778391387	0
0	52753	10539.900748211875	1
0	52756	10540.743193420504	0
0	52760	10541.012052317807	1
0	52761	10541.877579143193	0
0	52768	10543.699507687809	1
0	52769	10543.935071573514	0
0	52776	10545.515784973953	1
0	52777	10545.906936707176	0
0	52787	10548.190882838307	1
0	52794	10548.929218446291	0
0	52798	10549.083578571589	1
0	52801	10549.960239435467	0
0	52805	10550.668817009915	1
0	52807	10550.676859262073	2
0	52809	10550.868902284472	3
0	52810	10551.113686410817	2
0	52813	10552.027283813632	1
0	52817	10552.341949417404	2
0	52819	10552.783845008095	3
0	52820	10552.935785210053	2
0	52824	10553.85207870761	3
0	52825	10554.064412793438	2
0	52828	10555.220638816818	1
0	52832	10555.2795357916	2
0	52833	10556.316675384264	1
0	52837	10556.765613982436	2
0	52839	10557.067059271784	3
0	52840	10557.159246371422	2
0	52844	10557.63846016789	3
0	52845	10558.298001950715	2
0	52848	10559.485431711298	1
0	52852	10559.523977842946	2
0	52854	10559.692808365065	3
0	52855	10560.460451009047	2
0	52859	10560.736816814007	3
0	52861	10561.289909051888	4
0	52862	10561.618071409424	3
0	52866	10562.500271868897	4
0	52867	10562.589891258736	3
0	52871	10562.909903350132	4
0	52872	10563.641360312902	3
0	52876	10564.073290041169	4
0	52877	10564.761580795438	3
0	52881	10564.762491524561	4
0	52883	10564.944492299928	5
0	52884	10565.915712864247	4
0	52887	10566.852551910576	3
0	52890	10567.780602424514	2
0	52894	10568.100247089613	3
0	52895	10568.651332646251	2
0	52898	10569.7369444783	1
0	52902	10570.260095239528	2
0	52904	10570.575402725548	3
0	52906	10570.752914981942	4
0	52907	10570.789416036118	3
0	52910	10571.944064663086	2
0	52914	10572.16648164977	3
0	52915	10572.847830564637	2
0	52918	10573.958235480838	1
0	52921	10574.897791966346	0
0	52928	10575.873189017429	1
0	52929	10576.795879897398	0
0	52938	10577.899718031017	1
0	52939	10578.605652472113	0
0	52946	10579.907203559389	1
0	52949	10580.838285698385	0
0	52961	10583.139747039089	1
0	52962	10583.926343754415	0
0	52968	10584.126683235716	1
0	52971	10584.779352940355	0
0	52975	10584.895024916318	1
0	52976	10585.814437587202	0
0	52983	10587.580106177937	1
0	52984	10587.907774207943	0
0	52996	10590.226493928308	1
0	52998	10590.88134412721	2
0	52999	10591.171459553593	1
0	53004	10592.148188381379	0
0	53019	10595.58366824829	1
0	53020	10596.546043235545	0
0	53029	10598.167610204813	1
0	53031	10598.205130586184	2
0	53033	10598.209703055043	3
0	53034	10598.22662970863	2
0	53039	10599.293318339546	1
0	53042	10600.460825144608	0
0	53046	10600.701348832535	1
0	53048	10601.355551257515	2
0	53049	10601.628579734374	1
0	53053	10601.710585577277	2
0	53054	10602.553141988643	1
0	53058	10602.558021319149	2
0	53059	10603.485018530597	1
0	53063	10603.748434727426	2
0	53064	10604.315363769435	1
0	53068	10604.943092087356	2
0	53069	10605.18551849296	1
0	53073	10605.504819559293	2
0	53074	10606.147590496872	1
0	53077	10607.115901478209	0
0	53084	10608.098357115771	1
0	53085	10608.895131703667	0
0	53091	10609.342972972364	1
0	53092	10609.935045772992	0
0	53099	10611.588266497719	1
0	53101	10611.720224964848	2
0	53102	10611.743165895078	1
0	53105	10612.857934606369	0
0	53109	10613.464768682505	1
0	53111	10613.762815626983	2
0	53112	10614.036985823899	1
0	53116	10614.599445725605	2
0	53119	10615.050675312537	1
0	53123	10615.911501150056	2
0	53124	10616.167568495884	1
0	53127	10617.178040301721	0
0	53134	10618.519071832221	1
0	53135	10619.12073263574	0
0	53141	10619.52777982312	1
0	53143	10619.963389412404	2
0	53144	10620.065510546058	1
0	53148	10620.157792292188	2
0	53150	10620.905566902641	3
0	53151	10620.962123967163	2
0	53154	10622.024561768878	1
0	53158	10622.896125708311	2
0	53159	10623.114674862023	1
0	53162	10624.160632613316	0
0	53166	10624.169242970169	1
0	53168	10624.883647574304	2
0	53169	10625.209163938105	1
0	53172	10626.135932236459	0
0	53176	10626.150184439756	1
0	53177	10626.973683341421	0
0	53181	10627.378674889449	1
0	53183	10627.443138070422	2
0	53184	10627.777126887362	1
0	53188	10628.901629467209	2
0	53189	10628.93516082346	1
0	53192	10629.993890289138	0
0	53196	10630.234243480226	1
0	53197	10630.961624926436	0
0	53201	10631.542534196158	1
0	53202	10631.959085201579	0
0	53206	10632.295915791649	1
0	53208	10632.371810493202	2
0	53209	10633.145888085584	1
0	53212	10634.171345640453	0
0	53216	10634.300662425813	1
0	53217	10635.07273022273	0
0	53221	10635.984574236277	1
0	53223	10636.22100658062	2
0	53224	10636.232292093815	1
0	53227	10637.061773579022	0
0	53231	10638.192542126135	1
0	53232	10638.240884149926	0
0	53236	10638.626603255038	1
0	53237	10639.144356127748	0
0	53244	10640.200779519608	1
0	53245	10641.296307340184	0
0	53249	10641.441796301013	1
0	53250	10642.309986490117	0
0	53254	10642.450297058265	1
0	53255	10643.116173315061	0
0	53262	10644.430038450881	1
0	53265	10645.441842499202	0
0	53322	10659.207500597903	1
0	53323	10659.409943224036	0
0	53341	10661.894014965449	1
0	53343	10662.050983034389	2
0	53344	10662.488388525985	1
0	53349	10663.36286951407	0
0	53353	10663.634511473811	1
0	53358	10664.404847831942	0
0	53382	10668.379519397295	1
0	53383	10669.178967461838	0
0	53409	10673.536492272557	1
0	53412	10674.385489013893	0
0	53434	10678.404185986033	1
0	53437	10679.039023521086	0
0	53446	10680.229364567916	1
0	53447	10680.716695093839	0
0	53459	10682.847483754933	1
0	53460	10683.713057325511	0
0	53512	10693.269810953583	1
0	53515	10694.259228677129	0
0	53531	10696.570877068526	1
0	53534	10697.236183655275	0
0	53553	10700.46190422967	1
0	53554	10700.956449928893	0
0	53565	10702.22490102299	1
0	53566	10702.961008132541	0
0	53572	10703.721815628979	1
0	53573	10704.061597138376	0
0	53583	10706.143188471911	1
0	53584	10707.023265923851	0
0	53595	10708.832817124183	1
0	53596	10709.247148148821	0
0	53605	10710.145657021873	1
0	53606	10711.111152365351	0
0	53623	10714.259662758424	1
0	53625	10714.284384852792	2
0	53632	10714.946851764632	1
0	53636	10715.703757918719	2
0	53639	10715.935166231462	1
0	53643	10715.966562158948	2
0	53644	10717.036090864626	1
0	53647	10718.056207651657	0
0	53651	10718.420795709891	1
0	53653	10718.426231241654	2
0	53655	10718.492401508884	3
0	53656	10719.172125472234	2
0	53660	10719.261470616644	3
0	53661	10720.071598370479	2
0	53664	10721.172515637906	1
0	53668	10721.768250150269	2
0	53670	10721.967693524939	3
0	53671	10722.172499968404	2
0	53675	10722.267159282204	3
0	53676	10723.203277154652	2
0	53679	10724.279692130176	1
0	53683	10725.070467065816	2
0	53684	10725.093344662537	1
0	53688	10725.399389894384	2
0	53691	10726.145114104741	1
0	53694	10726.989351542026	0
0	53701	10728.500379665585	1
0	53704	10728.808324801747	0
0	53708	10728.811619412297	1
0	53710	10729.745732795123	2
0	53711	10729.774143039819	1
0	53715	10729.794962785369	2
0	53716	10730.862238572084	1
0	53719	10731.875650861033	0
0	53723	10732.282946106558	1
0	53724	10732.960928977945	0
0	53731	10734.557392629045	1
0	53732	10734.874894881075	0
0	53739	10736.244186643909	1
0	53741	10736.352536852578	2
0	53742	10736.943684897492	1
0	53747	10737.996471952753	0
0	53754	10739.521393970737	1
0	53755	10740.004851311551	0
0	53759	10740.218161985505	1
0	53763	10740.317403040762	2
0	53767	10740.597661684711	3
0	53769	10740.603578258097	4
0	53771	10740.891147681632	5
0	53772	10741.180322241516	4
0	53776	10741.193555513733	5
0	53778	10741.729401696042	6
0	53779	10742.243691852794	5
0	53783	10743.094912938119	6
0	53784	10743.414811648906	5
0	53788	10744.277484844697	6
0	53789	10744.573084589571	5
0	53792	10745.680191757728	4
0	53795	10746.693238042214	3
0	53799	10746.765223273059	4
0	53800	10747.531311478105	3
0	53803	10748.409857406758	2
0	53807	10749.374210339232	3
0	53808	10749.508474517904	2
0	53811	10750.591179978672	1
0	53815	10750.7978433418	2
0	53817	10751.105673486282	3
0	53818	10751.62426319142	2
0	53821	10752.639422051899	1
0	53824	10753.452089319575	0
0	53834	10755.972523689774	1
0	53836	10756.180090692833	2
0	53837	10756.205694408446	1
0	53840	10757.30745279166	0
0	53853	10759.179109554159	1
0	53854	10759.395122169434	0
0	53858	10759.69917047499	1
0	53861	10760.298957391466	0
0	53865	10760.461240905514	1
0	53866	10761.17294722098	0
0	53870	10761.480229447908	1
0	53873	10762.312678167327	0
0	53880	10763.411031667475	1
0	53882	10763.649179222201	2
0	53884	10763.7515816352	3
0	53885	10764.329875865681	2
0	53890	10765.480238468954	1
0	53894	10765.887129693112	2
0	53896	10765.91398038186	3
0	53898	10766.261646415999	4
0	53900	10766.295349357943	5
0	53901	10766.632432844033	4
0	53905	10767.058883984917	5
0	53906	10767.444886053362	4
0	53909	10768.445939831724	3
0	53913	10768.650111126959	4
0	53915	10768.771882712616	5
0	53916	10769.36920499877	4
0	53920	10769.416702064052	5
0	53922	10769.554913881468	6
0	53923	10770.329496670989	5
0	53926	10771.207201010463	4
0	53929	10772.095393291963	3
0	53933	10772.306871984985	4
0	53936	10772.898381028799	3
0	53940	10772.960991466399	4
0	53941	10773.702750010425	3
0	53944	10774.879087491063	2
0	53947	10776.068868215298	1
0	53950	10777.031751576261	0
0	53954	10777.613408337682	1
0	53955	10777.906101672639	0
0	53959	10778.54747976614	1
0	53961	10778.631441350882	2
0	53962	10779.085970270549	1
0	53966	10780.1072288835	2
0	53967	10780.118294928045	1
0	53971	10780.493852732479	2
0	53972	10780.934366432865	1
0	53976	10781.027274324507	2
0	53978	10781.053511171051	3
0	53979	10781.835161770143	2
0	53984	10782.693726424601	1
0	53987	10783.775106775489	0
0	53991	10783.915741228647	1
0	53993	10784.869654979331	2
0	53994	10784.968650862489	1
0	53998	10784.968952197363	2
0	53999	10785.86086070976	1
0	54002	10786.903968363262	0
0	54006	10787.2820430674	1
0	54008	10787.283715339523	2
0	54010	10787.620910172526	3
0	54011	10788.06921760543	2
0	54015	10789.121725757698	3
0	54016	10789.254851139902	2
0	54020	10789.444525322552	3
0	54022	10789.766480242578	4
0	54023	10790.094526926062	3
0	54026	10791.004523284367	2
0	54029	10792.072887922737	1
0	54033	10792.152321199149	2
0	54035	10792.331703797737	3
0	54038	10793.121474396444	2
0	54041	10794.265530818335	1
0	54045	10794.612108843962	2
0	54047	10794.947616916959	3
0	54048	10795.214549767978	2
0	54052	10795.441982027541	3
0	54053	10796.200885580021	2
0	54056	10797.206716414548	1
0	54060	10797.247621780679	2
0	54062	10797.708627234944	3
0	54064	10797.835860736727	4
0	54065	10798.080528985716	3
0	54071	10798.715265854232	4
0	54072	10799.076100454114	3
0	54076	10799.486452681017	4
0	54077	10800.102190340317	3
0	54081	10800.239370444457	4
0	54082	10801.089901477664	3
0	54088	10802.197660173829	4
0	54089	10802.270830233029	3
0	54092	10803.090179440758	2
0	54096	10803.449403007183	3
0	54097	10804.160449750821	2
0	54101	10804.185819971575	3
0	54102	10805.099469592149	2
0	54105	10806.258681244596	1
0	54108	10807.072127112008	0
0	54120	10809.345422163297	1
0	54121	10809.913616168599	0
0	54127	10810.386196671029	1
0	54129	10810.569399175422	2
0	54130	10810.732025482419	1
0	54134	10811.75893586883	2
0	54135	10811.903252022534	1
0	54139	10812.1519510979	2
0	54140	10812.714200595959	1
0	54144	10812.758447201189	2
0	54146	10813.209739066646	3
0	54147	10813.794845183293	2
0	54151	10814.415972523382	3
0	54152	10814.820764537627	2
0	54156	10814.946634583442	3
0	54157	10815.902893293189	2
0	54160	10817.070499615098	1
0	54164	10817.850576758896	2
0	54165	10817.871562307893	1
0	54168	10818.736316482729	0
0	54172	10819.551853956445	1
0	54175	10819.880470159842	0
0	54182	10821.109842642407	1
0	54185	10821.914949226758	0
0	54194	10823.590479099875	1
0	54195	10823.703225736513	0
0	54199	10823.8761961464	1
0	54202	10824.796829174093	0
0	54206	10825.057161437832	1
0	54207	10825.923863783765	0
0	54214	10827.6318871679	1
0	54215	10828.086930084329	0
0	54219	10828.699150697535	1
0	54220	10829.267699659157	0
0	54224	10829.846739012853	1
0	54225	10830.43637134508	0
0	54234	10832.091441389436	1
0	54236	10832.12859008123	2
0	54238	10832.209924441408	3
0	54239	10832.29707094413	2
0	54242	10833.209963207233	1
0	54245	10834.044066297363	0
0	54249	10834.239607881856	1
0	54250	10835.016831560626	0
0	54254	10835.461302596624	1
0	54257	10836.114076593246	0
0	54261	10836.303725159906	1
0	54264	10837.152499120317	0
0	54268	10837.750404173429	1
0	54270	10837.932898686845	2
0	54271	10838.20355540049	1
0	54275	10838.423668470181	2
0	54276	10839.397585309862	1
0	54279	10840.475055476564	0
0	54288	10841.597585416702	1
0	54289	10842.462113187189	0
0	54295	10842.736185282115	1
0	54296	10843.470640766906	0
0	54303	10844.766951546662	1
0	54305	10845.016238794603	2
0	54306	10845.530323237839	1
0	54310	10845.663495412124	2
0	54311	10846.529689902167	1
0	54314	10847.63296117271	0
0	54318	10847.91022175757	1
0	54321	10848.594396083715	0
0	54325	10849.170451789681	1
0	54326	10849.755363095372	0
0	54330	10849.885559908584	1
0	54331	10850.898072808242	0
0	54335	10850.931690239668	1
0	54338	10851.865671740758	0
0	54342	10851.984043512141	1
0	54343	10852.665914863541	0
0	54355	10854.79849485414	1
0	54356	10855.815080793674	0
0	54373	10859.302186717741	1
0	54374	10860.007404084231	0
0	54385	10861.726013619242	1
0	54386	10861.928187513265	0
0	54390	10862.094654760291	1
0	54391	10862.741382672924	0
0	54395	10863.066270499687	1
0	54398	10863.710912556674	0
0	54402	10863.929004224503	1
0	54403	10864.555767677638	0
0	54407	10865.170653127024	1
0	54408	10865.597806740373	0
0	54418	10867.713337020898	1
0	54421	10868.700773297816	0
0	54428	10870.073103904751	1
0	54429	10870.602029467102	0
0	54440	10871.801917258081	1
0	54441	10872.681993045013	0
0	54450	10873.733570123081	1
0	54453	10874.43899263554	0
0	54465	10876.922774620366	1
0	54467	10877.511194952587	2
0	54468	10877.710189555127	1
0	54473	10878.51185767819	0
0	54480	10880.271052593455	1
0	54481	10880.398806429197	0
0	54485	10880.501787739618	1
0	54488	10881.423722267904	0
0	54492	10881.605384250791	1
0	54493	10882.449583166846	0
0	54500	10883.600485054638	1
0	54501	10884.351430467617	0
0	54510	10886.042315575772	1
0	54511	10886.186296673872	0
0	54523	10888.185590277137	1
0	54525	10888.279039994478	2
0	54526	10889.090089488782	1
0	54531	10890.275075386751	0
0	54551	10894.848079848302	1
0	54553	10895.049244978232	2
0	54554	10895.823461143214	1
0	54559	10896.897168747157	0
0	54563	10897.121675661784	1
0	54564	10897.926527939186	0
0	54568	10898.163625893247	1
0	54569	10899.104919661683	0
0	54576	10900.025794114569	1
0	54579	10900.752999955051	0
0	54586	10902.495661042531	1
0	54587	10902.801216237535	0
0	54591	10903.135584935557	1
0	54592	10903.836086766617	0
0	54596	10904.035494094377	1
0	54599	10904.884058731338	0
0	54603	10905.242896221476	1
0	54605	10905.28347602311	2
0	54606	10905.781276637698	1
0	54610	10906.110403812611	2
0	54611	10906.956921248893	1
0	54614	10908.004192199754	0
0	54618	10908.47238647599	1
0	54620	10908.827206294139	2
0	54621	10909.110496323007	1
0	54624	10910.100211252468	0
0	54631	10911.463221800185	1
0	54633	10911.473729398136	2
0	54634	10911.953144758577	1
0	54638	10912.156773574455	2
0	54639	10912.941388796373	1
0	54643	10913.270737127601	2
0	54644	10913.769980979162	1
0	54648	10914.746337242963	2
0	54649	10914.854246668528	1
0	54652	10915.671409840054	0
0	54662	10917.444609356442	1
0	54664	10917.454572880239	2
0	54666	10918.038781333807	3
0	54667	10918.549308536585	2
0	54672	10919.469301417201	1
0	54675	10920.360639536298	0
0	54679	10921.358512985088	1
0	54680	10921.408408551394	0
0	54684	10921.557956155118	1
0	54685	10922.345346137519	0
0	54698	10925.653048009399	1
0	54700	10925.711248906466	2
0	54701	10925.909873149369	1
0	54705	10926.749306096683	2
0	54706	10926.800163399253	1
0	54710	10927.068956444228	2
0	54711	10927.764007584855	1
0	54715	10928.372218857246	2
0	54716	10928.684957679559	1
0	54722	10929.045661143944	2
0	54723	10929.543968675018	1
0	54731	10930.287602135166	2
0	54732	10930.448701421463	1
0	54736	10930.457088741405	2
0	54737	10931.55075834879	1
0	54741	10931.581850584793	2
0	54742	10932.663031295699	1
0	54745	10933.588043539331	0
0	54749	10934.475948746906	1
0	54750	10934.60832776624	0
0	54767	10937.870102204856	1
0	54769	10938.070388342252	2
0	54772	10938.499008700171	1
0	54776	10938.561669868505	2
0	54777	10939.536035371771	1
0	54781	10939.984103006148	2
0	54783	10940.179116521949	3
0	54784	10940.400011089923	2
0	54788	10940.753859845503	3
0	54791	10941.588759981947	2
0	54794	10942.470781059856	1
0	54797	10943.610405354122	0
0	54804	10945.123819438383	1
0	54805	10945.821703531141	0
0	54809	10946.240551366159	1
0	54812	10946.961172711677	0
0	54816	10947.716095460741	1
0	54817	10948.055039006765	0
0	54821	10948.531349064005	1
0	54822	10948.931210527769	0
0	54829	10950.298803838831	1
0	54831	10950.39785481125	2
0	54832	10950.915861488054	1
0	54835	10951.847751810322	0
0	54841	10952.632129723195	1
0	54842	10952.949543994213	0
0	54846	10953.85496939741	1
0	54847	10953.953213029089	0
0	54856	10955.709415342872	1
0	54857	10956.15191824568	0
0	54864	10957.156874508612	1
0	54865	10958.07088883148	0
0	54872	10959.825934637832	1
0	54873	10960.313985451418	0
0	54877	10960.886432555271	1
0	54879	10961.044050431244	2
0	54880	10961.236121499552	1
0	54884	10962.114908286407	2
0	54885	10962.131171251754	1
0	54888	10963.217777016679	0
0	54892	10963.918672530374	1
0	54893	10964.31015389088	0
0	54897	10964.958350355983	1
0	54898	10965.347993792048	0
0	54902	10966.313195948821	1
0	54903	10966.451924313618	0
0	54910	10967.697529366865	1
0	54911	10968.178936721678	0
0	54920	10969.306426137697	1
0	54925	10970.128667613319	0
0	54929	10970.290187698094	1
0	54932	10970.98770727321	0
0	54946	10973.648513136489	1
0	54948	10973.816196747829	2
0	54949	10974.212006943128	1
0	54954	10975.104105348154	0
0	54958	10975.186033980572	1
0	54959	10976.057440410289	0
0	54969	10978.397211816332	1
0	54971	10978.989296108784	2
0	54973	10979.401513288634	3
0	54974	10979.403854689854	2
0	54981	10980.38596694238	1
0	54985	10980.9164686843	2
0	54986	10981.465224607582	1
0	54989	10982.433348742234	0
0	54993	10982.522715378389	1
0	54995	10983.112702433156	2
0	54996	10983.421843352089	1
0	55000	10984.41042935174	2
0	55001	10984.554527634209	1
0	55005	10984.668660246369	2
0	55006	10985.591780777941	1
0	55009	10986.532637363686	0
0	55016	10988.180721720025	1
0	55017	10988.636162273972	0
0	55021	10988.8141514127	1
0	55023	10989.302173422712	2
0	55024	10989.57276126753	1
0	55027	10990.564569799056	0
0	55031	10991.275973019482	1
0	55032	10991.62495548298	0
0	55039	10993.048057161304	1
0	55040	10993.659914374178	0
0	55049	10994.616425093179	1
0	55051	10994.654707105649	2
0	55052	10995.648987457821	1
0	55057	10996.781214978373	0
0	55064	10998.752927683923	1
0	55065	10998.881673832717	0
0	55069	10999.124359998504	1
0	55070	11000.034783426406	0
0	55074	11000.162140083527	1
0	55075	11000.88557178277	0
0	55088	11003.802693253903	1
0	55090	11003.907450389255	2
0	55091	11004.72587289262	1
0	55094	11005.657783073386	0
0	55098	11005.669034390215	1
0	55099	11006.490910978814	0
0	55108	11007.751790441687	1
0	55109	11008.735724182625	0
0	55116	11010.382264695056	1
0	55117	11010.50345732664	0
0	55131	11012.482589115137	1
0	55132	11013.490905529831	0
0	55306	11049.78840159441	1
0	55309	11050.001649454898	0
0	55316	11051.233854849237	1
0	55319	11051.905364416922	0
0	55328	11053.23024818204	1
0	55329	11053.792858933853	0
0	55333	11054.273023529737	1
0	55334	11054.958630842539	0
0	55338	11055.039809808464	1
0	55339	11056.028733987743	0
0	55346	11057.119660709111	1
0	55347	11057.985583940437	0
0	55453	11081.773639758862	1
0	55454	11082.286024229983	0
0	55458	11082.410635773287	1
0	55461	11083.183718330702	0
0	55467	11083.824283423261	1
0	55468	11084.167243129211	0
0	55472	11084.32863649457	1
0	55473	11085.339802976521	0
0	55477	11085.571560078187	1
0	55478	11086.159992998382	0
0	55487	11087.692275876457	1
0	55488	11087.908419054942	0
0	55551	11099.572615129557	1
0	55552	11100.21795131444	0
0	55561	11101.927265254567	1
0	55562	11102.043208657121	0
0	55569	11103.412128678996	1
0	55570	11103.874743771189	0
0	55582	11106.410085371477	1
0	55585	11107.275747918346	0
0	55665	11124.77275601489	1
0	55668	11125.686507431798	0
0	55677	11126.837543962631	1
0	55678	11127.566185814895	0
0	55689	11128.806991750948	1
0	55692	11129.57035293524	0
0	55762	11141.945936924515	1
0	55763	11142.872776841938	0
0	55787	11147.174836427112	1
0	55788	11147.517452699698	0
0	55795	11149.100054934079	1
0	55796	11149.576214157796	0
0	55805	11150.857212918094	1
0	55806	11151.653759394312	0
0	55813	11152.869157693661	1
0	55814	11153.619211150059	0
0	55818	11154.112442131125	1
0	55821	11154.760967326356	0
0	55825	11155.014905044034	1
0	55826	11155.8494112582	0
0	55830	11155.924601536242	1
0	55832	11156.287524138954	2
0	55833	11156.979585423047	1
0	55836	11158.01850721073	0
0	55840	11158.921923292768	1
0	55841	11159.04276816948	0
0	55845	11159.157518791098	1
0	55846	11160.231543929322	0
0	55850	11160.410396334084	1
0	55851	11161.231185768923	0
0	55855	11161.413291768315	1
0	55857	11161.441162183843	2
0	55858	11162.214039332519	1
0	55862	11162.265763716097	2
0	55863	11163.410226488865	1
0	55867	11163.494174340073	2
0	55868	11164.213813017502	1
0	55872	11164.783462283152	2
0	55874	11164.822096165379	3
0	55875	11165.114459352389	2
0	55879	11165.291684183539	3
0	55880	11166.05245859484	2
0	55884	11166.576053453933	3
0	55885	11167.23803499379	2
0	55889	11167.994826226277	3
0	55890	11168.244806833666	2
0	55894	11168.447636179177	3
0	55897	11169.266097534642	2
0	55900	11170.06955285101	1
0	55904	11170.113034471313	2
0	55905	11170.911355806988	1
0	55909	11171.665118697433	2
0	55910	11171.937723328926	1
0	55913	11172.783279508174	0
0	55925	11175.243500798558	1
0	55926	11175.477889504105	0
0	55932	11176.061961098045	1
0	55933	11176.371618588742	0
0	55937	11176.375125443611	1
0	55938	11177.212877306536	0
0	55942	11178.01724095913	1
0	55943	11178.059484747805	0
0	55947	11178.331109705334	1
0	55948	11179.106724281896	0
0	55952	11179.836772062565	1
0	55953	11179.993836908236	0
0	55957	11180.116028504049	1
0	55958	11180.975873069566	0
0	55973	11184.400995212854	1
0	55974	11185.092489832461	0
0	55982	11185.659552686698	1
0	55983	11186.157814358089	0
0	56007	11190.954068791522	1
0	56008	11191.000546494507	0
0	56044	11197.587943912261	1
0	56047	11198.206224939792	0
0	56054	11199.287324887549	1
0	56056	11199.65586001041	2
0	56057	11200.254607031035	1
0	56060	11201.129587038613	0
0	56069	11202.111636728384	1
0	56070	11203.13348408547	0
0	56074	11203.690738562084	1
0	56075	11204.3167711136	0
0	56087	11206.616335404097	1
0	56090	11206.975512416947	0
0	56096	11207.242619110112	1
0	56097	11208.029454798538	0
0	56101	11208.193433101282	1
0	56104	11209.085517243117	0
0	56108	11209.590973030493	1
0	56109	11210.001690164868	0
0	56113	11210.311900068771	1
0	56114	11211.12521422264	0
0	56121	11212.73780961154	1
0	56122	11213.194284700796	0
0	56129	11214.397240797579	1
0	56131	11215.379646493031	2
0	56132	11215.386780786895	1
0	56135	11216.542716193487	0
0	56139	11216.766600852909	1
0	56142	11217.432260172729	0
0	56149	11219.063117268003	1
0	56150	11219.234306500208	0
0	56160	11221.283864300424	1
0	56163	11222.019994451021	0
0	56167	11222.088167997172	1
0	56170	11222.915315874209	0
0	56174	11223.113299353618	1
0	56175	11223.892141277072	0
0	56301	11249.829423276364	1
0	56304	11250.678526293867	0
0	56311	11252.170687088912	1
0	56313	11252.215503694701	2
0	56314	11252.694088583448	1
0	56317	11253.585292941433	0
0	56325	11253.960096532099	1
0	56326	11254.518946427674	0
0	56335	11255.811998314908	1
0	56336	11256.620983471171	0
0	56345	11258.013833920012	1
0	56346	11258.854976916694	0
0	56353	11260.752944177152	1
0	56354	11260.792513978397	0
0	56374	11265.072225553595	1
0	56375	11265.86451535645	0
0	56379	11265.895728661019	1
0	56384	11266.675818213365	0
0	56388	11267.305328678997	1
0	56389	11267.606681957199	0
0	56398	11268.834720800121	1
0	56399	11269.497760543144	0
0	56408	11270.784470700731	1
0	56409	11271.405747560887	0
0	56413	11271.421029486229	1
0	56414	11272.334472387201	0
0	56431	11275.972460270274	1
0	56432	11276.744726249959	0
0	56441	11278.574483221743	1
0	56442	11278.982305014982	0
0	56606	11317.622381673585	1
0	56607	11317.86592534344	0
0	56614	11319.347173272533	1
0	56615	11319.818715918449	0
0	56626	11320.892190058609	1
0	56628	11321.590346681688	2
0	56629	11321.691756365461	1
0	56632	11322.695241249459	0
0	56642	11325.397667500578	1
0	56643	11325.659018567776	0
0	56652	11326.719635086133	1
0	56655	11327.64080758897	0
0	56662	11328.65530934326	1
0	56663	11329.745452209854	0
0	56672	11331.259134488315	1
0	56673	11331.718453007017	0
0	56682	11333.01649419675	1
0	56683	11334.033340174623	0
0	56692	11335.542527165511	1
0	56697	11335.878484793857	0
0	56729	11341.637075174319	1
0	56738	11342.494227486953	0
0	56745	11343.769374148815	1
0	56746	11344.645004724629	0
0	56763	11348.027202595751	1
0	56766	11348.966943851682	0
0	56776	11351.171794958219	1
0	56777	11351.83773617438	0
0	56786	11353.406024501618	1
0	56787	11353.652966701527	0
0	56798	11355.377712890868	1
0	56799	11355.429089027279	0
0	56811	11357.536550019591	1
0	56812	11358.110564400637	0
0	56819	11359.042195733194	1
0	56820	11360.153850503368	0
0	56835	11363.063169648891	1
0	56836	11363.784246189156	0
0	56864	11369.294453662465	1
0	56865	11370.122284162892	0
0	56960	11387.804143899112	1
0	56961	11388.168765452606	0
0	57002	11396.668758118027	1
0	57005	11397.517599880238	0
0	57014	11399.328157171383	1
0	57015	11399.57477536789	0
0	57028	11401.252428216147	1
0	57029	11401.675369077928	0
0	57035	11402.37899686395	1
0	57036	11402.542692023057	0
0	57043	11404.156415979617	1
0	57044	11404.79040245964	0
0	57052	11405.137316785598	1
0	57053	11405.945062709421	0
0	57057	11406.481337472281	1
0	57059	11406.681390784069	2
0	57060	11407.071602178559	1
0	57063	11407.967986037031	0
0	57067	11408.149913691138	1
0	57069	11408.392987196786	2
0	57070	11409.086015032798	1
0	57074	11409.174765602779	2
0	57075	11409.934017527111	1
0	57079	11410.540118405996	2
0	57080	11410.98643733627	1
0	57084	11411.000688663427	2
0	57085	11411.923532516796	1
0	57089	11412.455382013558	2
0	57090	11412.898154954526	1
0	57093	11413.941550056923	0
0	57103	11416.223361587117	1
0	57105	11416.258884129301	2
0	57106	11416.80663974053	1
0	57112	11417.185649179316	2
0	57113	11417.749791116833	1
0	57116	11418.662050653256	0
0	57126	11421.537037560866	1
0	57129	11421.763822148561	0
0	57133	11422.237620434344	1
0	57134	11422.706726412948	0
0	57143	11424.296490638866	1
0	57144	11424.69121792671	0
0	57156	11427.045489196548	1
0	57157	11427.550223132695	0
0	57166	11429.184114525544	1
0	57169	11429.560529514688	0
0	57173	11430.230153858688	1
0	57174	11430.369389941922	0
0	57178	11430.499572019318	1
0	57179	11431.222980467422	0
0	57183	11431.343299712895	1
0	57184	11432.297878191346	0
0	57188	11432.628229670168	1
0	57189	11433.398742266657	0
0	57193	11433.64272326446	1
0	57194	11434.28670671974	0
0	57201	11435.928251531776	1
0	57202	11436.414923250309	0
0	57206	11436.529552849765	1
0	57209	11437.399265758048	0
0	57213	11437.427489732162	1
0	57214	11438.386884681142	0
0	57218	11438.657989739202	1
0	57219	11439.432795042086	0
0	57223	11440.042239103572	1
0	57224	11440.574516721449	0
0	57228	11441.238797114459	1
0	57229	11441.471187953378	0
0	57233	11441.677175019853	1
0	57234	11442.465825314454	0
0	57241	11443.904418387772	1
0	57243	11443.983934850825	2
0	57244	11444.496215901996	1
0	57247	11445.4356222977	0
0	57251	11445.796910731421	1
0	57252	11446.267786638166	0
0	57256	11446.32020802311	1
0	57259	11447.125736134506	0
0	57263	11447.253328659677	1
0	57265	11447.26530855504	2
0	57267	11447.90569664531	3
0	57268	11448.090257360513	2
0	57271	11448.993007385085	1
0	57275	11449.595736973251	2
0	57276	11450.069036178856	1
0	57280	11450.786070081313	2
0	57281	11451.149321368436	1
0	57284	11452.291886636714	0
0	57288	11452.894767308984	1
0	57289	11453.09967282592	0
0	57293	11453.159760127273	1
0	57295	11453.171184647564	2
0	57296	11454.227937918814	1
0	57300	11454.704398019866	2
0	57302	11454.744539372461	3
0	57303	11455.216065730812	2
0	57307	11455.899734086335	3
0	57308	11456.34616422989	2
0	57312	11457.098192505376	3
0	57313	11457.381808605516	2
0	57316	11458.205090549687	1
0	57319	11459.324547536397	0
0	57326	11460.305283706076	1
0	57328	11460.741281540196	2
0	57330	11460.917595687405	3
0	57332	11461.358884893871	4
0	57333	11461.363049074919	3
0	57337	11461.572902278579	4
0	57338	11462.353097726037	3
0	57344	11462.750560224486	4
0	57345	11463.4763143451	3
0	57348	11464.410431709425	2
0	57352	11465.050762717544	3
0	57354	11465.234112321201	4
0	57355	11465.44047941091	3
0	57359	11466.379892231966	4
0	57360	11466.456952117667	3
0	57363	11467.545691338558	2
0	57367	11467.95025600223	3
0	57369	11468.502281372868	4
0	57370	11468.656376314726	3
0	57373	11469.55433925372	2
0	57377	11469.583411373989	3
0	57379	11469.918651388007	4
0	57380	11470.570347362388	3
0	57383	11471.53954714537	2
0	57386	11472.433511488888	1
0	57390	11472.667746248499	2
0	57392	11472.818239886092	3
0	57393	11473.514014799989	2
0	57397	11473.784274963226	3
0	57399	11473.995390621963	4
0	57400	11474.44664968951	3
0	57404	11474.773630046144	4
0	57406	11474.991185087439	5
0	57408	11475.554821778223	6
0	57409	11475.562398905031	5
0	57412	11476.599169566951	4
0	57415	11477.551130124091	3
0	57419	11477.743024538676	4
0	57421	11478.257463081011	5
0	57422	11478.354922105654	4
0	57426	11479.187066067005	5
0	57427	11479.388225887532	4
0	57431	11479.786966184226	5
0	57432	11480.318236970438	4
0	57436	11480.504064532649	5
0	57437	11481.179938231038	4
0	57441	11481.372637678659	5
0	57442	11482.128641933298	4
0	57445	11482.94315625448	3
0	57449	11482.995565895018	4
0	57450	11483.757921642905	3
0	57454	11484.334698464056	4
0	57455	11484.948452877814	3
0	57459	11485.137483098742	4
0	57462	11485.895977261664	3
0	57466	11486.627314793764	4
0	57467	11486.942682486029	3
0	57471	11487.716430673797	4
0	57472	11487.893705852052	3
0	57475	11488.839245996626	2
0	57479	11489.87676574595	3
0	57480	11489.885477469304	2
0	57484	11490.644321183136	3
0	57485	11491.029308859819	2
0	57490	11492.105141305552	1
0	57494	11492.64320143715	2
0	57495	11493.176153373812	1
0	57498	11494.248926960305	0
0	57502	11495.251311113344	1
0	57503	11495.424800346979	0
0	57510	11497.056853030315	1
0	57512	11497.152765459605	2
0	57513	11497.504358042219	1
0	57518	11498.363739601617	0
0	57522	11499.396831014094	1
0	57523	11499.54566817647	0
0	57527	11499.816409458884	1
0	57528	11500.586048126688	0
0	57535	11501.555465480801	1
0	57537	11501.780981760644	2
0	57538	11502.284536829779	1
0	57541	11503.294387583343	0
0	57547	11504.092295776657	1
0	57548	11504.392678280828	0
0	57558	11506.935763725979	1
0	57560	11507.043056961904	2
0	57561	11507.563702762594	1
0	57566	11508.702914836725	0
0	57570	11508.707652651448	1
0	57573	11509.514705496097	0
0	57580	11511.010846005476	1
0	57581	11511.671033272056	0
0	57590	11513.77894046442	1
0	57591	11513.933136101907	0
0	57600	11515.473044801167	1
0	57601	11515.939391630238	0
0	57608	11517.741664194978	1
0	57609	11517.868037128823	0
0	57618	11519.32614795187	1
0	57619	11520.08296754826	0
0	57628	11521.966379997553	1
0	57629	11522.354713460618	0
0	57638	11523.370760991083	1
0	57639	11524.440083519463	0
0	57651	11526.768959322922	1
0	57652	11527.47312656846	0
0	57672	11531.825656604379	1
0	57673	11532.098396920879	0
0	57694	11537.219846386791	1
0	57695	11537.46381216459	0
0	57716	11541.493989084834	1
0	57717	11541.529747320712	0
0	57806	11560.068507255215	1
0	57807	11560.349088933969	0
0	57814	11561.3870491679	1
0	57815	11562.323268158173	0
0	57835	11566.712861212513	1
0	57838	11567.676227616051	0
0	57847	11569.198799939351	1
0	57848	11569.401801058648	0
0	57869	11575.106192329559	1
0	57870	11575.742610715049	0
0	57890	11578.697749897011	1
0	57891	11578.710003498568	0
0	57898	11580.125998595716	1
0	57899	11580.480211923922	0
0	57912	11582.467551299783	1
0	57913	11582.569403050931	0
0	57964	11594.339349196593	1
0	57965	11594.684904664848	0
0	57975	11596.515144334709	1
0	57978	11597.340072882362	0
0	57987	11598.863331505026	1
0	57988	11599.576752375439	0
0	57992	11600.057659391409	1
0	57994	11600.173699283745	2
0	57997	11600.459235815704	1
0	58001	11600.82346003446	2
0	58006	11601.47110083038	1
0	58010	11601.49850333298	2
0	58013	11602.459885972738	1
0	58016	11603.285256991163	0
0	58020	11603.796603557278	1
0	58027	11604.476391847525	0
0	58031	11604.490107507145	1
0	58032	11605.341615484841	0
0	58041	11606.950871569814	1
0	58042	11607.544480340648	0
0	58053	11609.127473239398	1
0	58054	11609.378891786467	0
0	58058	11609.543482483361	1
0	58059	11610.404846898745	0
0	58063	11610.478666991494	1
0	58064	11611.349419616069	0
0	58070	11611.681419726063	1
0	58071	11612.413502752967	0
0	58075	11612.80583308742	1
0	58076	11613.57365456447	0
0	58080	11613.730753529515	1
0	58082	11614.595529991706	2
0	58083	11614.635015944298	1
0	58087	11614.823639854742	2
0	58088	11615.518732530344	1
0	58092	11615.657042627363	2
0	58093	11616.614357669279	1
0	58096	11617.5845416083	0
0	58100	11617.601955964539	1
0	58101	11618.540046143997	0
0	58105	11619.270283107055	1
0	58106	11619.610588514804	0
0	58110	11620.456069411774	1
0	58111	11620.665646187401	0
0	58120	11621.518682793171	1
0	58121	11622.322903784922	0
0	58125	11622.777842015133	1
0	58126	11623.341306317969	0
0	58130	11623.345343562208	1
0	58132	11623.513898074402	2
0	58133	11624.213414947222	1
0	58137	11624.358310166878	2
0	58138	11625.071952122076	1
0	58142	11625.82626068849	2
0	58143	11625.936091969999	1
0	58147	11626.355556989157	2
0	58148	11626.768641648347	1
0	58154	11627.455204075949	2
0	58155	11627.74339429289	1
0	58158	11628.775539594515	0
0	58165	11629.935486708131	1
0	58167	11630.029264566632	2
0	58168	11630.664650540053	1
0	58173	11631.674605123884	0
0	58180	11632.807302000873	1
0	58181	11633.732883686757	0
0	58185	11634.16227196704	1
0	58186	11634.740022425724	0
0	58190	11635.631896079042	1
0	58191	11635.719609357042	0
0	58211	11640.204155446511	1
0	58212	11640.408812446333	0
0	58223	11641.853184412822	1
0	58225	11642.400294144027	2
0	58226	11642.423328581638	1
0	58230	11642.427585725007	2
0	58234	11643.247826837119	3
0	58237	11643.615658263023	2
0	58241	11644.412779411946	3
0	58242	11644.728710142056	2
0	58246	11645.220287441273	3
0	58249	11645.567583778779	2
0	58252	11646.692977231647	1
0	58255	11647.688859069253	0
0	58259	11648.098161091482	1
0	58260	11648.688110066111	0
0	58264	11648.855422432933	1
0	58265	11649.62750685336	0
0	58272	11651.571623577174	1
0	58273	11651.683392823952	0
0	58277	11652.418735593889	1
0	58278	11652.717674224357	0
0	58286	11653.522910957602	1
0	58287	11653.695614935922	0
0	58291	11653.977382977266	1
0	58292	11654.587987341451	0
0	58296	11654.665958732617	1
0	58298	11655.107620084596	2
0	58299	11655.765319399534	1
0	58302	11656.583688838871	0
0	58306	11656.784067639631	1
0	58307	11657.549214320907	0
0	58314	11658.972282273166	1
0	58316	11659.004882805766	2
0	58317	11659.723734328614	1
0	58322	11660.71356073478	0
0	58326	11661.597612934633	1
0	58327	11661.827984258623	0
0	58331	11662.40805634344	1
0	58333	11662.410925757704	2
0	58334	11662.742819158451	1
0	58337	11663.553868417253	0
0	58341	11664.364334184656	1
0	58342	11664.690000587047	0
0	58346	11664.886761566391	1
0	58348	11664.893548845804	2
0	58349	11665.787346338292	1
0	58353	11665.875959138069	2
0	58356	11666.621454725133	1
0	58360	11666.817505452256	2
0	58361	11667.50352318594	1
0	58364	11668.388385334143	0
0	58371	11669.944196769045	1
0	58372	11670.102382575904	0
0	58376	11670.411508713266	1
0	58377	11671.278847965688	0
0	58386	11672.79532004268	1
0	58387	11673.284886015017	0
0	58399	11676.449560010665	1
0	58400	11676.499029018168	0
0	58407	11677.738780278593	1
0	58411	11678.435493617273	2
0	58412	11678.542537751884	1
0	58415	11679.653088827428	0
0	58421	11679.774483792758	1
0	58422	11680.457500980326	0
0	58426	11681.384048295075	1
0	58427	11681.609098060985	0
0	58445	11685.861469261797	1
0	58446	11686.5294460142	0
0	58452	11687.09349345356	1
0	58453	11687.54510975042	0
0	58457	11687.739753042534	1
0	58460	11688.728529106729	0
0	58464	11688.769569438775	1
0	58465	11689.814262036417	0
0	58487	11693.757560196288	1
0	58488	11694.594114966036	0
0	58497	11696.218386542555	1
0	58498	11696.564350003746	0
0	58502	11697.578350980976	1
0	58503	11697.710606089604	0
0	58507	11698.001393114039	1
0	58508	11698.552688767572	0
0	58526	11702.464514153305	1
0	58528	11702.509595049007	2
0	58529	11703.008536301457	1
0	58532	11704.097464123458	0
0	58536	11704.959214790415	1
0	58537	11705.041458827161	0
0	58545	11705.965101023227	1
0	58546	11706.103719222449	0
0	58550	11706.106612526367	1
0	58551	11707.122054535147	0
0	58555	11707.153935949366	1
0	58556	11707.953969153758	0
0	58560	11708.513683617278	1
0	58561	11708.903628868513	0
0	58565	11709.427220049564	1
0	58566	11709.771756939307	0
0	58570	11709.789167374279	1
0	58571	11710.957237626236	0
0	58575	11711.445132069112	1
0	58576	11711.926294218279	0
0	58591	11715.006224391956	1
0	58593	11715.35024035922	2
0	58595	11715.668459227311	3
0	58598	11716.099169214811	2
0	58601	11717.166290249299	1
0	58609	11717.655626838188	2
0	58610	11718.005749524101	1
0	58614	11718.21486311011	2
0	58615	11719.09346215203	1
0	58618	11720.28672178322	0
0	58622	11721.048075368948	1
0	58623	11721.211298917881	0
0	58627	11721.260684019655	1
0	58628	11722.280636996585	0
0	58632	11722.566369334259	1
0	58633	11723.459632420535	0
0	58637	11723.829486471228	1
0	58638	11724.54178520068	0
0	58642	11725.143728415094	1
0	58643	11725.52409951854	0
0	58647	11725.562820066775	1
0	58649	11726.653249888477	2
0	58650	11726.694138400159	1
0	58654	11727.079651714175	2
0	58655	11727.639616073757	1
0	58659	11727.737320628363	2
0	58660	11728.477298002313	1
0	58663	11729.379224320497	0
0	58667	11729.814623263007	1
0	58668	11730.262508152235	0
0	58672	11730.675998276155	1
0	58676	11731.029028611685	2
0	58677	11731.286282578293	1
0	58681	11731.379016369433	2
0	58683	11732.017568660453	3
0	58684	11732.099181370247	2
0	58688	11732.340536277106	3
0	58689	11732.967578150794	2
0	58693	11732.97147810273	3
0	58695	11733.268578298735	4
0	58696	11733.883065220524	3
0	58699	11735.02688528746	2
0	58702	11735.9499132405	1
0	58705	11736.902641193286	0
0	58709	11736.926850693352	1
0	58710	11737.769795472172	0
0	58714	11738.372682934803	1
0	58716	11738.667469903199	2
0	58717	11738.895132243444	1
0	58721	11739.677614648676	2
0	58722	11739.954042571408	1
0	58726	11740.153232415204	2
0	58728	11740.512808694007	3
0	58729	11740.978757616223	2
0	58732	11741.805738332492	1
0	58736	11742.142817017509	2
0	58737	11742.836689840254	1
0	58741	11742.893678375505	2
0	58743	11743.331808266946	3
0	58744	11743.837453925793	2
0	58747	11744.965287213025	1
0	58751	11745.886623925826	2
0	58753	11745.938121986078	3
0	58754	11746.148014992659	2
0	58758	11746.42833779321	3
0	58759	11747.30148843629	2
0	58763	11747.486631187016	3
0	58765	11748.22466783133	4
0	58766	11748.296578690872	3
0	58771	11749.291188331597	2
0	58774	11750.215426497624	1
0	58778	11750.605203526125	2
0	58779	11751.408711729475	1
0	58783	11751.632851711087	2
0	58784	11752.507621032462	1
0	58788	11753.134338515513	2
0	58789	11753.607400239628	1
0	58793	11753.685304382045	2
0	58795	11753.887542527227	3
0	58796	11754.40760381715	2
0	58800	11755.23296946241	3
0	58801	11755.423458197989	2
0	58805	11755.632924218799	3
0	58807	11755.855189862171	4
0	58808	11756.486285305299	3
0	58811	11757.635293737795	2
0	58815	11758.594955752241	3
0	58816	11758.694090056695	2
0	58820	11759.270320155417	3
0	58821	11759.742343919534	2
0	58825	11759.79087072982	3
0	58829	11760.370329974036	4
0	58830	11760.743743132144	3
0	58834	11760.827434223505	4
0	58835	11761.591760272529	3
0	58838	11762.435345018279	2
0	58842	11762.93173012423	3
0	58844	11763.209305642188	4
0	58846	11763.451574844332	5
0	58847	11763.531624331322	4
0	58851	11763.616498384533	5
0	58852	11764.514295658466	4
0	58856	11764.97889655439	5
0	58857	11765.443169905987	4
0	58861	11766.553707224098	5
0	58862	11766.579540733245	4
0	58865	11767.654434874744	3
0	58869	11767.784006453682	4
0	58872	11768.56835578568	3
0	58875	11769.708832680617	2
0	58878	11770.757914497514	1
0	58882	11770.970984798313	2
0	58884	11771.201598972164	3
0	58886	11771.398091305653	4
0	58887	11771.733957036209	3
0	58893	11771.740803156561	4
0	58895	11772.008472388528	5
0	58897	11772.632725005518	6
0	58898	11772.649477132314	5
0	58902	11773.544479360674	6
0	58903	11773.58235759204	5
0	58907	11773.616422793128	6
0	58911	11774.447349224086	7
0	58912	11774.601453809065	6
0	58915	11775.722849558291	5
0	58919	11776.347298387394	6
0	58921	11776.491759173171	7
0	58922	11776.727953697831	6
0	58926	11776.831245335933	7
0	58927	11777.857101310973	6
0	58931	11778.297255809686	7
0	58932	11779.027701825646	6
0	58935	11779.856149902844	5
0	58939	11780.285470913023	6
0	58940	11781.031859031876	5
0	58943	11781.950260136553	4
0	58947	11782.654403091928	5
0	58948	11783.075290324722	4
0	58951	11784.137881019056	3
0	58954	11785.124889247488	2
0	58957	11786.259475605093	1
0	58960	11787.107719095886	0
0	58964	11787.311002268151	1
0	58966	11787.426669791741	2
0	58968	11787.611006035705	3
0	58970	11787.782693202478	4
0	58972	11787.792962037149	5
0	58973	11787.915126298551	4
0	58977	11787.945733427111	5
0	58979	11788.839365025626	6
0	58980	11788.969863701981	5
0	58983	11789.813174399078	4
0	58987	11790.271471327465	5
0	58988	11790.906301919926	4
0	58992	11791.182076660399	5
0	58993	11791.731277959604	4
0	58997	11792.580099406441	5
0	58999	11792.788394728244	6
0	59000	11792.84646315565	5
0	59004	11793.131235841358	6
0	59005	11793.822494439591	5
0	59008	11794.853623498414	4
0	59012	11794.867093500745	5
0	59013	11795.731603686136	4
0	59017	11796.486926079912	5
0	59018	11796.666406157424	4
0	59021	11797.745330059619	3
0	59024	11798.72644874444	2
0	59028	11799.456976277983	3
0	59029	11799.623109906816	2
0	59033	11799.889086430906	3
0	59035	11799.943943109616	4
0	59036	11800.761397356165	3
0	59041	11801.801617127468	2
0	59045	11802.484298055839	3
0	59046	11802.901194035352	2
0	59050	11802.991993065527	3
0	59052	11803.154159515018	4
0	59053	11804.056734593303	3
0	59056	11805.054488863141	2
0	59060	11805.375200104853	3
0	59061	11806.059517586042	2
0	59065	11807.169298933726	3
0	59066	11807.170784769018	2
0	59069	11808.231670702525	1
0	59073	11808.84276721613	2
0	59074	11809.097774162792	1
0	59077	11809.931957451996	0
0	59084	11811.307800121414	1
0	59085	11812.120912750248	0
0	59089	11812.670438578101	1
0	59090	11813.279643587019	0
0	59094	11813.412265054931	1
0	59096	11813.622693210011	2
0	59097	11814.441220887653	1
0	59101	11814.745061289628	2
0	59104	11815.327154081217	1
0	59108	11815.37295663363	2
0	59109	11816.318372903108	1
0	59112	11817.269814890246	0
0	59116	11817.392977384139	1
0	59117	11818.149761923398	0
0	59124	11819.515271053346	1
0	59126	11819.968229867486	2
0	59127	11820.239791387129	1
0	59131	11820.44003149744	2
0	59134	11821.271505777534	1
0	59138	11822.369165068718	2
0	59139	11822.393766996261	1
0	59143	11823.032695854536	2
0	59144	11823.358447903205	1
0	59148	11823.454001979263	2
0	59149	11824.219793887899	1
0	59152	11825.336471428533	0
0	59159	11826.678256766636	1
0	59161	11826.747973484685	2
0	59162	11827.51478073606	1
0	59168	11827.987845933754	2
0	59169	11828.359626296905	1
0	59173	11829.115256120949	2
0	59174	11829.271528640946	1
0	59178	11829.734430242047	2
0	59180	11830.101697190563	3
0	59181	11830.414515537487	2
0	59184	11831.552470636738	1
0	59187	11832.588861793929	0
0	59191	11833.132368176862	1
0	59192	11833.660172516943	0
0	59196	11833.914970535038	1
0	59197	11834.611735411172	0
0	59210	11837.851375333108	1
0	59212	11838.038858688551	2
0	59213	11838.369312896018	1
0	59216	11839.304236554538	0
0	59222	11839.623145029707	1
0	59225	11840.49220814509	0
0	59234	11842.488084911555	1
0	59235	11842.602183198367	0
0	59244	11843.598027560145	1
0	59245	11844.493583560359	0
0	59251	11845.5209786499	1
0	59252	11845.569348618385	0
0	59269	11848.584291474872	1
0	59271	11849.055541493562	2
0	59273	11849.092644231535	3
0	59276	11849.31270949449	2
0	59283	11850.461320912275	1
0	59287	11850.744092714777	2
0	59289	11850.790173862424	3
0	59290	11851.422159563001	2
0	59294	11852.296549309885	3
0	59295	11852.337314755186	2
0	59298	11853.397263706751	1
0	59302	11853.422890482513	2
0	59304	11853.972119325139	3
0	59307	11854.24449425954	2
0	59311	11854.261271408231	3
0	59313	11854.829833524952	4
0	59314	11855.190895739567	3
0	59317	11856.209229071994	2
0	59320	11857.342801803068	1
0	59324	11858.219379059997	2
0	59325	11858.249811294765	1
0	59328	11859.428131826685	0
0	59332	11860.117674531248	1
0	59333	11860.280641679277	0
0	59337	11860.783536870113	1
0	59339	11860.803393085465	2
0	59341	11861.003261291333	3
0	59342	11861.204827976131	2
0	59345	11862.260022061781	1
0	59348	11863.459800744706	0
0	59352	11864.22079714176	1
0	59353	11864.266736117003	0
0	59371	11868.666128110858	1
0	59373	11868.928953315808	2
0	59376	11869.187961178923	1
0	59381	11870.204459109249	0
0	59385	11870.427253783146	1
0	59386	11871.02528836103	0
0	59393	11872.580749254834	1
0	59396	11873.003262373711	0
0	59400	11873.357017211278	1
0	59402	11873.587817570646	2
0	59403	11874.070741800032	1
0	59406	11874.935320682357	0
0	59410	11875.169243280536	1
0	59412	11875.252121501268	2
0	59413	11875.932347899954	1
0	59417	11876.147186688449	2
0	59418	11876.836531478538	1
0	59424	11877.724969135011	2
0	59425	11878.015395932085	1
0	59429	11878.385403706273	2
0	59430	11878.849987551197	1
0	59433	11879.854963298048	0
0	59440	11881.159694729335	1
0	59442	11881.519478943894	2
0	59443	11881.789475744869	1
0	59446	11882.818616602569	0
0	59450	11882.876107670214	1
0	59452	11883.68896338916	2
0	59453	11883.690077445469	1
0	59457	11884.794123635777	2
0	59458	11884.832258482183	1
0	59461	11885.732517864461	0
0	59465	11885.739833823657	1
0	59466	11886.658073097746	0
0	59470	11887.025667031965	1
0	59472	11887.37151760918	2
0	59473	11887.627146395947	1
0	59477	11888.23147113092	2
0	59478	11888.794193842448	1
0	59482	11888.833154802339	2
0	59483	11889.666418492049	1
0	59487	11889.708450548759	2
0	59489	11889.851990056347	3
0	59490	11890.660525644477	2
0	59494	11890.788966672225	3
0	59495	11891.799297095369	2
0	59499	11892.513914758851	3
0	59500	11892.713774726539	2
0	59504	11892.802349503899	3
0	59506	11892.828156638935	4
0	59507	11893.633371273334	3
0	59511	11893.852818386064	4
0	59512	11894.705867965798	3
0	59516	11895.285303895685	4
0	59517	11895.721337999403	3
0	59520	11896.564272810146	2
0	59524	11897.181159628837	3
0	59525	11897.589531590696	2
0	59529	11897.817131396684	3
0	59532	11898.408645809348	2
0	59536	11898.933863615446	3
0	59537	11899.530071869119	2
0	59540	11900.342534885182	1
0	59543	11901.351354586053	0
0	59547	11901.512897124134	1
0	59549	11901.529086890668	2
0	59551	11901.688109077872	3
0	59553	11901.705309666548	4
0	59554	11902.509577099233	3
0	59558	11903.064202220399	4
0	59559	11903.486432996391	3
0	59563	11903.823858682271	4
0	59564	11904.589680414552	3
0	59568	11904.930842080842	4
0	59570	11905.320550102969	5
0	59571	11905.76951697422	4
0	59575	11905.84212346227	5
0	59576	11906.570811086519	4
0	59580	11906.727714041704	5
0	59581	11907.748959044645	4
0	59585	11908.16639994851	5
0	59586	11908.549101594648	4
0	59589	11909.627902473787	3
0	59592	11910.744192359036	2
0	59596	11911.107754564902	3
0	59598	11911.604975091354	4
0	59599	11911.759514334051	3
0	59603	11911.82203574846	4
0	59605	11912.362981083565	5
0	59606	11912.849577549005	4
0	59609	11914.027380678149	3
0	59613	11914.894225830607	4
0	59614	11914.924726491699	3
0	59617	11915.88178575849	2
0	59621	11916.074587238796	3
0	59622	11916.72093213843	2
0	59626	11917.364606645499	3
0	59628	11917.574559697281	4
0	59630	11917.595448230242	5
0	59631	11917.911487690078	4
0	59635	11917.922212137132	5
0	59636	11918.7574961666	4
0	59640	11919.54372723757	5
0	59641	11919.878829347806	4
0	59645	11920.084785669959	5
0	59647	11920.611955116785	6
0	59648	11920.970364420114	5
0	59652	11921.080469623139	6
0	59654	11921.375962302774	7
0	59655	11921.992148540912	6
0	59659	11922.095713043021	7
0	59660	11923.150807927919	6
0	59663	11924.346139940896	5
0	59666	11925.508120269419	4
0	59670	11926.015099504096	5
0	59671	11926.541793831715	4
0	59675	11927.14976637126	5
0	59679	11927.527275998299	6
0	59680	11927.675506420059	5
0	59683	11928.762519992141	4
0	59687	11928.993976572646	5
0	59689	11929.276304378743	6
0	59690	11929.927506170047	5
0	59694	11930.190651836201	6
0	59695	11930.82829288719	5
0	59699	11931.761788962445	6
0	59700	11931.903940536359	5
0	59704	11931.924968809358	6
0	59705	11932.8940710837	5
0	59709	11933.455520036688	6
0	59710	11934.076471098045	5
0	59713	11935.267468799835	4
0	59717	11935.273248688832	5
0	59718	11936.114225756375	4
0	59722	11936.646650601357	5
0	59723	11937.013493581394	4
0	59727	11937.015462276444	5
0	59729	11937.998134762959	6
0	59730	11938.13192322878	5
0	59734	11938.334197235752	6
0	59735	11939.050002751311	5
0	59738	11939.950434667149	4
0	59742	11940.040666877071	5
0	59743	11940.788728095402	4
0	59746	11941.686513304801	3
0	59750	11941.799801199011	4
0	59752	11942.179845474889	5
0	59753	11942.536977427078	4
0	59756	11943.410504459029	3
0	59760	11943.936206596957	4
0	59762	11943.945861534214	5
0	59764	11944.097653879238	6
0	59765	11944.577932097295	5
0	59769	11945.607977177285	6
0	59770	11945.760766608638	5
0	59774	11946.592079146989	6
0	59775	11946.769807173589	5
0	59779	11947.040259964697	6
0	59780	11947.8834389301	5
0	59784	11948.484598596065	6
0	59785	11948.747404866291	5
0	59788	11949.557551688326	4
0	59792	11950.383304451055	5
0	59793	11950.568173124639	4
0	59796	11951.451541952694	3
0	59800	11951.684347906214	4
0	59802	11952.019083169812	5
0	59803	11952.465197707245	4
0	59806	11953.484257778151	3
0	59809	11954.549281202441	2
0	59813	11954.788986184052	3
0	59815	11955.41350412397	4
0	59816	11955.493963434173	3
0	59820	11956.391871868718	4
0	59821	11956.547346518001	3
0	59824	11957.626226078531	2
0	59827	11958.695694831943	1
0	59830	11959.80629783077	0
0	59834	11960.102683378868	1
0	59836	11960.656497716854	2
0	59837	11960.978742399903	1
0	59840	11961.995689572113	0
0	59844	11962.331280436596	1
0	59845	11962.816314258425	0
0	59852	11963.945478731325	1
0	59853	11964.691956655214	0
0	59867	11967.246799887258	1
0	59868	11967.719719802587	0
0	59875	11968.598270450868	1
0	59876	11969.451901539134	0
0	59898	11974.534941111359	1
0	59899	11974.55016454458	0
0	59907	11975.391626175824	1
0	59909	11975.504193757649	2
0	59910	11975.667759617136	1
0	59915	11976.486514640317	0
0	59919	11976.823005566495	1
0	59920	11977.451822808941	0
0	59924	11977.782107921637	1
0	59926	11978.172303131464	2
0	59928	11978.429981301613	3
0	59929	11978.472788982556	2
0	59932	11979.598081433304	1
0	59936	11979.947177958134	2
0	59937	11980.441738635112	1
0	59941	11981.26782532736	2
0	59942	11981.600118681785	1
0	59945	11982.505757268235	0
0	59957	11984.973344519079	1
0	59959	11985.444124738078	2
0	59960	11985.835788238697	1
0	59967	11986.915655329168	0
0	59971	11987.230971921151	1
0	59974	11987.765736936681	0
0	59978	11988.806728707483	1
0	59981	11988.853358594324	0
0	59985	11989.174239732143	1
0	59986	11989.790430223565	0
0	59990	11990.470659252973	1
0	59991	11990.763300743974	0
0	59995	11991.282433370787	1
0	59996	11991.93568523861	0
0	60000	11992.32057625994	1
0	60001	11992.789653217229	0
0	60008	11993.84287058743	1
0	60010	11994.187293853203	2
0	60011	11994.664409404523	1
0	60016	11995.585725971773	0
0	60023	11996.847080390852	1
0	60025	11997.597485134443	2
0	60026	11997.613668913483	1
0	60029	11998.433137082677	0
0	60033	11998.587341195344	1
0	60038	11999.478334258958	0
0	60052	12001.910487360306	1
0	60053	12002.010365112773	0
0	60057	12002.275472505208	1
0	60059	12002.492340958402	2
0	60060	12002.924101129356	1
0	60064	12003.435427193967	2
0	60067	12003.877066624998	1
0	60070	12004.724569242629	0
0	60077	12005.668409069286	1
0	60078	12006.638377050492	0
0	60088	12008.778189634598	1
0	60089	12009.171304634115	0
0	60093	12009.561318433811	1
0	60094	12010.231989757153	0
0	60098	12010.694975331525	1
0	60099	12011.340956216766	0
0	60106	12012.54794717162	1
0	60110	12013.14993232945	2
0	60111	12013.261356925773	1
0	60117	12013.819516066943	2
0	60119	12014.345687974476	3
0	60120	12014.390235950234	2
0	60123	12015.372706973641	1
0	60126	12016.308115222021	0
0	60130	12016.453279399842	1
0	60131	12017.457945592697	0
0	60135	12018.324804426081	1
0	60136	12018.589104547347	0
0	60140	12018.750918221859	1
0	60141	12019.729177762657	0
0	60145	12020.369898679944	1
0	60146	12020.681141980826	0
0	60150	12021.158487751587	1
0	60151	12021.676705414797	0
0	60155	12021.782523229203	1
0	60156	12022.590889301239	0
0	60160	12023.08114390935	1
0	60161	12023.57975838128	0
0	60168	12024.747275551521	1
0	60170	12025.028829635011	2
0	60171	12025.757949875291	1
0	60175	12025.933950825717	2
0	60179	12026.708942335454	3
0	60180	12026.788510543569	2
0	60184	12027.009409692277	3
0	60185	12027.902267345223	2
0	60189	12027.932964619679	3
0	60190	12028.778206437822	2
0	60194	12029.198409289152	3
0	60195	12029.662236432354	2
0	60198	12030.82678989721	1
0	60202	12030.969729164048	2
0	60204	12031.615313924425	3
0	60205	12031.735396554875	2
0	60209	12031.903633359943	3
0	60211	12031.967290024927	4
0	60212	12032.541752788606	3
0	60216	12032.546579458415	4
0	60217	12033.477766492027	3
0	60221	12034.368037126597	4
0	60222	12034.432918721712	3
0	60226	12034.436767008756	4
0	60227	12035.423562975968	3
0	60232	12036.291345997615	2
0	60235	12037.45412489315	1
0	60238	12038.431989007159	0
0	60247	12039.644804300491	1
0	60249	12040.131812935226	2
0	60250	12040.692967428169	1
0	60253	12041.550823996025	0
0	60267	12044.161737563057	1
0	60269	12044.379469863658	2
0	60270	12044.691281185761	1
0	60274	12044.810161596109	2
0	60276	12044.861876932686	3
0	60278	12044.878286447757	4
0	60281	12045.492201789092	3
0	60284	12046.554996587611	2
0	60288	12047.394741903068	3
0	60290	12047.553812186949	4
0	60291	12047.749889004412	3
0	60295	12048.436511355048	4
0	60297	12048.632044762325	5
0	60298	12048.720964617743	4
0	60302	12049.243224199849	5
0	60303	12049.811883334718	4
0	60307	12050.595205808492	5
0	60308	12050.855005870383	4
0	60312	12050.986563470714	5
0	60313	12051.911920696214	4
0	60317	12052.450648415592	5
0	60318	12052.754053799711	4
0	60323	12053.721755170911	3
0	60327	12054.422718372086	4
0	60328	12054.74966737553	3
0	60332	12055.303577589052	4
0	60333	12055.74068493973	3
0	60337	12056.198479580762	4
0	60338	12056.784817390419	3
0	60341	12057.594936946868	2
0	60345	12057.650190498876	3
0	60346	12058.54530814094	2
0	60350	12058.656503147515	3
0	60352	12059.072310297606	4
0	60353	12059.393063347223	3
0	60358	12060.510948105058	2
0	60362	12061.077306443358	3
0	60363	12061.435431039049	2
0	60366	12062.417235835357	1
0	60369	12063.432658329694	0
0	60373	12064.212725136535	1
0	60374	12064.400897909137	0
0	60384	12066.596085038635	1
0	60386	12066.974329544518	2
0	60389	12067.339435016452	1
0	60395	12067.537533633911	2
0	60397	12067.556312115939	3
0	60399	12067.566317763552	4
0	60400	12068.488848266652	3
0	60404	12068.871735632434	4
0	60405	12069.555798731739	3
0	60408	12070.475295791118	2
0	60411	12071.359850854328	1
0	60414	12072.197018154798	0
0	60418	12072.469580800408	1
0	60420	12072.857332820076	2
0	60421	12073.289225181186	1
0	60425	12073.470690242567	2
0	60426	12074.482598287327	1
0	60429	12075.340171009576	0
0	60433	12076.199954076502	1
0	60434	12076.527227542823	0
0	60438	12077.322539564258	1
0	60439	12077.709805986745	0
0	60446	12078.750727347792	1
0	60447	12079.481675530685	0
0	60456	12080.817944263986	1
0	60457	12081.39813116155	0
0	60461	12081.411944915354	1
0	60464	12082.408242368879	0
0	60468	12082.708086525079	1
0	60469	12083.238043023175	0
0	60473	12083.809097274736	1
0	60474	12084.050846744417	0
0	60478	12084.586278363744	1
0	60479	12085.042372824992	0
0	60483	12085.456965154915	1
0	60485	12086.054028792339	2
0	60487	12086.107388000477	3
0	60488	12086.176321863006	2
0	60492	12086.236909544303	3
0	60494	12086.973145227319	4
0	60495	12087.26927075367	3
0	60500	12088.464185268986	2
0	60504	12088.779759247904	3
0	60506	12089.322000863101	4
0	60507	12089.373831203203	3
0	60511	12089.69338403863	4
0	60513	12089.703361214814	5
0	60515	12090.406645384129	6
0	60516	12090.453709339067	5
0	60519	12091.31794502297	4
0	60522	12092.242126765471	3
0	60526	12092.785808481066	4
0	60527	12093.424923481695	3
0	60530	12094.520691948752	2
0	60534	12094.717269075103	3
0	60536	12094.724934011885	4
0	60537	12095.619772708877	3
0	60541	12096.131862631809	4
0	60543	12096.340068874469	5
0	60544	12096.563752494003	4
0	60548	12097.305816937271	5
0	60549	12097.705911100093	4
0	60553	12097.932685330761	5
0	60554	12098.768824746921	4
0	60558	12099.105826956393	5
0	60561	12099.967131052721	4
0	60565	12100.083999438857	5
0	60567	12100.510059150057	6
0	60568	12100.992066979963	5
0	60571	12102.002499369342	4
0	60575	12102.35858298369	5
0	60577	12102.461186643841	6
0	60578	12103.129439734943	5
0	60582	12103.550864215021	6
0	60584	12103.978644133302	7
0	60585	12104.081269015927	6
0	60589	12104.638298739741	7
0	60590	12105.192408873323	6
0	60594	12105.471805830448	7
0	60596	12105.823496639408	8
0	60597	12106.068853124227	7
0	60602	12107.163058640152	6
0	60606	12107.513729220452	7
0	60608	12107.871337633218	8
0	60609	12108.130150985248	7
0	60613	12108.267844495728	8
0	60614	12109.069682732034	7
0	60618	12109.392724280733	8
0	60619	12110.073175116997	7
0	60622	12111.067667318597	6
0	60625	12111.872166558258	5
0	60629	12112.726960363069	6
0	60630	12112.775560807992	5
0	60634	12112.961991028287	6
0	60636	12113.248408078215	7
0	60638	12113.414474582806	8
0	60639	12113.628672670011	7
0	60642	12114.818912096784	6
0	60646	12114.843184479031	7
0	60648	12114.96398246605	8
0	60650	12115.582927746438	9
0	60651	12115.765506533158	8
0	60655	12116.370378238319	9
0	60656	12116.634104738289	8
0	60660	12117.035773358364	9
0	60662	12117.296580487254	10
0	60663	12117.515968281866	9
0	60667	12118.133713499753	10
0	60668	12118.44179210467	9
0	60672	12118.774510335024	10
0	60675	12119.444698646103	9
0	60679	12120.284599296766	10
0	60680	12120.534970898644	9
0	60684	12120.982824751491	10
0	60686	12121.15975113295	11
0	60688	12121.468162896906	12
0	60689	12121.661551760879	11
0	60693	12121.929825750842	12
0	60694	12122.803275181722	11
0	60698	12123.679556530264	12
0	60699	12123.746659015488	11
0	60702	12124.81298387963	10
0	60706	12125.009842652634	11
0	60708	12125.160358859004	12
0	60709	12125.94685646379	11
0	60715	12126.074588552083	12
0	60716	12126.92476194603	11
0	60720	12127.549219966362	12
0	60722	12127.687661779599	13
0	60723	12127.73840866163	12
0	60726	12128.725244382672	11
0	60729	12129.748285574649	10
0	60732	12130.569784188081	9
0	60736	12130.808098133848	10
0	60737	12131.444130904038	9
0	60740	12132.559628345069	8
0	60744	12132.850041438622	9
0	60747	12133.498828912802	8
0	60751	12134.313073262774	9
0	60752	12134.594880683996	8
0	60755	12135.626654476017	7
0	60761	12136.329018558081	8
0	60762	12136.727300819658	7
0	60766	12136.912716384979	8
0	60768	12137.136503239392	9
0	60769	12137.73213199861	8
0	60774	12138.625758126933	7
0	60778	12138.668762311185	8
0	60779	12139.767358937483	7
0	60783	12140.052989146287	8
0	60784	12140.791276333756	7
0	60788	12141.851789910822	8
0	60789	12141.963363564476	7
0	60792	12142.905125712692	6
0	60795	12144.069043622907	5
0	60799	12144.533249738363	6
0	60801	12145.056402643337	7
0	60802	12145.12029478801	6
0	60806	12145.644773699802	7
0	60808	12145.839022246336	8
0	60809	12146.315470423638	7
0	60813	12146.421369295603	8
0	60814	12147.161852773554	7
0	60818	12147.312951413819	8
0	60819	12148.238418486803	7
0	60822	12149.394349184442	6
0	60825	12150.20139106493	5
0	60829	12151.081797041612	6
0	60830	12151.115517430934	5
0	60833	12151.982733306563	4
0	60837	12152.937470960484	5
0	60839	12153.13781664449	6
0	60840	12153.182108971751	5
0	60844	12153.754521095678	6
0	60845	12154.25604153098	5
0	60848	12155.215561152524	4
0	60852	12155.670484808921	5
0	60854	12155.757048361527	6
0	60856	12155.75764027226	7
0	60857	12156.191535183969	6
0	60861	12156.385929256213	7
0	60862	12157.321577021661	6
0	60866	12157.339165224845	7
0	60867	12158.37277772007	6
0	60871	12158.742284049552	7
0	60872	12159.313541298634	6
0	60875	12160.267062746356	5
0	60879	12160.557348083531	6
0	60880	12161.403957448243	5
0	60884	12161.992803404013	6
0	60885	12162.506663880027	5
0	60889	12163.230153475309	6
0	60890	12163.38034484833	5
0	60894	12164.387712647597	6
0	60895	12164.564713769401	5
0	60899	12164.629628512555	6
0	60900	12165.529840414594	5
0	60903	12166.437418878726	4
0	60907	12166.560447128738	5
0	60908	12167.566291893642	4
0	60911	12168.698346304703	3
0	60915	12169.039817220517	4
0	60917	12169.743009455654	5
0	60918	12169.802429359775	4
0	60922	12170.275079914494	5
0	60923	12170.783098321125	4
0	60927	12171.172656824238	5
0	60929	12171.589090922714	6
0	60930	12171.956743465733	5
0	60934	12171.96762846434	6
0	60935	12172.864424092971	5
0	60938	12173.669682516527	4
0	60942	12173.880369363177	5
0	60943	12174.639677828082	4
0	60947	12175.112754413868	5
0	60949	12175.325636591336	6
0	60950	12175.456422983014	5
0	60953	12176.600378232446	4
0	60957	12177.01530591112	5
0	60958	12177.597305113912	4
0	60962	12177.611268604742	5
0	60965	12178.504992972684	4
0	60969	12178.568235883538	5
0	60970	12179.637584332746	4
0	60973	12180.518253210184	3
0	60976	12181.486411176712	2
0	60980	12181.884151837757	3
[...]
9	122254	24432.07514139005	14.890466612181
9	122276	24436.16776738112	15.523614022573
9	122286	24438.214447897311	18.072252507005
9	122289	24439.27480337239	18.882699630413
9	122344	24453.845262141165	17.886803752985
9	122359	24456.752539951087	15.600619388605
9	122386	24461.231746032288	0.925841034018
9	122480	24477.019147785487	7.938479372069
9	122507	24482.508071189948	8.900162863731
9	122614	24505.349765109007	7.218192809264
9	122656	24513.87797393167	3.488335672174
9	122934	24565.080307946837	19.195231073949
9	123023	24582.768938564062	3.893645363791
9	123101	24598.948036727326	18.395006636161
9	123151	24609.252012925145	30.87992393474
9	123188	24616.155882519127	3.819385701793
9	123199	24619.566929919195	7.270568999645
9	123221	24623.462066149356	1.047682728153
9	123241	24627.500756376719	1.142720468342
9	123453	24667.23753479926	0.894377247337
9	123493	24674.962414526772	23.781662241199
9	123626	24701.804191249256	3.029724576836
9	123684	24714.157713289113	0.848307010252
9	123696	24716.326376983543	6.139337790918
9	123702	24717.967004287914	18.113294444757
9	123781	24732.98778261777	2.340963032369
9	123883	24753.340165601035	2.421898176385
9	123901	24757.026446365674	2.990515311274
9	124152	24805.226083947643	2.718496625332
9	124183	24812.074048406835	0.862902911007
9	124266	24828.712637543696	1.045632792544
9	124386	24851.337826758733	7.032528441597
9	124678	24906.849124200009	13.833755020847
9	124741	24921.571842650065	8.924436586159
9	124746	24922.431941467171	0.860098817106
9	124812	24933.899928078728	1.083159143571
9	124853	24942.732258772127	23.221907194555
9	124863	24944.554100383561	1.007827873621
9	124911	24955.031421102886	13.15153892162
9	124919	24956.971549313632	1.093310168199
9	124924	24958.129542503716	8.69180982701
9	124982	24970.337648361664	5.270441249565
9	125007	24975.465052126371	0.971161530353
9	125012	24976.480112502747	17.419004903676
9	125098	24994.653400339303	0.946414851677
9	125205	25015.318561271975	14.057874333001
9	125223	25019.308198734212	22.985372385348
9	125226	25020.505557381853	7.441047700876
9	125232	25022.666604009483	11.29523469516
9	125258	25029.242856506751	3.13355194946
9	125331	25041.951605552554	9.689821118422
9	125383	25051.386794152695	4.419189178711
9	125394	25054.20914734055	5.880849472264
9	125414	25058.288697943954	1.085648864973
9	125438	25063.801955325833	7.621590850959
9	125446	25066.096516794363	2.364110038983
9	125461	25069.340541207907	22.286826381395
9	125472	25072.10527892618	34.646233693321
9	125517	25081.379346580267	2.392439781112
9	125542	25086.068215033714	19.735625679784
9	125562	25089.66827315532	12.756174308001
9	125598	25099.360821513668	1.044748615101
9	125601	25100.449116705288	7.110920355351
9	125726	25127.461337097664	10.447388646128
9	125763	25134.270467656779	29.167127200239
9	125849	25149.083234168517	4.807862456529
9	125937	25165.847919024829	6.9978620989
9	125975	25173.642373856831	1.039722590055
9	126345	25249.933527624625	27.664291982215
9	126363	25254.232152444141	13.787381590415
9	126366	25255.279704301449	15.443097395472
9	126371	25256.414644214994	5.644731504592
9	126374	25257.561947275902	6.68182079709
9	126396	25261.67059489183	6.06561356982
9	126417	25266.67629342146	1.003681289032
9	126469	25276.311406444493	29.093238445922
9	126504	25283.522825250229	15.649629999941
9	126536	25289.652332890698	2.247504065224
9	126584	25302.033478114023	10.127822003545
9	126966	25374.925505112965	1.826390827308
9	127060	25392.32660472348	23.363871107421
9	127119	25405.702759785035	33.803374310913
9	127163	25413.571824650297	12.818728435179
9	127169	25415.519244890677	4.068441402044
9	127246	25434.454574209748	0.987774961907
9	127281	25441.844711407569	17.51124141844
9	127317	25448.129762453136	16.999700471269
9	127418	25467.698867586645	16.318836082213
9	127475	25480.983136289584	6.654611124422
9	127484	25481.981908312923	2.600534688172
9	127503	25487.01717086166	6.810544624746
9	127506	25488.075808798446	13.056663559715
9	127511	25489.267826543952	13.239432716059
9	127554	25498.441703980434	11.162146650977
9	127685	25525.717316602001	4.566503598026
9	127693	25527.363779583963	9.592070732278
9	127715	25531.102037373948	29.718783607152
9	127948	25575.808614003766	27.540563403173
9	127963	25578.792759386743	12.616223041622
9	128132	25610.080185398659	3.27476647427
9	128138	25611.94505267424	0.839074334502
9	128141	25612.96303563259	1.01798295835
9	128144	25614.023005340727	58.602813091183
9	128162	25618.097427765573	22.48595211045
9	128201	25624.853664966222	16.457621692836
9	128253	25635.217078557441	18.561869917058
9	128265	25638.877846590819	0.822531562671
9	128368	25659.439355665834	10.069062677285
9	128420	25668.958243960065	24.604957309596
9	128430	25670.955046115366	6.884802044016
9	128508	25687.159459758008	5.109114193517
9	128511	25688.036869907396	21.770307843662
9	128514	25688.850575723982	9.75992862453
9	128542	25695.172134839574	24.842024472322
9	128550	25697.29179972207	6.007098349069
9	128553	25698.13882490482	3.206851604329
9	128576	25703.112581133672	21.280721069871
9	128579	25704.087231867683	24.858182215469
9	128622	25713.038007144924	25.47588336385
9	128629	25713.921904802896	6.819701325747
9	128670	25723.140747825815	6.210585684427
9	128720	25733.331793832607	25.720892363375
9	128849	25758.643682195352	7.877024737603
9	128857	25760.609377975774	35.059732960887
9	128887	25766.557835903775	8.994347743278
9	128984	25786.039997787787	31.840445359393
9	129643	25917.968231394063	4.255936271803
9	129692	25928.531051138058	20.360060490508
9	129697	25929.62559477083	1.094543632772
9	129776	25944.855990568565	1.079854206648
9	129795	25950.256475246994	1.127345249988
9	129826	25957.343302891794	15.131839676719
9	129845	25962.524581652525	2.818395631459
9	129860	25965.704747632164	4.98920074413
9	129880	25969.69373254489	0.924291035812
9	129958	25983.206027107424	6.837807842897
9	129979	25987.790372226871	32.004633113346
9	129997	25992.089786103107	5.904473467185
9	130067	26005.038654124382	4.019875416838
9	130109	26013.286872154491	23.912003549197
9	130156	26024.251235730963	7.585791674158
9	130209	26035.114996904617	20.0419498185
9	130245	26043.111102500295	15.860523142381
9	130291	26050.510532527246	11.027351572741
9	130527	26097.473380679935	13.12697319625
9	130539	26101.245562593286	8.622359391934
9	130550	26104.29575679537	20.145583569193
9	130568	26108.590500492436	16.384319528747
9	130726	26138.588572898156	20.773841680397
9	130771	26147.546554023794	15.75298345257
9	130776	26148.436511727537	23.418027311822
9	130883	26169.546182553585	12.450537753004
9	131282	26244.83943739126	19.752360259986
9	131306	26249.301165244473	1.070741446968
9	131365	26260.071234089066	13.285996238736
9	131403	26267.572114319563	0.947709706798
9	131431	26273.196575290079	1.18111028187
9	131483	26285.151085727123	3.430622335131
9	131495	26287.13108160535	1.125298161246
9	131500	26288.248182078564	22.808118735455
9	131506	26290.52406568287	5.309703523316
9	131530	26296.502569745407	2.277104561469
9	131578	26306.796627001575	5.422725309114
9	131590	26308.658082873298	10.163918213121
9	131654	26320.364487158805	6.53950682367
9	131682	26326.086117962208	0.952712571621
9	131685	26327.093381068036	10.483941338123
9	131883	26365.456105857267	15.714455421882
9	131954	26380.671963126416	6.964775239374
9	131962	26382.611642961222	27.937230790161
9	132433	26475.015837177655	1.05196488807
9	132446	26478.047133619546	15.933792032186
9	132473	26482.592343911457	4.956571857636
9	132507	26488.543893858906	28.935976145029
9	132520	26491.791367691033	8.223372803918
9	132553	26498.565882853255	15.436912712052
9	132561	26500.560186905902	1.179553841334
9	132581	26504.52651359348	13.713627853505
9	132599	26508.69692619827	0.985670172423
9	132602	26509.669121662084	30.674560655029
9	132623	26513.829864665796	10.738639425038
9	132645	26517.751990046934	6.096934443412
9	132655	26519.92883285128	24.595649796617
9	132681	26526.025554049598	4.634246752859
9	132705	26531.817050019676	10.837467101579
9	132710	26532.970812762832	2.936100838137
9	132715	26534.01161771298	3.872565214745
9	132770	26545.481932693463	11.854373671456
9	132776	26547.154890601825	24.908116813193
9	132801	26552.014311096654	13.730434829794
9	132899	26570.370321086258	10.878206155471
9	132912	26573.69305761673	3.159466752696
9	132970	26586.21743691687	9.994649581817
9	132989	26591.194570156395	5.138601238303
9	133071	26606.977313870867	6.741301506966
9	133149	26622.844911361787	37.46882125608
9	133157	26624.627099520456	14.196593865909
9	133210	26639.342422119883	19.925354197884
9	133249	26648.031782134368	9.286354666503
9	133267	26651.935514997344	4.011904622879
9	133362	26677.217584662476	15.689496551218
9	133420	26703.313403538117	1.066359970439
9	133480	26744.476440009606	0.899251469597
9	133505	26750.609961234953	0.949909944087
9	133555	26771.663528385475	19.195481735637
9	133567	26793.56369174122	2.395760338954
9	133657	26817.925220935677	2.18849730591
9	133746	26836.955708915195	8.809043414031
9	133788	26845.718491620493	1.020465490688
9	133902	26867.566321656403	2.658956657575
9	134149	26916.493678951652	2.14164320383
9	134205	26928.458829819987	1.141990423948
9	134275	26943.048105930461	24.88118401765
9	134336	26955.571475409454	0.800661966763
9	134342	26957.562145962118	15.693348919867
9	135279	27139.605579186586	0.820877882652
9	135322	27148.201426125672	24.135021427064
9	135352	27154.400665546098	15.121974178836
9	135368	27158.47841497807	4.507446991718
9	135440	27173.260998410341	1.016169208754
9	135468	27179.49308001984	4.05130292573
9	135491	27184.707746534964	22.379044769697
9	135551	27196.148273517268	3.498622181113
9	135560	27197.263814197744	2.57209830769
9	135718	27232.445136050677	10.765135589741
9	135746	27236.463451424597	0.905501304939
9	135806	27248.260027580506	7.888543235945
9	135817	27251.498689596992	9.212768283655
9	135832	27254.118835479937	4.29498281393
9	135879	27263.367954272668	8.01826314769
9	135882	27264.265470834899	5.770034539359
9	135885	27265.398542866468	8.085002093776
9	135919	27273.183977777961	8.60009563216
9	135941	27277.468349992375	11.026531995179
9	135957	27281.515805761594	0.993259265181
9	135967	27283.405736146945	5.635034977412
9	135985	27287.512787945833	7.879892249411
9	136013	27293.887708329954	10.715994396077
9	136108	27310.814640117794	4.526929474588
9	136261	27340.976709472464	1.188786328677
9	136328	27354.44766711209	14.154114633922
9	136337	27357.240605780092	9.099632630868
9	136403	27369.675949193333	1.195933891647
9	136510	27392.543243096937	19.323760116089
9	136586	27406.307467492932	11.945740547963
9	136648	27418.280885754881	3.405150636527
9	136651	27419.357603493688	1.076717738807
9	136750	27438.512933023163	10.449694150853
9	137000	27488.324678380305	1.056327448972
9	137005	27489.505670979602	1.180992599297
9	137016	27492.364891023172	41.788219564295
9	137019	27493.246405778529	20.957413759693
9	137024	27494.340157414025	15.369871090241
9	137073	27503.360425790569	2.455008726144
9	137118	27512.722266614515	17.38055170784
9	137126	27514.697473880541	5.340973501879
9	137177	27525.444316793405	6.385445299728
9	137215	27532.588626923677	0.960536666773
9	137244	27539.810902547449	1.05614892887
9	137249	27540.93858557016	7.428959777617
9	137281	27547.134938246368	0.808198466338
9	137288	27548.109444729595	3.110142913106
9	137298	27550.30141970523	5.355157767002
9	137430	27578.125352071306	14.165327771294
9	137454	27583.962184728668	18.227543321342
9	137493	27592.454556497918	6.691720107125
9	137604	27613.536606880543	11.551864166166
9	137711	27629.900956179374	12.474379024636
9	137756	27638.69322998662	12.889411246041
9	137811	27649.280730676822	14.416773435241
9	137927	27673.902017234437	19.438906001307
9	137977	27684.311524387806	4.22787712791
9	138011	27691.89154575447	2.647799196152
9	138087	27707.968825231013	1.110329513066
9	138099	27709.623885744796	11.511074607637
9	138109	27711.301656835419	4.975620192758
9	138135	27715.293739620117	25.569859914305
9	138143	27717.418591624206	12.439994637668
9	138475	27781.666814236708	10.374688115188
9	138527	27791.366713857084	0.868922331743
9	138586	27802.583241469311	0.960554846376
9	138718	27828.646072741497	16.198178955138
9	138750	27836.79613719293	17.572751301101
9	138830	27852.222981537311	3.969092837442
9	138936	27871.946100137841	2.764582991914
9	138956	27876.014766299065	5.847401371461
9	139015	27887.469964951364	12.307841304682
9	139041	27893.620700550631	3.701239602043
9	139057	27897.475542472762	0.83005466722
9	139094	27906.814104409322	5.997622049357
9	139118	27910.899589734424	1.099019668903
9	139151	27917.540758747601	12.564441685116
9	139159	27919.431891701271	29.803595974129
9	139310	27950.625011614331	1.825314515668
9	139318	27952.684376831347	11.170426864934
9	139375	27964.104857724621	11.417255187418
9	139386	27966.926041720431	0.819421903696
9	139391	27967.98463965002	6.248202145564
9	139436	27977.697722252454	39.61719317325
9	139444	27979.764663904435	11.989871212521
9	139471	27984.69190564034	23.047551305234
9	139509	27992.363370589534	11.790227921411
9	139536	27997.14445603126	34.587762212335
9	139654	28018.110933209762	1.086885605287
9	139676	28023.647750233201	2.436091773788
9	139713	28030.196754068317	40.895346592337
9	139716	28031.172110580461	0.975356512144
9	139719	28032.305757503671	30.532539549232
9	139722	28033.479324483213	2.585678999721
9	139746	28039.056889490776	17.303301964184
9	139805	28050.53414771314	14.228666968848
9	140016	28091.248565411003	9.588452083397
9	140037	28096.167259149713	12.399281198908
9	140040	28097.308586261788	1.141327112075
9	140095	28108.977076553081	7.419441544237
9	140177	28125.536152193504	4.878800116019
9	140202	28130.480148604136	7.88440839606
9	140222	28134.487070964179	26.513754850461
9	140272	28144.597805475718	15.221722859703
9	140314	28152.508116473811	9.412674801377
9	140384	28166.369986586268	11.121922776264
9	140412	28173.05463145561	7.222616841945
9	140501	28190.50742027871	1.04138901541
9	140535	28198.321189254613	8.657887979964
9	140596	28208.973482998645	3.358642619283
9	140828	28254.631937316243	34.624558490625
9	140845	28257.619007614345	8.775280974992
9	140895	28266.828787512796	2.48270413104
9	141036	28295.369362729039	4.379115654098
9	141082	28305.363588009491	32.897813936337
9	141124	28313.496950814589	3.272260320923
9	141135	28316.514308751556	43.799706267809
9	141177	28324.939090272779	1.022013425827
9	141182	28326.112802850636	21.60886179609
9	141219	28333.008661110135	3.816864658989
9	141330	28353.128286007132	10.811965018796
9	141338	28355.003715881138	5.973026593602
9	141454	28376.876258612229	5.697018136167
9	141465	28379.607895388259	35.252497072216
9	141493	28385.605959947865	17.691794721707
9	141529	28393.517327957033	1.06222594697
9	141535	28395.567611050877	18.464985565883
9	141554	28398.86900062169	3.887523300517
9	141611	28409.948242428611	3.738697888345
9	141726	28433.267722035936	14.22209132308
9	141741	28436.19271452454	2.788318256251
9	141749	28437.990682919687	23.441313308404
9	141752	28438.819287959384	5.306348843689
9	141946	28476.471690981547	0.9485478268
9	141949	28477.375362285963	10.665229644374
9	141964	28479.844915157269	18.601965175013
9	141989	28484.833164275337	0.811335544009
9	142041	28494.554357031539	15.90094178135
9	142153	28517.502385883216	6.214430882218
9	142222	28531.629266722218	7.646972144112
9	142264	28539.920181332713	1.089784824383
9	142356	28557.751964415981	21.241624531905
9	142546	28596.268151127638	15.084517830267
9	142566	28599.847558031695	9.218238552739
9	142679	28623.21870921673	10.23009186177
9	142699	28627.728783640543	7.322852443224
9	142708	28630.720367576086	5.428656659189
9	142867	28661.230263991744	34.416405434184
9	142958	28677.664885279441	6.401799443987
9	143002	28686.005505942086	7.142340127575
9	143050	28695.866776939574	1.052005083766
9	143276	28740.278010282664	4.627055686807
9	143488	28783.56995325638	7.091170434278
9	143508	28787.338638814259	0.877913929708
9	143610	28807.343134269306	1.041933140345
9	143618	28809.200219155663	2.328475481052
9	143621	28810.142034009752	11.220726374624
9	143626	28811.148557188922	32.709929009309
9	143636	28813.196132413393	30.029936190598
9	143662	28819.156877634677	2.896456793975
9	143706	28827.319119089285	4.85825416558
9	143787	28843.268195295896	2.022200251056
9	143793	28845.1522830206	2.399682133334
9	143887	28863.369192643374	7.700939764827
9	143897	28865.153935977914	2.585024317442
9	143903	28867.026076702312	4.885169595222
9	143908	28868.068307211347	8.9771984764
9	143962	28879.808628213129	6.211943768421
9	143989	28884.807593776195	7.927698728586
9	144009	28888.855064110926	24.984653975815
9	144015	28890.976449952649	14.833116941505
9	144020	28891.876201117879	25.180761182806
9	144023	28892.75498894863	9.22129219226
9	144041	28896.793350329252	18.872807462453
9	144044	28897.829457687216	23.437423892074
9	144050	28899.957637688893	9.49230930487
9	144070	28906.37405357074	1.196747937519
9	144082	28910.616732864477	15.42587187736
9	144151	28926.258746208384	1.030864332058
9	144169	28930.024488715402	7.339061383188
9	144185	28934.026814377162	4.095649153838
9	144190	28949.625149855199	0.936055932008
9	144202	28957.969159684275	3.408354931909
9	144215	28961.461781991653	3.492622307378
9	144220	28975.27794893604	1.038684983365
9	144252	28992.090509007222	5.817686882667
9	144321	29005.298889976556	1.142027309816
9	144603	29069.1203974566	1.187178585865
9	144656	29080.079156128463	3.914764058574
9	144912	29128.674331883859	4.198309824157
9	144966	29138.697185980861	2.119289940234
9	145015	29149.684627841185	2.780978253825
9	145093	29166.884391073191	7.370306544689
9	145264	29200.801394776125	1.164222872816
9	145267	29201.925078791157	1.123684015032
9	145299	29208.040061086846	8.836399854479
9	145312	29211.068238848877	7.252904201502
9	145355	29219.476551531591	3.542505503809
9	145378	29224.737385451198	2.338860533582
9	145422	29234.163143800349	11.538250016498
9	145464	29242.608576732	15.417160165282
9	145479	29245.517929124051	11.880970732434
9	145490	29248.481897381005	24.127522031289
9	145546	29260.257129870039	13.017867879611
9	145551	29261.441565430407	17.042240251714
9	145609	29274.216987126129	16.235149589818
9	145612	29275.053898166208	18.837278008845
9	145665	29289.43733274419	25.811098068904
9	145709	29305.233047413585	9.465187947247
9	145944	29353.150089880273	3.823069243275
9	146338	29429.008181333925	24.080383734765
9	146381	29437.754579321397	1.043368681613
9	146426	29446.452061385391	2.050885629054
9	146438	29448.522916782563	4.421937281753
9	146444	29450.527319703446	2.754287698105
9	146451	29451.632300130473	1.104980427027
9	146488	29458.551255584611	17.128663349581
9	146563	29473.820100476228	4.208139703459
9	146584	29478.75139913001	15.368611489442
9	146599	29481.630957625256	6.338173706748
9	146609	29483.974781531011	1.198531635385
9	146637	29489.914916038243	6.337076383327
9	146648	29493.111822326118	8.220533001274
9	146833	29527.637205553341	9.828441495305
9	147164	29591.92357141693	4.966325655833
9	147170	29593.696294295051	0.855574493203
9	147173	29594.702727148504	3.402442589686
9	147359	29630.099069034688	9.627309916625
9	147377	29633.56168980087	14.761676979138
9	147390	29636.606814878535	0.823392104823
9	147541	29665.925745372016	2.211738008377
9	147559	29669.85777097103	9.658003777736
9	148544	29862.7332101253	11.172152680025
9	148637	29882.04658427873	15.256586720194
9	148679	29890.344630387718	5.866144899004
9	148773	29909.942595251757	3.770529563819
9	148782	29910.782659414052	0.840064162295
9	148852	29924.367813521173	0.884494853579
9	148915	29937.844503878257	0.985069531202
9	148970	29948.403516141991	5.581913948063
9	149077	29970.077157975004	14.637476182012
9	149097	29974.047011262753	1.045177940652
9	149105	29975.804260973928	5.906503747187
9	149121	29980.022190552594	5.093235883557
9	149140	29984.999710180627	2.822435615614
9	149145	29986.132218800222	5.338622750041
9	149170	29991.310983220877	1.167659400124
9	149185	29994.339751805103	1.029643516243

