version 2
run Second_exit_2-9-20191114-11:42:30-8884
attr configname Second_exit_2
attr datetime 20191114-11:42:30
attr experiment Second_exit_2
attr inifile omnetpp.ini
attr iterationvars ""
attr iterationvarsf ""
attr measurement ""
attr network ResponseTimeNetwork
attr processid 8884
attr repetition 9
attr replication #9
attr resultdir results
attr runnumber 9
attr seedset 9
param **.Source.interArrivalTime exponential(5s)
param **.jobPriority bernoulli(0.6)
param **.PS.serviceTimeU1 "uniform(0.8s, 1.2s)"
param **.PS.serviceTimeU2 "uniform(1.8s, 2.2s)"
param **.SS1.serviceTime exponential(1s)
param **.SS2.serviceTime exponential(1.2s)
param **.PS.exitProbability bernoulli(0.2)

vector 0 ResponseTimeNetwork.sink lifeTimeU1:vector ETV
attr interpolationmode none
attr title "lifetime of arrived jobs U1, vector"
attr unit s
vector 1 ResponseTimeNetwork.sink totalServiceTimeU1:vector ETV
attr interpolationmode none
attr title "the total time spent  by arrived jobs U1, vector"
attr unit s
vector 2 ResponseTimeNetwork.sink lifeTime:vector ETV
attr interpolationmode none
attr title "lifetime of arrived jobs, vector"
attr unit s
vector 3 ResponseTimeNetwork.sink totalServiceTime:vector ETV
attr interpolationmode none
attr title "the total time spent  by arrived jobs, vector"
attr unit s
vector 4 ResponseTimeNetwork.QueueU1 queueLength:vector ETV
attr interpolationmode sample-hold
attr title "queue length, vector"
vector 5 ResponseTimeNetwork.QueueU2 queueLength:vector ETV
attr interpolationmode sample-hold
attr title "queue length, vector"
vector 6 ResponseTimeNetwork.sink lifeTimeU2:vector ETV
attr interpolationmode none
attr title "lifetime of arrived jobs U2, vector"
attr unit s
vector 7 ResponseTimeNetwork.sink totalServiceTimeU2:vector ETV
attr interpolationmode none
attr title "the total time spent  by arrived jobs U2, vector"
attr unit s
vector 8 ResponseTimeNetwork.SS2 queueLength:vector ETV
attr interpolationmode sample-hold
attr title "queue length, vector"
vector 9 ResponseTimeNetwork.SS1 queueLength:vector ETV
attr interpolationmode sample-hold
attr title "queue length, vector"
0	13020	10000.940527400221	0.863530131895
0	13025	10004.724620222931	1.071500669606
0	13039	10008.929655070156	1.803151426514
0	13077	10020.823553580461	0.880021585431
0	13085	10029.678996858607	0.812458267063
0	13090	10030.678769111027	0.938061153982
0	13095	10034.138127068005	0.900336803775
0	13127	10047.269740913069	1.008871807437
0	13130	10048.364198629191	2.092470701167
0	13135	10055.201571614143	0.878529719077
0	13140	10068.595211217287	0.978581016697
0	13155	10081.084666007037	0.990795413218
0	13160	10087.340010022902	1.082256780472
0	13165	10091.592720175847	1.194335092977
0	13170	10094.674605356797	0.976400607452
0	13190	10103.00800964608	0.90108084185
0	13200	10110.937120355373	0.914206460305
0	13210	10137.770272580019	2.072742957072
0	13215	10153.682918952479	0.811014509667
0	13230	10165.42189740565	1.064514474198
0	13235	10167.126370531796	1.036756172404
0	13254	10170.138737515718	2.805521773453
0	13259	10171.185561713748	3.134032043335
0	13262	10172.006457996261	1.145002804785
0	13270	10174.156696054697	0.877660611738
0	13282	10179.558229762315	2.750756226033
0	13294	10181.600325884669	1.713008328361
0	13297	10182.499597398749	2.574714189365
0	13300	10183.537324857897	2.564534628505
0	13350	10235.005026220948	1.079040405806
0	13355	10246.519879969475	1.071621614508
0	13360	10252.558379786724	0.824381301738
0	13365	10253.975596522692	0.923222510144
0	13370	10258.928543336548	1.19075647844
0	13392	10279.473224779131	1.314242882893
0	13402	10281.357421284733	4.074445070792
0	13405	10282.172796628816	2.38214302432
0	13415	10288.068261225488	1.199422279745
0	13420	10302.313838597496	1.032239911612
0	13430	10326.650851809741	3.083219493176
0	13435	10333.35659214079	1.079680513218
0	13440	10351.543552939167	0.902028566599
0	13445	10370.81515533045	1.103453825228
0	13450	10372.26499147815	1.19842609521
0	13455	10374.182556193513	1.07409027731
0	13460	10379.730124430539	0.801074335631
0	13470	10383.864741078703	1.141591836978
0	13480	10389.758923510338	2.560069340792
0	13485	10394.463018204173	0.939515015669
0	13497	10397.630148668757	2.134373195756
0	13502	10398.498204975466	1.675356664885
0	13515	10408.029521929825	2.68432804171
0	13520	10416.584369969597	0.933437657822
0	13545	10434.650928382319	0.976029528771
0	13550	10438.936601369907	0.922446623351
0	13562	10446.050408103394	1.146876013193
0	13565	10447.128196981906	3.259517524951
0	13577	10455.650683950484	1.03631439656
0	13580	10456.699023917914	1.346233127199
0	13602	10471.958140017234	1.710971344158
0	13610	10474.14846836902	0.81712276591
0	13620	10504.877956263067	1.010721951537
0	13632	10529.28166430444	5.306545528994
0	13640	10533.218826922087	4.070481104621
0	13645	10537.029766139206	0.87907251697
0	13665	10552.186015211855	0.828299605474
0	13675	10561.255236535574	0.969338945486
0	13680	10572.380259367531	0.930391368084
0	13685	10575.403264542338	0.964655413572
0	13695	10593.318494078181	0.884729950037
0	13722	10609.627020009043	1.027372490987
0	13727	10610.749591831485	1.355559743495
0	13740	10614.439655539671	1.623899650258
0	13745	10617.44290651401	0.883985926583
0	13759	10621.725871465415	0.817413344234
0	13772	10624.660182304926	4.707266096207
0	13782	10626.376294910395	0.828489475138
0	13790	10628.25564533756	1.869290464475
0	13810	10645.267184770301	0.893825735431
0	13815	10647.465663224307	1.033928551432
0	13825	10651.399477022553	2.02544930921
0	13835	10657.650661968397	0.828178902157
0	13840	10665.345812412689	0.976441355236
0	13845	10672.813256458957	0.99032764025
0	13865	10684.683082956338	0.895307977032
0	13887	10702.389262103664	1.44399020472
0	13895	10704.38053049255	3.26446119927
0	13900	10705.718112384833	0.923175445851
0	13905	10707.504847017666	1.024359890167
0	13910	10712.58384215228	0.844189514033
0	13915	10715.049730144767	1.126179884933
0	13925	10721.90602970445	0.804002909828
0	13930	10724.564783190152	0.893051937129
0	13935	10736.51154551939	0.949237935618
0	13962	10749.49847487368	5.980185808445
0	13975	10772.443088602847	0.8988238886
0	13980	10778.045468509611	1.172940135561
0	13990	10785.291742666926	0.831076054275
0	14009	10793.922833367949	1.173922634963
0	14026	10796.884273442672	2.323316469254
0	14036	10799.071084029087	4.577756815901
0	14041	10800.205810898029	3.294093397059
0	14044	10801.302437585638	2.657992888629
0	14059	10804.908166998878	9.060556964714
0	14062	10805.88089229881	1.864297543411
0	14085	10823.780363657569	1.550225400065
0	14090	10825.315294099385	0.976354946103
0	14095	10832.227882822023	0.957575737126
0	14110	10845.522907884985	0.876035586093
0	14125	10859.094350417855	5.014612884458
0	14140	10893.098821122909	0.816653923132
0	14145	10894.856988187892	1.192428231426
0	14170	10900.800590746701	3.228676514935
0	14180	10916.770052566842	1.026060561929
0	14190	10927.574065448368	1.140292858053
0	14200	10936.752677553689	1.780569687943
0	14207	10939.795181192799	1.110022767354
0	14220	10950.442371292449	0.958061432932
0	14225	10952.719458194681	1.030393010005
0	14237	10957.914266728052	1.006368690263
0	14240	10958.956468719431	1.595496968439
0	14247	10962.68026337983	0.95698041115
0	14256	10963.834128994084	1.755051052173
0	14259	10964.728987916428	1.397938003805
0	14275	10979.496233259229	1.804943083379
0	14280	10997.739255341	0.925946682505
0	14312	11019.911723686456	1.269155482109
0	14327	11024.908349891873	1.137500524241
0	14345	11037.319149809647	0.96805611467
0	14352	11040.185420328615	0.803581497073
0	14357	11041.25113157784	1.476272762005
0	14377	11048.61991984903	1.021115903836
0	14392	11053.684652861803	0.949682987947
0	14410	11096.885248688977	0.839839222189
0	14415	11098.952713641269	0.958143564221
0	14422	11110.223042904043	0.865885039605
0	14425	11111.072278538735	1.341594823155
0	14430	11114.560328879411	1.034880545456
0	14435	11128.626125883628	0.927035740763
0	14440	11133.647467600759	1.192340487242
0	14445	11153.579108865708	1.142504364625
0	14452	11163.797548328394	0.918902460113
0	14455	11164.75094436189	1.726689690856
0	14465	11184.97534735727	1.150352999568
0	14470	11193.704663810568	0.817893825192
0	14489	11199.123559114957	2.051829522295
0	14500	11207.507251626746	0.823991789483
0	14515	11226.607787094316	2.451714081331
0	14529	11229.370590750969	1.20488225823
0	14555	11239.696643000448	0.907327317167
0	14560	11240.664885873776	0.91011361666
0	14597	11266.555741585178	1.384247475778
0	14600	11267.735625710284	1.391412361209
0	14605	11268.999006154551	4.426377687914
0	14614	11270.574528411903	0.942375367694
0	14635	11276.384464978262	6.570977770273
0	14650	11293.825205689997	0.883258270659
0	14667	11305.21925920566	1.546288289824
0	14670	11306.060665751169	3.605695666675
0	14680	11322.364368262101	2.316851248261
0	14700	11336.913084384916	1.593814072246
0	14710	11340.310739608617	5.303238047585
0	14715	11343.065595828344	1.049207741581
0	14720	11349.467850968569	1.120444026776
0	14725	11352.119754172802	1.160302267503
0	14730	11358.320229833671	1.021307682618
0	14735	11359.689138029488	1.122401293647
0	14749	11363.424944989317	2.071251201475
0	14752	11364.450988579661	2.796446400826
0	14765	11371.019381541121	8.288080639146
0	14770	11385.521943158553	1.148338515405
0	14777	11397.091326521544	1.026913977694
0	14789	11399.103685313298	1.951886882823
0	14792	11400.039684987462	1.531047147579
0	14795	11401.122756611298	4.920478580552
0	14800	11405.488644552798	1.039423699118
0	14807	11409.82220048744	1.077680738829
0	14822	11413.768657076751	1.138939446956
0	14825	11414.57416575376	4.39868558899
0	14830	11417.681348620381	1.1411748657
0	14845	11442.391591514123	1.806712910388
0	14865	11459.328162410831	1.067175622936
0	14870	11466.0238680695	1.113194982708
0	14875	11471.927125451477	0.883577180747
0	14885	11484.36186701991	1.764357062136
0	14890	11490.891223001472	1.132861440629
0	14895	11500.534561977123	0.916553338803
0	14902	11508.318314772942	0.887052720133
0	14905	11509.503906244603	1.2954794397
0	14925	11519.828710732279	6.772958684832
0	14930	11525.141692503931	0.887543630973
0	14945	11535.816201007199	5.681653558492
0	14957	11545.860676928189	1.035492804646
0	14960	11546.842597211011	1.995397691128
0	14965	11551.24500574681	0.848161678761
0	14975	11559.189953126126	0.918269406073
0	14982	11568.570124966819	1.014437604696
0	14985	11569.717982444335	1.652530881848
0	14995	11584.703169622059	0.987937569711
0	15000	11586.691069324748	0.910027864482
0	15010	11591.45411693711	1.157887665369
0	15025	11598.526899148809	0.909092806559
0	15050	11634.070122735538	1.169036683626
0	15055	11637.520265587339	0.974069944769
0	15077	11650.429984420522	6.285153996836
0	15095	11659.285390839663	1.111833665986
0	15110	11664.213691750564	0.973484759964
0	15127	11673.82637549089	0.936088895518
0	15135	11682.655050452984	1.068385503348
0	15145	11695.088718880683	1.187884472404
0	15165	11713.184861872389	2.211937527909
0	15175	11752.608094532669	1.185850114096
0	15190	11779.294156866643	4.114818784505
0	15195	11781.628540212909	1.114474315662
0	15210	11796.040745068553	1.047167829145
0	15222	11805.881180213455	1.122269472294
0	15230	11809.76567772281	1.130540574994
0	15252	11828.861027635585	0.852433449961
0	15257	11830.033828248407	1.67024537463
0	15260	11831.223999239641	2.080871126218
0	15265	11832.674335056829	0.800659013074
0	15272	11841.638913784016	0.997279947344
0	15275	11842.699048984729	1.605461312157
0	15300	11849.564686141467	1.227101129912
0	15310	11856.98071075144	0.890287608746
0	15325	11865.481828523719	2.171728289918
0	15340	11868.953504521707	2.081931543174
0	15345	11871.323328576218	0.921707719844
0	15360	11885.537137699703	6.596648967435
0	15367	11908.177357422338	0.840838837344
0	15380	11915.311489473865	7.433621925065
0	15405	11927.901400760655	1.732820742678
0	15450	11979.055939036955	0.909968758561
0	15460	11987.035683278152	1.070786528848
0	15467	11995.853323483881	0.934835989866
0	15470	11996.919455159124	1.532585249031
0	15475	11999.577577060519	0.967122069187
0	15485	12006.283156712707	0.928063357528
0	15492	12007.407239267516	0.858130026516
0	15495	12008.575044894225	1.749860191681
0	15500	12011.491421200363	1.154924850073
0	15510	12047.893096050734	0.826999221742
0	15520	12057.786388677281	0.998576468509
0	15525	12069.496772450041	0.983982837945
0	15540	12078.913473817604	3.571658360967
0	15557	12103.106765450536	3.012181635853
0	15560	12104.130995385813	1.549262150052
0	15570	12108.902618398052	1.359550494525
0	15585	12123.103726588658	0.909861941636
0	15590	12131.184898162908	1.090321705304
0	15595	12139.653478738396	0.996884051897
0	15600	12144.573735909561	1.118908561859
0	15610	12155.341782815504	0.907953782659
0	15615	12164.632688094319	0.966075578704
0	15622	12168.345949057046	0.830474081915
0	15632	12172.316735134964	1.009085798077
0	15640	12174.927441646999	3.224343450569
0	15665	12190.208519774505	2.950333097265
0	15672	12192.264806526275	1.162942044903
0	15685	12197.674474077703	5.702522960021
0	15695	12210.708571184618	3.920797366607
0	15702	12222.645077006159	0.986343329307
0	15712	12224.460601063108	0.877232040837
0	15719	12225.366786429601	1.144544561948
0	15722	12226.227563790454	1.593121504609
0	15725	12227.108133563528	5.094273981227
0	15730	12229.484012166264	0.958421714604
0	15735	12233.465244727962	1.141704604216
0	15740	12240.817111679109	1.090955120604
0	15745	12250.909484716792	0.835851512477
0	15750	12256.347971649298	1.131979805417
0	15757	12258.493871312244	0.979359558411
0	15762	12259.532842028355	1.866460628894
0	15765	12260.387098153336	1.790364668673
0	15775	12266.587016783822	1.113396896701
0	15780	12272.977014040023	1.055291213468
0	15790	12276.980705712648	1.068645608332
0	15807	12284.757738849639	1.15976903569
0	15810	12285.802945511906	1.871798723538
0	15817	12288.308733153984	1.062020946294
0	15822	12289.349429779489	1.338833057263
0	15830	12291.655903680485	2.765286820896
0	15835	12300.91621092982	1.150128056109
0	15842	12309.923139963391	1.109139036946
0	15847	12311.06493667066	2.213476974652
0	15860	12316.732348651188	5.96857558107
0	15867	12334.571391970082	1.118160009943
0	15877	12336.926061323914	2.32951033827
0	15887	12338.880725465691	4.909212960603
0	15900	12344.669647411313	0.951629354525
0	15920	12352.418888724136	0.978402631171
0	15925	12356.522449976593	0.84794317726
0	15935	12359.972227834081	1.129377707574
0	15940	12362.489995146788	4.655365568076
0	15955	12369.808100441763	2.597504249554
0	15960	12374.090288325619	1.082278550975
0	15967	12378.776533837469	0.964802276995
0	15972	12379.803345891127	1.677542176048
0	15982	12382.488726019243	0.865357754007
0	15992	12384.510875653261	2.328957213631
0	16024	12391.292671611168	3.129458336189
0	16027	12392.251618758597	3.079130927287
0	16030	12393.205959390298	2.383292928531
0	16035	12419.940276980737	0.966668139491
0	16044	12421.69340325813	0.880581259355
0	16047	12422.616515280169	1.085444656472
0	16065	12430.221030199884	2.60422659004
0	16072	12433.248266678063	0.889794727322
0	16075	12434.141474912075	1.363481203994
0	16095	12454.312853614854	2.051474945918
0	16109	12460.14259094729	1.022134010272
0	16114	12461.339209163589	3.264756636043
0	16117	12462.537958065448	3.276940325638
0	16120	12463.521544063864	3.214652348249
0	16125	12471.298327258051	0.964871457033
0	16135	12479.401389274751	1.417593542823
0	16140	12488.96954623572	1.191477710474
0	16160	12517.998444030942	1.031114496104
0	16167	12538.07353013334	0.81896849256
0	16199	12557.192380841135	2.253610892056
0	16202	12558.167543091963	1.472185121531
0	16205	12559.146198031458	2.303977368156
0	16210	12569.546075046504	0.919827407412
0	16232	12576.996860744461	0.851094903145
0	16235	12578.107604696352	5.332000472688
0	16245	12590.091787453266	3.816331777775
0	16265	12596.653645786002	1.381333188828
0	16275	12609.89768669238	0.986273696832
0	16297	12618.902947576599	7.594444981195
0	16305	12627.518984206068	0.908911985811
0	16325	12641.661490655533	1.190679293964
0	16332	12649.064415169361	1.121394939814
0	16335	12650.053920820675	1.585528659293
0	16350	12676.062834844279	2.182619857471
0	16355	12683.863356848293	1.007364142034
0	16360	12685.585832260775	1.069935432915
0	16375	12697.022942377787	2.157342496254
0	16395	12717.791680460573	0.93492633719
0	16400	12730.184110819874	0.880564062297
0	16415	12736.662484163806	1.014754229802
0	16420	12741.129664103293	0.904349875916
0	16435	12757.775345215016	1.160187137213
0	16460	12780.568486886497	1.123667007405
0	16480	12789.622636951493	1.009821099322
0	16495	12805.509268746932	0.87990935389
0	16500	12830.039957560817	0.929234854225
0	16505	12838.940114371457	1.046147240978
0	16515	12862.240444966744	1.109999228921
0	16520	12864.538562481305	1.15048421137
0	16527	12879.599406334616	1.129248475004
0	16535	12882.740572090277	3.566959376835
0	16545	12887.942004620487	1.102854682691
0	16557	12897.517722684052	1.438388373923
0	16564	12898.344942683168	2.01649484433
0	16577	12901.23097288739	3.514737961427
0	16580	12902.217894610484	6.926101285033
0	16585	12925.778624405516	0.819566787872
0	16595	12930.811294510479	3.778557977407
0	16600	12934.750129672668	1.056855830271
0	16610	12937.475547097841	2.256877974854
0	16635	12953.610859666185	2.806681044493
0	16640	12955.919310544635	4.301003445575
0	16645	12961.213412187092	0.957602577843
0	16650	12962.828437420643	1.061784016807
0	16655	12968.729324939886	0.943426802475
0	16660	12976.621660750836	1.164180040918
0	16665	12979.876365575004	0.917386771273
0	16695	12996.3547525701	2.143357125574
0	16700	13002.333950314448	0.848416363355
0	16710	13012.655801372719	1.138354429416
0	16715	13014.844059317443	1.146320269629
0	16727	13032.775985888267	1.098859794531
0	16735	13038.100843938425	0.813738150708
0	16740	13039.684837430214	0.880243250821
0	16752	13042.150849911674	1.665471723879
0	16755	13043.20596074435	3.161492028832
0	16760	13048.012031224815	1.167937535048
0	16765	13051.754432929731	1.021460942458
0	16782	13070.005115796693	1.995523765746
0	16785	13071.031644659929	1.782359500246
0	16790	13075.838672440742	0.810518906917
0	16795	13078.762171863252	1.078760665096
0	16832	13098.41749124741	1.492054893083
0	16847	13102.976964824747	3.748142601444
0	16850	13103.984930635158	1.611012597275
0	16862	13107.9199403622	0.994883982837
0	16870	13112.455691154198	1.01560589429
0	16875	13114.262253741323	1.079373531882
0	16882	13115.450782921072	1.102798852511
0	16885	13116.473014930822	1.974741825236
0	16905	13132.914659548786	2.205423072951
0	16910	13136.285903374673	1.114877456147
0	16920	13149.860936977601	1.175606828462
0	16925	13154.944398944336	0.927432879154
0	16930	13162.762771420327	1.160429467726
0	16956	13171.349615019718	5.488439758215
0	16969	13174.263472215058	4.376410995374
0	16982	13177.104132495513	1.712734076063
0	16985	13178.082587039256	2.148819678068
0	16995	13184.379772061002	1.192900830414
0	17005	13191.573584831721	1.461613244445
0	17045	13207.805995521067	2.663168929238
0	17050	13209.474404548754	1.175719936099
0	17055	13229.12715548363	0.916864444781
0	17060	13231.520440056934	1.043670807779
0	17072	13243.933676022289	1.114754202683
0	17077	13245.114537215883	1.337621819766
0	17085	13250.043992428074	5.937417302413
0	17110	13280.145632514146	2.426279391193
0	17119	13288.040187762464	1.080926228687
0	17137	13292.241142905756	2.036408420155
0	17147	13294.252538102299	6.025157759428
0	17150	13295.427584146235	8.034250058894
0	17159	13296.906894886777	1.014623307064
0	17162	13298.040088255335	2.012523510307
0	17165	13298.989488272466	2.703991258523
0	17175	13302.292361481507	3.269640921848
0	17182	13309.488780337435	1.193267366197
0	17185	13310.529511780341	2.055788407722
0	17190	13319.159111099926	0.820487234462
0	17204	13334.797956828835	1.126807794906
0	17207	13335.821077178853	1.100388657696
0	17234	13340.854678927237	1.613374539059
0	17242	13342.871007960723	6.865659191556
0	17250	13350.111396763999	0.878427959606
0	17265	13354.79330332983	3.194708995987
0	17275	13358.566641026517	0.903554973658
0	17285	13377.793721854455	0.841512245033
0	17302	13384.414396882753	1.159442153294
0	17339	13393.626204840314	1.537624907556
0	17342	13394.621643189561	2.408893592445
0	17347	13395.661047978174	7.987371199243
0	17350	13396.735912452951	1.262138414316
0	17355	13399.441756653036	1.151568578463
0	17370	13406.62019417318	4.183114756573
0	17375	13416.078951855832	0.931153982319
0	17384	13424.772973256166	0.921673218813
0	17387	13425.684445599633	1.829397299118
0	17400	13441.679042904533	1.168268199172
0	17405	13449.341047443536	0.930538164265
0	17415	13455.843883339803	0.961183411814
0	17427	13458.728777988238	1.659958897776
0	17430	13459.672229645105	2.888054731675
0	17455	13469.9717994826	4.11329774921
0	17492	13488.477588643537	0.888403680641
0	17510	13504.720632308485	1.060602847021
0	17520	13516.971360754569	0.906211265083
0	17525	13526.307264053894	0.91053819349
0	17535	13533.785188425763	1.194819930412
0	17550	13551.42002407651	1.089969669562
0	17555	13556.247470381054	1.012203314807
0	17574	13560.836068229999	1.287136248864
0	17579	13561.924408304382	2.063780797551
0	17600	13581.839951242834	0.840160904545
0	17612	13590.352841105129	0.978667178936
0	17625	13604.663335140762	0.880738975573
0	17630	13613.107061263771	0.996553535108
0	17635	13618.584747251387	1.153716527484
0	17655	13625.247786262473	4.510795074996
0	17665	13642.370300050568	0.985896525811
0	17677	13646.263514821998	1.934911290911
0	17680	13647.183974304537	1.421650530562
0	17685	13650.625670061132	0.870138439909
0	17690	13651.730457000818	1.093113440555
0	17695	13667.234678189373	0.816045190953
0	17705	13674.667837659701	2.153741579889
0	17717	13694.96896367585	0.911965814233
0	17720	13695.901902566195	0.946740385682
0	17725	13698.017417475589	1.034060266614
0	17730	13710.77689101594	1.024166419078
0	17740	13716.869320767278	0.837483047415
0	17762	13750.641369777891	0.812199966051
0	17775	13761.207306527057	2.298525088195
0	17802	13781.397163553542	0.956723446678
0	17805	13782.429070125806	1.729961419003
0	17810	13784.558781842043	1.082051095925
0	17822	13800.765879147167	1.306524849488
0	17825	13801.587168395652	2.651203005854
0	17830	13804.623505916253	0.875550480932
0	17850	13837.071139250785	1.076227083802
0	17867	13850.324129009695	2.78449377101
0	17870	13851.16535253998	1.992981522064
0	17875	13852.149707163762	0.857277666871
0	17880	13856.510328743386	0.995892414823
0	17910	13887.242184957856	2.107896299817
0	17927	13897.257043947056	3.205370880276
0	17930	13898.231117252968	1.795887805516
0	17935	13899.0894558657	0.814798272587
0	17940	13901.404772503025	1.041814184282
0	17945	13920.235106800245	0.926670361683
0	17955	13938.869339092819	1.129058011528
0	17965	13951.868770850174	1.05807454465
0	17977	13954.886792228842	2.024803740052
0	18020	13964.70677763435	10.047940730479
0	18039	13978.668289878065	1.890099701262
0	18042	13979.835775086316	5.155939181572
0	18045	13980.645542005016	1.991284597372
0	18050	13985.988946726526	0.810534419026
0	18060	13989.788815720282	1.543744531733
0	18070	14012.464512580523	1.820363544938
0	18080	14018.696473384975	0.835148772504
0	18090	14026.237671300423	1.360895795817
0	18115	14038.451702836042	4.555866233905
0	18120	14040.338346521771	0.841996573564
0	18130	14042.927815880225	2.504636068344
0	18140	14045.937507712427	2.759800414293
0	18145	14050.477157529075	0.838634717651
0	18150	14051.883132554191	1.127351920959
0	18164	14078.448927332018	0.831731040124
0	18167	14079.647008004714	1.714621972701
0	18195	14117.704297850485	4.301090843373
0	18200	14142.733583660312	1.032832982577
0	18210	14160.875816097399	3.632399096095
0	18222	14166.412190507678	1.151384933386
0	18234	14168.337917667022	1.109916760266
0	18237	14169.463878045371	1.56776098843
0	18265	14183.990127951594	0.923966904357
0	18270	14190.541189041774	1.181812995207
0	18280	14218.0148371359	1.155302473065
0	18285	14219.983475098661	0.809071831126
0	18300	14229.396501943278	1.094075662848
0	18312	14249.218323492581	1.036836264282
0	18315	14250.139236114217	0.999467685656
0	18320	14251.820844791051	1.109081700165
0	18327	14253.390857262965	1.074377934914
0	18330	14254.242172991074	0.951382135757
0	18345	14260.821551383374	1.423309926151
0	18350	14264.080145938531	7.447304490155
0	18355	14267.17361787034	0.984660474397
0	18380	14283.980239416689	1.130132081173
0	18395	14295.156858760582	1.064164203778
0	18430	14308.191589044137	1.0828811354
0	18442	14314.712030590403	1.954835058943
0	18445	14315.525285792614	1.51617441202
0	18460	14333.187374182567	1.254624278181
0	18472	14342.472261749977	1.785726233708
0	18487	14346.641724099179	1.686441275151
0	18502	14349.784722015688	1.582524592912
0	18505	14350.938226018807	6.238702612743
0	18535	14396.08639883758	5.460903351214
0	18550	14414.440968407613	0.929016347136
0	18557	14415.810650484567	1.036658304837
0	18565	14418.443621361889	3.455346457855
0	18570	14420.746267540423	0.884801138658
0	18604	14435.212912405419	1.388466913685
0	18607	14436.160531507849	1.86335682987
0	18612	14437.268422959975	2.379011326825
0	18625	14440.906460515749	2.901488277674
0	18630	14445.827777551161	0.818471223954
0	18640	14449.051574973082	0.976270883903
0	18650	14453.642089438103	1.965915244978
0	18655	14463.64836663204	1.067264700867
0	18665	14470.177645683938	1.073865612783
0	18685	14483.064059070223	1.108777051827
0	18690	14488.105424817529	0.898958826996
0	18700	14494.213562828877	1.093759651203
0	18729	14519.59463633625	1.192214772478
0	18732	14520.424723671192	0.852031072636
0	18740	14524.197905131793	0.916499511246
0	18775	14559.01840787119	0.947243357077
0	18780	14560.912366696925	0.904079217464
0	18790	14571.868653645197	2.996044059857
0	18795	14573.249242699027	1.184389485791
0	18800	14575.149524886128	0.962448074762
0	18820	14593.817852710825	0.840167088155
0	18835	14609.180758069911	0.991506344825
0	18847	14615.716606297283	1.026854052208
0	18850	14616.821436222675	3.393543429792
0	18872	14643.356262018466	1.047062491564
0	18912	14684.121250991961	0.98763420945
0	18940	14701.552462127543	7.378149933634
0	18947	14705.527241301018	0.915418340452
0	18952	14706.409929959889	1.189205337058
0	18955	14707.554697562329	1.346421050038
0	18960	14708.642845814536	0.814017119911
0	18965	14710.62872648827	1.047003241722
0	18999	14731.173367741391	8.417585745931
0	19004	14732.206960677415	2.015189879956
0	19009	14733.070285224508	2.201378237296
0	19015	14734.795613120741	2.163791741596
0	19020	14735.753221721115	3.692221264264
0	19025	14737.359712005118	1.032237679791
0	19035	14748.912040481103	1.177543784957
0	19040	14754.026723788744	1.161091225315
0	19045	14755.631200702772	0.939014506433
0	19050	14766.074606900395	0.948967925459
0	19060	14769.133195400261	1.949109223325
0	19065	14782.378312875557	0.957772353664
0	19070	14786.828511761982	0.826653649751
0	19075	14790.287064518218	1.042616439518
0	19087	14804.989106874288	1.133997940738
0	19090	14805.904248782833	1.119102224078
0	19095	14807.341088780728	1.039173425268
0	19100	14810.723812784407	0.990030928236
0	19105	14814.539555960909	1.184123251308
0	19125	14819.219465721563	3.842123013865
0	19130	14823.92753281776	0.849484077282
0	19135	14828.866588388032	1.046284940373
0	19142	14836.475519407089	1.155819742102
0	19175	14845.96739455367	5.745499001133
0	19184	14849.545054764826	1.141606839281
0	19187	14850.47039665474	1.99799707961
0	19190	14851.454495634384	2.259882250029
0	19200	14856.45074597119	2.228290970713
0	19205	14867.633735477267	1.073283272982
0	19227	14883.646496579418	1.192608356569
0	19245	14893.449806039516	1.105948364362
0	19250	14901.827383915213	0.9081228544
0	19260	14921.014555836336	0.987589982431
0	19285	14933.684298213134	0.949057181738
0	19295	14945.832030785409	1.183680601045
0	19305	14948.184066392526	1.149183180828
0	19315	14960.27738311074	0.901126077585
0	19320	14963.975933589454	0.984209971037
0	19325	14966.716804033626	0.854801948275
0	19352	14983.303857415208	4.227967615931
0	19355	14984.304258330019	5.137836137331
0	19360	14994.059540843098	0.892009178922
0	19365	14996.132392608033	0.816364849545
0	19370	15002.200627416858	1.055137652997
0	19382	15006.97508439752	4.571487053912
0	19385	15007.968048077866	0.993568389663
0	19390	15009.185635251926	0.990185843315
0	19395	15010.008444998901	0.803161765356
0	19420	15035.788261175001	0.816590109561
0	19425	15039.48513725503	0.9895591015
0	19437	15049.628820526703	0.999475447461
0	19440	15050.54971125546	1.697897538071
0	19445	15054.860263693559	1.056940543652
0	19455	15058.92141633421	0.833486752771
0	19470	15066.003049886198	1.156289699581
0	19475	15071.212128846045	0.910676467419
0	19500	15104.474257434108	1.175737828482
0	19535	15127.977219778847	1.282173201136
0	19545	15141.512864101932	3.541944894794
0	19550	15143.043370507479	0.904597580805
0	19555	15144.133088179631	1.088943571039
0	19565	15166.80869067337	0.864961649477
0	19585	15178.317792210854	5.946814849618
0	19595	15181.729843586821	1.076954197511
0	19620	15215.912449221367	0.869450278208
0	19625	15226.763122152401	1.087783424743
0	19630	15231.082807414978	1.13841316672
0	19635	15234.971389002278	1.018242191616
0	19647	15248.817228477312	0.894255239411
0	19650	15250.000527748236	1.836795525011
0	19655	15265.578336572178	0.945996400435
0	19667	15271.369428505651	0.851377898548
0	19697	15277.565401235963	1.083751137338
0	19712	15289.166451969233	1.015997335408
0	19715	15290.227317707755	1.894937982173
0	19730	15301.857508309895	1.194439133815
0	19740	15308.409863949448	8.756092236353
0	19755	15319.973060838313	2.221343025626
0	19765	15324.911509207822	1.011683657207
0	19770	15329.980071397575	1.013078759238
0	19775	15338.305890911799	1.044785094541
0	19780	15340.925683625431	0.842235957272
0	19785	15342.976354170578	1.042842236068
0	19790	15344.441724134032	0.855403323565
0	19800	15366.732533102685	1.172748296615
0	19810	15369.449872714405	1.219825957141
0	19820	15377.710174184265	1.083124487195
0	19830	15395.961310280606	0.890174178407
0	19845	15405.422022237148	2.339918054953
0	19855	15408.21967170755	1.808237318471
0	19895	15465.456614109676	1.066348118335
0	19900	15466.391421149809	0.922722935677
0	19910	15499.059605061554	1.151053076144
0	19915	15502.556043848936	0.928162132762
0	19920	15508.797264232234	0.867668139376
0	19932	15531.804736972193	1.133139907755
0	19935	15532.788928247488	2.054385851192
0	19940	15542.243873917026	0.865365902893
0	19950	15549.837172319963	0.861817958672
0	19970	15565.337417147807	1.17721521873
0	19980	15589.181014624204	0.94526134925
0	19990	15598.240130868043	0.835069099721
0	19995	15599.677410383798	0.872087413445
0	20005	15614.748861015663	0.825064529479
0	20015	15625.822940498859	0.975117465016
0	20020	15636.929273687157	1.055243980326
0	20025	15642.282622394367	0.88458371684
0	20040	15666.127876907232	1.119934036769
0	20047	15669.538323485437	0.919288362842
0	20052	15670.696955807652	1.460376260764
0	20055	15671.506299887277	1.004523380584
0	20070	15674.710305386854	3.106261471752
0	20080	15683.042966184758	1.655856610609
0	20090	15696.928081151369	0.896748271585
0	20120	15717.222518181938	1.057560474984
0	20135	15757.208517254472	1.098490550648
0	20140	15760.249537418742	0.988581625186
0	20145	15763.915111092856	1.185797718447
0	20152	15778.132463021956	1.075422024913
0	20165	15785.161705252207	0.979981905967
0	20185	15807.862182681663	3.564294853511
0	20200	15849.427305721895	1.154840167519
0	20210	15852.393750531064	2.09010505253
0	20228	15856.387162648111	1.656410158096
0	20231	15857.48061102458	2.773896899074
0	20234	15858.58546812671	2.511817799717
0	20270	15874.365689742282	2.061306898626
0	20280	15879.682517180207	2.259351778228
0	20285	15881.910510958087	0.980417904072
0	20290	15892.289584058056	1.177369280718
0	20295	15894.228463813293	0.912285137642
0	20305	15901.363912523203	2.386125302136
0	20315	15910.907823599896	1.485474434965
0	20320	15922.244454739872	1.113478237297
0	20325	15925.427798564603	1.092089206818
0	20350	15957.446523415175	1.129308261443
0	20355	15961.68585161749	0.858118757699
0	20360	15972.390596073719	0.874304987863
0	20367	15990.302615532343	0.993160841893
0	20370	15991.317863836203	1.508806920303
0	20377	15998.793797531209	1.174249074142
0	20380	15999.64170891144	1.776021071423
0	20390	16007.067004774987	1.128003281262
0	20395	16008.840057217969	1.142287802417
0	20402	16010.746423466636	1.03254212793
0	20405	16011.704065393603	1.26509910249
0	20415	16015.473050461485	2.7000330767
0	20440	16041.460387709413	2.178252053178
0	20445	16046.618443021847	0.90500409035
0	20450	16053.667948946393	1.080350410845
0	20465	16076.16027194599	0.894131437689
0	20480	16088.635363592227	4.119647145262
0	20485	16092.788570247507	1.184285867773
0	20527	16109.133381334273	1.252369565801
0	20537	16111.051292500598	1.883836146605
0	20550	16122.047273632864	0.994551351015
0	20557	16137.22099419904	1.07686469052
0	20565	16139.178993246025	0.891020313045
0	20570	16143.539370983619	1.144628936052
0	20590	16181.994229688535	1.063868502527
0	20595	16194.226925571986	0.863401855063
0	20605	16210.10497121443	1.912958070539
0	20615	16218.119238807192	2.330682418289
0	20622	16222.052523632941	1.088354273047
0	20630	16224.365506273148	0.820095896348
0	20642	16244.046638195361	0.992672441341
0	20645	16244.872804704546	0.990437774704
0	20650	16248.833068027571	0.98466319181
0	20655	16252.069467387821	0.974521655124
0	20660	16256.124898701614	1.00634016376
0	20665	16261.061103224718	0.84786746623
0	20670	16268.227846027706	0.812318340503
0	20685	16274.49338152034	1.269482269707
0	20690	16276.918817965246	0.84642142579
0	20695	16283.361681000341	1.138270160835
0	20705	16289.691070544756	1.514706049239
0	20720	16302.070754276276	6.441087993728
0	20725	16306.921735002915	0.917279672436
0	20740	16330.037968162454	0.956128320843
0	20745	16337.838811840136	1.139865886047
0	20767	16349.046146358666	6.124769220004
0	20770	16350.024783283682	0.995419578257
0	20782	16363.349938515671	1.044478326757
0	20805	16374.799306828227	1.199207925983
0	20820	16383.100159716006	2.048655709872
0	20825	16387.675131237365	0.822849869728
0	20830	16389.493763969452	0.865126899537
0	20835	16406.300015792735	0.937719538342
0	20852	16418.098425471397	1.123431067541
0	20860	16434.718191648695	1.178768315166
0	20889	16441.409236808224	1.132258802094
0	20897	16443.372065740182	1.745070771102
0	20905	16445.439146150007	4.233650325223
0	20912	16450.559679412748	0.894118761923
0	20915	16451.53472998552	1.206656181403
0	20925	16455.522967714817	2.752485707368
0	20935	16466.906303816547	0.806692753918
0	20940	16485.14920727411	0.821712649893
0	20945	16487.754827070356	0.960504339915
0	20950	16492.740657361528	0.909337786678
0	20962	16526.304431410653	1.06275705779
0	20980	16533.378125080395	1.182947834861
0	21005	16554.07730791967	1.046638773941
0	21030	16566.185147943692	5.360106693618
0	21042	16571.488775967777	2.041946807312
0	21075	16579.869881904505	0.818414741755
0	21090	16589.711249873381	0.96053858269
0	21095	16592.684679001616	0.854241547734
0	21100	16602.528381019124	0.910405097064
0	21110	16607.050365814581	1.788901303573
0	21115	16610.923825495296	1.001761723589
0	21127	16624.845243120751	1.873902116578
0	21130	16625.810730724315	1.784724885357
0	21135	16630.634226280956	1.038521900401
0	21150	16641.908548264702	2.498244451779
0	21155	16654.508891355593	1.144401080813
0	21160	16656.751089536611	1.102099295799
0	21165	16659.961214251015	1.068134770822
0	21175	16663.918763353025	2.528809243556
0	21182	16665.03648976099	0.959483784251
0	21185	16666.010547660405	1.810728572911
0	21190	16667.075667269691	0.968829723075
0	21212	16682.038092197102	2.188642881759
0	21217	16683.196625608948	1.967469735586
0	21225	16685.646884841431	3.538798613008
0	21232	16686.533604856547	0.813158185221
0	21240	16700.897971317308	0.856464976724
0	21245	16709.475237823121	1.192827766389
0	21250	16716.408697596676	0.87146609826
0	21260	16729.896171385206	1.148478890024
0	21265	16731.771136622169	1.000306205917
0	21270	16752.094389781466	1.099001753982
0	21275	16754.995448937412	0.935698787216
0	21280	16768.137697677264	1.052826667763
0	21285	16772.708157789241	1.09691193467
0	21295	16782.618687269274	1.043188724667
0	21300	16784.523708323974	0.966129122209
0	21314	16793.43040580479	1.721504596682
0	21319	16794.359327549762	1.289800236933
0	21324	16795.295318217943	1.957290853877
0	21327	16796.295225207503	2.80296315818
0	21360	16818.213187852444	0.889331790712
0	21380	16824.346479612732	2.642528209069
0	21402	16831.01983326156	1.082234832802
0	21410	16833.687985698499	0.856775231659
0	21420	16849.794319668394	1.199395450763
0	21445	16873.931967239336	0.84440755127
0	21450	16878.625569970808	1.135088559613
0	21460	16889.421773633302	3.663499660366
0	21495	16934.335399144418	1.469001435772
0	21505	16940.30684091222	2.447696312115
0	21525	16947.075146704537	4.587401485243
0	21537	16951.373678071699	1.017216061801
0	21550	16975.591707276584	0.904115289822
0	21555	16977.576783473769	0.985647976771
0	21565	16990.346588604075	3.416299921424
0	21570	16993.573913326437	1.065648668073
0	21585	17004.839728380872	4.21880269209
0	21597	17038.957055660748	1.064422646444
0	21605	17042.387541751678	1.195322548226
0	21617	17049.867438965898	1.10314040361
0	21622	17050.720019076534	1.324512293635
0	21625	17051.736792493567	1.111106674942
0	21635	17069.63190388355	1.11530799428
0	21655	17079.428849969119	4.169713438721
0	21662	17085.712180718582	0.82409341773
0	21665	17086.632389330853	1.218240227207
0	21677	17102.226727389482	4.07356584746
0	21690	17105.312782278544	2.567109162329
0	21702	17111.007738076225	1.237941631687
0	21705	17111.896221543737	1.843534757357
0	21720	17161.543772417535	1.122677689884
0	21730	17166.430047194259	1.962697559844
0	21735	17170.122983752222	1.164579809364
0	21740	17179.49649794837	1.113829912432
0	21745	17186.85600978873	0.820967613533
0	21772	17202.88067325449	2.079239559939
0	21797	17212.509123904599	1.557298165223
0	21800	17213.581281178692	3.177459944132
0	21815	17224.413208684004	2.212139816556
0	21862	17266.82705558101	1.79043534459
0	21880	17273.15683349283	1.108711513504
0	21890	17289.113351154181	0.873594467063
0	21895	17291.247771916967	1.060920247249
0	21902	17295.723312748214	1.1141651663
0	21905	17296.7128554074	1.402861317882
0	21910	17303.612069132153	0.837184215523
0	21915	17305.101387432315	0.924704778008
0	21920	17309.895269170231	0.870139126573
0	21952	17327.558289256092	1.151013880409
0	21975	17354.667353724412	1.485995870356
0	22005	17373.918138475137	0.974699583743
0	22010	17382.3572305938	1.163004939724
0	22030	17392.810793149642	4.107311596533
0	22035	17394.415517030434	1.112344862428
0	22045	17399.148672486559	3.810377823039
0	22065	17407.592632142459	1.543093449492
0	22072	17409.229156329296	1.060571245383
0	22075	17410.233375518117	1.382013047613
0	22085	17413.510099315055	2.815036252435
0	22092	17416.352690898579	0.942917834222
0	22095	17417.439582630664	1.110416690862
0	22100	17422.209851572158	1.122447217908
0	22105	17424.66156247339	0.886450910196
0	22110	17427.566317963974	0.934320713487
0	22145	17467.247538538157	1.006376033276
0	22172	17475.233160332856	2.017384335323
0	22180	17478.024664428288	1.193581679557
0	22185	17480.179762189002	0.967221993674
0	22195	17489.019956695677	3.484936967594
0	22210	17517.755294347254	1.063570066635
0	22215	17519.228395606953	0.916698792949
0	22220	17520.652117414765	0.90293747196
0	22232	17536.192555101775	2.064698072351
0	22244	17538.167418649793	1.356550871686
0	22280	17554.657922589114	1.057544589415
0	22290	17565.091938395711	2.917205813838
0	22297	17566.825856122076	0.959907746315
0	22300	17567.772237234543	1.450122183478
0	22322	17589.562930308124	1.085776237492
0	22325	17590.695948558515	1.295086603171
0	22350	17620.78504115915	0.930101909675
0	22370	17636.973130690159	1.001914493926
0	22380	17641.927579732442	1.09666079944
0	22385	17643.571843237433	0.825366498716
0	22417	17680.849327860573	4.272210126264
0	22434	17683.717356829068	1.852017174223
0	22437	17684.517729470322	5.469148733203
0	22440	17685.332421370039	2.713467837418
0	22450	17696.442614366065	1.104350182042
0	22477	17713.402868825293	4.433663605467
0	22492	17718.285542160298	1.60187928688
0	22500	17721.115228697108	4.970672105796
0	22505	17738.492326314046	1.029641492013
0	22515	17755.855445307126	0.909093300626
0	22530	17766.81597449284	1.365227922134
0	22539	17768.529911352372	1.065564146638
0	22542	17769.461040978464	1.966435757083
0	22552	17777.77816465656	1.168392513786
0	22572	17785.953548727451	1.192975772172
0	22582	17787.847893212723	1.064449100977
0	22615	17799.685858178328	6.199778866259
0	22620	17815.841551754508	0.838127682079
0	22632	17819.272476765294	2.503443756266
0	22650	17836.915752655344	3.666336503164
0	22660	17845.906983690362	1.183319154568
0	22667	17847.594534055264	1.113342446927
0	22670	17848.661592844715	1.572313728717
0	22675	17849.545725743116	0.839114787802
0	22680	17856.942927147045	1.004446584918
0	22690	17863.353988688259	1.087095297314
0	22700	17874.127599162517	0.966505985241
0	22705	17875.289967614334	0.815630686563
0	22717	17895.947296174301	1.215079402712
0	22720	17896.981916828884	3.235860564653
0	22727	17904.625762764286	0.831355230603
0	22735	17912.668555899421	0.851079638209
0	22740	17914.750913235611	1.014949973952
0	22745	17919.171462116592	1.00656230161
0	22755	17922.481905868423	0.995938079525
0	22760	17924.49662355607	0.919152243808
0	22772	17937.203080721008	1.090842306241
0	22777	17938.18495942838	1.911688814443
0	22795	17943.221904940031	5.294840309182
0	22805	17954.79520258453	1.026096100733
0	22812	17958.026058499071	1.177400348056
0	22817	17958.868304427921	1.180110264048
0	22820	17959.787982067301	1.296195395109
0	22840	17971.592789701673	1.663275317606
0	22845	17972.932510179594	4.511329570266
0	22852	17974.425848486569	1.117726209946
0	22860	17976.201020733282	1.161741271382
0	22867	17982.6498100718	1.000308138039
0	22875	17990.051413988237	1.110665596649
0	22890	18006.80752976266	1.011558438651
0	22895	18011.707800342954	1.171224658564
0	22902	18021.125718646627	1.019789501466
0	22905	18022.288252068628	1.510141860156
0	22915	18030.171246758667	1.160419827793
0	22930	18041.9293710466	0.835464093741
0	22957	18050.266729311044	1.930438597068
0	22960	18051.234679994504	1.755601778113
0	22969	18053.976878264846	1.121354645398
0	22972	18054.944834760876	1.815053390349
0	22985	18058.998714416586	1.566733779094
0	22995	18072.885788501161	0.929082817677
0	23005	18084.33972235941	3.320477623271
0	23010	18098.777073860528	1.042342626303
0	23027	18113.94064060503	1.06012877496
0	23030	18115.087750848172	2.092783454489
0	23042	18127.334005512704	3.469205427992
0	23045	18128.337744766694	1.272817150001
0	23050	18154.764608816146	0.804383658152
0	23055	18156.90502160501	1.091693123151
0	23062	18159.850799730185	1.093977327179
0	23075	18164.248264954013	1.134203880001
0	23092	18201.278997556155	0.993305157218
0	23105	18207.884897481384	0.977190513164
0	23110	18211.105165706974	1.070884005725
0	23115	18213.654387971679	0.971034103073
0	23145	18225.241351581455	3.094066614843
0	23169	18242.265406931028	1.556181092544
0	23177	18244.390641491603	5.199328441993
0	23185	18255.824964550884	0.824948306475
0	23202	18262.881240044696	2.98167250594
0	23207	18263.770447031663	2.313022426661
0	23230	18282.622222013319	5.71966571227
0	23235	18284.748155612371	0.822496984527
0	23240	18287.657975825351	1.021367429849
0	23245	18295.742870865058	1.0957277257
0	23255	18299.641289929962	1.277277827017
0	23282	18325.010250495723	1.316303087016
0	23287	18325.934046104061	1.131935823102
0	23290	18326.993722403771	5.235962054187
0	23310	18336.112677125962	5.011858545124
0	23320	18342.319734938022	1.07601590259
0	23340	18349.280023115211	3.604050773836
0	23345	18350.472347852221	3.1828127145
0	23350	18358.874032764204	0.874266648386
0	23360	18371.326893191455	1.052251499612
0	23377	18375.808483119936	1.474036325781
0	23405	18382.938749837369	1.037352380674
0	23410	18385.548318217715	5.517095611772
0	23425	18395.142102738583	3.986497580695
0	23435	18399.181669102823	2.395503879285
0	23445	18404.536069127111	0.944753875211
0	23465	18419.031573772054	2.286062474595
0	23470	18420.455872449768	1.017992986459
0	23490	18434.056622747456	1.420131010947
0	23495	18435.004872461019	0.944528950099
0	23534	18475.649994300891	1.179865824711
0	23537	18476.687199193918	1.668293726179
0	23552	18479.626160801178	1.525739497537
0	23557	18480.433059561322	5.339187044728
0	23570	18483.948221903264	3.498232967843
0	23580	18496.308118404106	1.183851794153
0	23585	18498.162481424506	1.012282161601
0	23590	18500.542675893568	1.052794402186
0	23600	18507.471620880333	1.11656318903
0	23615	18512.286346791537	2.804817492859
0	23620	18518.056943719129	1.08697978491
0	23647	18526.964847977655	1.942180832164
0	23650	18527.947678481517	1.320036152847
0	23655	18536.95299920115	0.873375838157
0	23680	18552.687781191645	0.901962608751
0	23710	18565.113383382552	4.70292403914
0	23720	18569.106119585685	0.881362854037
0	23732	18574.022149873277	10.909626529524
0	23740	18586.837494499138	1.180376752838
0	23745	18590.077294083607	1.192221448664
0	23755	18595.861819134156	0.96570569668
0	23760	18609.031489728335	1.048982441239
0	23772	18612.855102770369	0.855345652811
0	23775	18614.014008231893	3.909718455189
0	23782	18616.594898224743	1.158126388397
0	23805	18635.120781996672	0.970838386938
0	23810	18636.859433182132	1.032615715545
0	23815	18638.504727694479	0.885139677115
0	23820	18643.668253455945	1.08589805821
0	23875	18700.680768189187	0.970474832319
0	23880	18711.142821117227	0.848670565989
0	23885	18720.335744578014	0.970327264164
0	23905	18736.153822970337	5.470160642847
0	23927	18763.670056347204	1.10169394156
0	23947	18781.700811422303	1.003738246206
0	23965	18785.950729990158	3.686109152866
0	23975	18789.497105436056	1.080861476064
0	23982	18794.582796792037	0.836966469605
0	23990	18797.2422042638	2.897193279484
0	24002	18804.552404466262	1.18468220029
0	24010	18806.289554563434	0.951175496526
0	24015	18808.057785381989	4.34084753528
0	24025	18831.455322924103	1.165643058438
0	24035	18850.164022814076	1.168619511183
0	24045	18863.978240951822	0.944606183749
0	24050	18865.158085494045	0.828866748326
0	24070	18875.533915457822	3.533710031704
0	24102	18889.282558075092	2.450597216055
0	24112	18892.535656225049	1.08611899307
0	24117	18893.380935401396	1.390790907498
0	24120	18894.383075895832	5.483136103784
0	24130	18899.851630629188	1.142901211698
0	24152	18909.425508613074	1.42024039461
0	24155	18910.476412451388	1.105953450605
0	24160	18927.434559157471	1.062504710164
0	24170	18932.918587698318	1.066654256079
0	24175	18934.398242130449	3.53591825058
0	24190	18941.698076347294	1.159893350769
0	24195	18943.713129421134	1.143993351702
0	24200	18954.732308593548	1.177691498678
0	24215	18973.909008594706	2.150371985453
0	24240	18993.389072915466	3.352807309392
0	24250	18998.722306037658	0.806969237234
0	24272	19018.201377841951	0.874928848632
0	24275	19019.10707406898	1.166097515514
0	24282	19028.523870948792	0.890621834528
0	24285	19029.400408511233	1.141237154991
0	24307	19055.787181462432	0.990031356551
0	24315	19057.797622288755	1.532438872566
0	24320	19059.93092108592	1.148212358914
0	24337	19082.186488102552	1.143055538647
0	24354	19089.878085002387	3.438732852159
0	24370	19094.843354799624	2.720469860609
0	24382	19100.628185680922	1.075320700463
0	24385	19101.485733256344	0.889729140535
0	24400	19124.323428116773	0.902983223647
0	24415	19135.920858223568	4.985124247144
0	24430	19153.246604777639	1.131875411049
0	24440	19165.306061112491	2.639887336397
0	24445	19175.981933581298	0.978767683916
0	24465	19209.916237986286	1.031696019787
0	24495	19234.19310329251	0.819553894736
0	24530	19251.082257604872	0.841348774824
0	24540	19268.035571205953	1.026630502474
0	24545	19274.476983360158	1.10523739988
0	24555	19278.037567327788	1.097960404493
0	24575	19292.005687581752	1.132279121596
0	24580	19294.762211827612	1.053998568188
0	24585	19297.110878995925	1.093717787508
0	24592	19298.569579005197	1.14754062742
0	24595	19299.752898498673	2.224860748891
0	24605	19306.632010835148	0.84268848449
0	24610	19320.281100900103	0.889199350122
0	24635	19352.184068262892	7.269193813843
0	24640	19355.444591090221	1.113834749255
0	24650	19359.052710809956	2.045966022672
0	24665	19384.291462184048	0.946560346894
0	24670	19389.071848507449	0.840599855874
0	24675	19391.573122431049	1.12166752303
0	24680	19393.22584805466	1.007841870096
0	24692	19418.488331264003	1.15885085389
0	24702	19422.752580076582	0.929727116227
0	24705	19423.619233603529	1.350150067543
0	24710	19426.251723879502	1.136929177027
0	24720	19429.449084248731	1.982132452726
0	24735	19439.058972949842	1.323009220872
0	24745	19443.128317043352	2.103347548311
0	24750	19449.33445503907	1.03831168469
0	24769	19453.151837493663	1.781872863001
0	24775	19454.832685354535	1.980092189763
0	24780	19457.659187629129	7.923818851885
0	24785	19460.822873677382	0.837880894635
0	24825	19485.639763073209	2.931481142729
0	24830	19493.292797722111	1.158407459594
0	24840	19502.936225239468	1.083776569366
0	24845	19505.70833613914	1.067646208126
0	24857	19523.941593620142	1.070423599239
0	24860	19525.062817631995	1.135748539708
0	24870	19529.242065665056	0.983455659507
0	24875	19534.40660146262	1.119527513627
0	24895	19539.788296572009	2.585770071784
0	24907	19542.972764663719	7.351468994247
0	24912	19543.83925843094	2.287726311933
0	24922	19547.62890572223	1.173165262025
0	24930	19549.966656124042	8.864887056468
0	24950	19558.951670361023	2.495356474983
0	24980	19603.814408037998	0.954567036964
0	24995	19616.24084819786	0.860539526399
0	25000	19621.326643673304	0.953352868557
0	25005	19624.084740225358	0.995397089608
0	25020	19633.011030984906	1.016599188186
0	25032	19638.250656907087	0.987307489756
0	25057	19652.747923356317	3.086292271595
0	25065	19659.33175868801	0.860083538853
0	25079	19662.306753743952	1.55107577515
0	25082	19663.253235297138	2.287128507467
0	25095	19676.071517366725	1.032249042671
0	25100	19686.170091899701	1.162993163895
0	25105	19700.848013213588	1.006101057492
0	25110	19707.780723997824	1.044314945396
0	25120	19710.882501397711	0.83608697895
0	25130	19719.530970979965	1.049415032379
0	25137	19720.472606263626	0.922713524941
0	25145	19722.299969729259	1.123000357168
0	25160	19764.839299751956	1.115891429689
0	25200	19805.830618039156	10.687137426317
0	25205	19808.952361230567	0.869421939645
0	25212	19811.183983975295	0.959314160421
0	25215	19812.340543969926	1.775404119439
0	25225	19825.549183397415	2.56209364087
0	25230	19828.533657722112	0.969029454701
0	25235	19845.046670980115	1.081354802661
0	25240	19848.124641263508	0.875744121335
0	25277	19882.590186140546	5.258533878343
0	25292	19885.847117844124	1.386306079406
0	25297	19886.773044744593	4.753953413965
0	25305	19888.929365567829	0.943383611087
0	25315	19891.166878348981	1.264177737488
0	25342	19901.439165299698	1.336027333849
0	25359	19904.693153347072	2.045029693056
0	25362	19905.618333946817	2.488155776413
0	25365	19906.642515710272	7.415724079647
0	25380	19926.874336070021	3.509877389937
0	25385	19944.116541738945	0.822287237924
0	25405	19984.163501989969	1.09531239178
0	25410	19985.903096267023	0.888251413964
0	25415	19988.172362363132	0.884650506638
0	25422	19990.115545539289	1.177520289179
0	25435	19994.741201272383	2.022561026351
0	25455	20016.391001388344	0.848855906446
0	25465	20028.824766900513	3.862987946156
0	25475	20048.931921799657	1.090347914677
0	25480	20051.401403775043	1.184146154299
0	25500	20072.023845008148	1.095497597754
0	25507	20074.904394916592	1.179691339564
0	25515	20087.11097257706	1.052223304566
0	25520	20088.274852851727	0.906341721956
0	25537	20095.363771537894	1.019551992789
0	25540	20096.372392851689	6.015479857182
0	25547	20106.094504611842	0.81449171314
0	25550	20107.173863758608	1.367465842836
0	25560	20118.591071394644	1.098495065421
0	25565	20123.38497112543	1.118071831856
0	25572	20126.844588321588	1.105433672294
0	25575	20127.778565910134	1.751890325208
0	25580	20137.271463737329	1.011099781748
0	25595	20155.205562664667	1.13029372571
0	25615	20171.741832950779	2.607255259265
0	25620	20180.592962820603	0.866125590447
0	25630	20188.735027509697	4.65609964121
0	25635	20200.506305328146	0.892007566523
0	25640	20207.108481555793	1.01619266551
0	25650	20233.055783128931	1.097178126499
0	25667	20240.151813186989	2.439588240531
0	25677	20242.062655788757	0.821196419396
0	25699	20249.861154338465	3.823629860647
0	25702	20251.020399676197	1.949026822572
0	25715	20259.734990532614	1.13045442603
0	25720	20261.404361992779	1.150995825697
0	25740	20287.986037342753	1.1241543754
0	25752	20292.434352668355	1.847077972018
0	25775	20324.815933408269	0.865904143825
0	25787	20332.608175961885	0.810568584874
0	25795	20337.51826552783	1.120598344784
0	25817	20359.320151346307	3.139688125625
0	25830	20362.459898653847	5.612318429697
0	25835	20372.918287432837	1.016661943309
0	25842	20376.500717338314	1.154818427004
0	25845	20377.365096039185	1.927133691044
0	25850	20379.086239486663	1.188083940279
0	25870	20390.557149448744	1.062827977301
0	25875	20392.287272751339	3.580662342322
0	25887	20396.272631268755	1.11095355209
0	25890	20397.44437233777	1.406450503755
0	25910	20412.789804732946	1.170617081039
0	25920	20416.058942903079	2.16543027967
0	25949	20439.358034868632	3.064828966279
0	25965	20452.96925654102	3.47666702663
0	25987	20464.833466198232	1.643415746716
0	25992	20465.846796595894	6.577512216471
0	26005	20471.838326144172	2.481396425915
0	26010	20473.344355415748	1.106151427608
0	26027	20503.145486564909	1.177627509646
0	26037	20504.875340234184	1.265002240892
0	26045	20508.049030461309	0.965746280272
0	26075	20550.682013187114	1.155064498167
0	26080	20557.559006139048	0.957163351681
0	26085	20561.835071535187	1.016141353454
0	26100	20566.948144914796	1.010165291093
0	26110	20571.086213599499	3.595791049745
0	26115	20580.214756630798	1.129100549128
0	26120	20585.200068121668	1.082654014044
0	26132	20589.398644673821	1.0564024969
0	26172	20608.301314966972	4.304981720957
0	26189	20613.232805938564	1.174112122413
0	26192	20614.235574798297	7.194745186604
0	26199	20615.125835938483	2.10981377398
0	26202	20616.277046641159	1.687271075334
0	26207	20617.079319504659	2.212902141259
0	26212	20618.111752598091	1.511396747442
0	26215	20619.140616200223	1.181517641528
0	26240	20647.345109318832	3.391158670132
0	26255	20670.12112203137	4.087498991728
0	26270	20679.184551882506	0.948294486571
0	26275	20689.758239092605	1.105237140879
0	26285	20701.002311287024	0.994096226431
0	26290	20702.991976711866	1.019789268542
0	26295	20707.390454947948	0.943109640479
0	26305	20728.379468625585	1.021015524212
0	26320	20747.607445018018	1.066553922649
0	26337	20754.268883073201	1.544986112686
0	26342	20755.408040597068	3.205943480972
0	26345	20756.287229546962	1.398573357889
0	26357	20760.327321381081	1.397253824395
0	26370	20771.514934371442	1.453987550045
0	26375	20778.586095420809	1.1731142045
0	26380	20791.041339529335	1.033545798622
0	26385	20797.770814663116	1.069343743939
0	26394	20801.527225365311	0.871348310169
0	26397	20802.43046957339	1.770159256609
0	26417	20808.331723136331	2.015502968014
0	26420	20809.525628958705	1.931750761612
0	26425	20814.311458622342	1.137349651195
0	26430	20819.933225097984	0.96637015231
0	26435	20830.903444617687	0.952089400496
0	26440	20833.927611078714	0.859434577078
0	26450	20844.085745260443	0.877479048446
0	26455	20848.52604801868	0.986580874026
0	26465	20854.711179608723	0.820550491568
0	26470	20860.282907781469	0.833871170878
0	26477	20875.868851344751	1.000478397775
0	26480	20877.026839634774	1.480354477406
0	26495	20914.916312609895	0.910369861498
0	26515	20925.319966294987	3.435221175878
0	26522	20928.737613523206	0.898500990868
0	26527	20929.798772938563	1.623801392686
0	26555	20943.633847901848	2.398922900553
0	26560	20951.528768646064	1.199773193989
0	26565	20954.730900205871	0.930462332349
0	26577	20964.182144573212	0.889948317595
0	26580	20965.217967972413	1.474148906079
0	26595	20983.071974383397	0.858106197417
0	26602	20995.206201922608	1.033112164121
0	26605	20996.378889070073	1.581346047236
0	26615	21016.587070391699	2.715617998322
0	26625	21019.843730616183	3.247100970536
0	26630	21023.078931811829	0.982878586557
0	26635	21040.459746089508	1.16106879022
0	26640	21045.102937283234	1.095878843591
0	26660	21059.719546991925	1.115829191357
0	26665	21073.379308813921	0.961134721898
0	26677	21078.641635393384	1.246996466481
0	26690	21082.194672193788	2.508324519251
0	26695	21093.264997592405	0.958019415662
0	26700	21100.621736791301	1.080548339058
0	26705	21107.394051456049	1.110509440675
0	26720	21114.913801981077	3.002569360664
0	26744	21128.898154995835	1.169457366783
0	26747	21129.802451381425	1.336133182438
0	26762	21132.869549231476	4.070145502251
0	26775	21149.687453465857	0.990447789896
0	26780	21151.530458324725	0.896532829013
0	26795	21165.374774012261	1.088000471704
0	26805	21185.877139642904	1.008878429234
0	26815	21196.833559464867	1.274310131823
0	26820	21200.863759017361	0.970279566478
0	26830	21205.46300205582	0.934440084454
0	26840	21217.714138720305	0.895649240379
0	26845	21218.970654152309	3.061614395346
0	26850	21220.83862420268	0.864778741263
0	26855	21224.004375083755	0.804714577645
0	26865	21228.663223994567	1.223228069341
0	26884	21239.891072631779	1.878951016166
0	26915	21258.514449207241	1.885182609127
0	26920	21261.286353040208	0.97488423204
0	26930	21269.859572322104	2.246718612733
0	26957	21276.1390838468	1.198249352071
0	26970	21294.057064842953	1.147013105452
0	27006	21303.533641527839	2.26483112616
0	27009	21304.516538218375	5.732031963617
0	27012	21305.473565598823	2.404646024095
0	27020	21308.02211075774	10.795102550446
0	27025	21313.946413756397	0.918940644618
0	27030	21326.330943922713	0.846427307464
0	27035	21331.482383475089	0.860517098475
0	27060	21357.352396076786	8.298294523735
0	27072	21363.650798451714	1.139030465297
0	27075	21364.471986943111	1.362738489575
0	27080	21366.330276262824	0.814170250017
0	27090	21370.922978058027	1.184476342797
0	27097	21372.753607887644	4.941266585881
0	27100	21373.658653119821	1.282663114643
0	27125	21401.015879408354	1.089162311889
0	27145	21418.843143096685	1.003243015148
0	27150	21441.395406094054	1.158951873519
0	27160	21447.285199814721	1.062701116223
0	27189	21465.637339020495	1.894540108023
0	27194	21466.780728260216	4.801510400418
0	27197	21467.900274461669	2.089010432119
0	27205	21471.009931210745	1.119157893118
0	27210	21479.38163956528	0.857029734738
0	27215	21484.928303365266	0.929815202858
0	27220	21487.680420846988	1.098371243197
0	27225	21490.329856474676	0.934132892825
0	27230	21492.055523006812	0.805288869608
0	27240	21500.005999235251	1.128685392905
0	27250	21509.771438308946	0.918273440097
0	27255	21516.960202588539	0.942200048734
0	27267	21524.505503514533	1.141235271841
0	27307	21570.378483206627	0.972465004586
0	27312	21571.368372168054	1.062070018291
0	27320	21582.344225439617	1.148233462591
0	27327	21586.589550828272	1.150292414427
0	27330	21587.62712311008	1.905867280692
0	27342	21590.405790787974	1.378825107539
0	27345	21591.534243222085	3.0808476964
0	27372	21615.194320017013	0.84813492028
0	27390	21625.427893784576	0.828646946792
0	27405	21630.796188290783	2.448871915305
0	27417	21634.254625875488	1.641795848688
0	27445	21647.990628965906	1.057568317931
0	27452	21651.122429415453	1.184751594905
0	27460	21653.751648252215	0.811079097912
0	27472	21657.487933698326	1.092893047258
0	27475	21658.673653126817	3.15903325137
0	27490	21664.955408451228	1.561893739576
0	27495	21672.228175099151	1.085073363688
0	27515	21682.13736685971	0.965515831765
0	27552	21706.720223799793	2.664689511977
0	27564	21708.723452212082	1.531754391376
0	27567	21709.849183414483	2.176914005733
0	27572	21710.649258039405	4.508328921218
0	27595	21723.438420399503	1.100828050449
0	27615	21733.042483924321	1.296332773546
0	27627	21736.750826362426	3.073392981923
0	27630	21737.627025646901	1.537004025403
0	27647	21770.908711895506	1.238034700842
0	27650	21772.010598369661	4.34886432939
0	27655	21785.745958998632	0.809175722767
0	27662	21799.042108631119	1.182865087315
0	27682	21803.133027982938	1.794400973578
0	27685	21804.044194736651	1.90438362296
0	27690	21809.42825183237	0.848471086007
0	27700	21818.907463649495	1.649030783215
0	27720	21836.961939976402	0.857922797464
0	27725	21839.449029485655	1.10173111707
0	27730	21842.213578279445	1.171921164822
0	27745	21856.870079992564	3.290136710965
0	27750	21876.411377610374	1.167584067769
0	27755	21889.081201374504	0.865938561782
0	27760	21893.052497675443	1.18189483257
0	27765	21894.892056570217	0.84516609041
0	27770	21905.158546674615	1.076735776663
0	27775	21912.656116973451	1.159606589843
0	27780	21913.69165218745	0.893141313083
0	27790	21919.408734052057	2.022731132048
0	27805	21937.670449321569	0.986989569105
0	27815	21957.002708149899	1.076388643496
0	27832	21968.659083899499	1.574297222663
0	27842	21975.679619794184	1.047654020786
0	27850	21979.550805996145	1.0278080713
0	27857	21984.855966731623	1.066791269369
0	27860	21986.020611666605	1.198156328224
0	27870	22010.530775341983	0.969114868343
0	27880	22024.826010995063	1.158907938283
0	27890	22043.291590369609	1.064748771302
0	27895	22045.62705162763	1.088453730475
0	27910	22050.632134467434	3.419170907848
0	27954	22094.574198493769	1.022910912987
0	27967	22097.707570873888	5.900247655891
0	27975	22101.170123853293	0.826217320841
0	27990	22109.369119328877	0.960640637111
0	28000	22117.127306245704	2.402533999738
0	28005	22123.87084756173	0.934695724584
0	28025	22164.198417953971	1.192657654453
0	28030	22168.217528739383	1.087953309622
0	28040	22176.961417382748	1.856428239956
0	28050	22180.357717704	2.264478433648
0	28082	22195.003979249555	0.969699752703
0	28137	22212.654464122077	2.884189446804
0	28160	22217.385097083338	1.421121131034
0	28169	22219.765684566538	0.907760808803
0	28174	22220.683322760261	7.429396167565
0	28177	22221.809367363884	2.718583694088
0	28190	22228.519653614372	2.51181776451
0	28200	22240.9553643755	1.113548178319
0	28210	22243.480845352593	2.300245649614
0	28215	22253.712895257716	0.83004505951
0	28230	22265.79738954786	0.906028132048
0	28235	22269.23409880943	1.148417594377
0	28240	22283.979586718586	1.094072206598
0	28245	22286.838597062295	0.84422379965
0	28260	22302.592719114362	1.168846595194
0	28285	22324.402150126914	10.506123054542
0	28290	22326.824064811852	1.131684758142
0	28300	22333.731052599504	3.305224596066
0	28305	22337.059023095723	1.172107299138
0	28310	22340.90583609851	0.932552090473
0	28315	22342.072710043903	0.903469816037
0	28325	22366.528581313312	0.970472324453
0	28337	22384.963310651678	1.219808769154
0	28340	22385.774737604718	2.870776904281
0	28360	22395.066452374699	0.930373839103
0	28370	22400.316124394173	2.474284931509
0	28377	22417.365937558049	1.078031690698
0	28395	22445.419005910929	0.836281007621
0	28400	22446.59751463149	0.803848648351
0	28410	22458.591251644822	2.153499792387
0	28415	22460.018350232773	1.069620533381
0	28420	22474.307073753403	1.0952173586
0	28425	22479.580971030613	1.108453465998
0	28430	22484.264203665605	0.918034426495
0	28457	22509.491349101515	2.545842389755
0	28462	22510.663267266454	1.275506869956
0	28465	22511.81042212153	2.17534706324
0	28470	22532.044954083922	0.893283416517
0	28477	22544.022393759828	1.031725538336
0	28480	22544.902478815451	1.174365609627
0	28494	22547.644770060846	0.9820347175
0	28497	22548.745026705035	3.590332764187
0	28507	22552.534861391112	1.159609864652
0	28517	22561.263633225702	0.851487992331
0	28525	22564.448675124797	1.097553045675
0	28532	22575.799296475522	0.992314232048
0	28540	22578.230508893221	2.981302556145
0	28545	22591.788568499616	0.992422581464
0	28555	22596.163180980035	0.963566528074
0	28560	22600.123839792069	1.0860558277
0	28570	22604.157259113012	2.544559252854
0	28575	22608.483654313649	1.02344089672
0	28582	22609.840712349553	1.089005323593
0	28590	22615.850756252362	1.164978137426
0	28602	22630.972740755911	1.835218243951
0	28615	22636.887719070744	0.97727547735
0	28625	22640.839465123898	1.857401639072
0	28630	22652.771316838024	0.968224956281
0	28640	22654.972273614046	1.91034625955
0	28645	22660.607952356911	0.967570968997
0	28665	22671.908411257611	0.923509074003
0	28675	22674.883393812855	1.246165469464
0	28685	22682.598701051241	1.631424880785
0	28692	22684.240712030265	1.058477464877
0	28705	22699.385611027505	1.159178206325
0	28710	22701.381508877132	4.515542914098
0	28715	22707.434110196194	1.14151630206
0	28720	22709.887078791331	0.921867525019
0	28730	22717.125410749919	0.84697179012
0	28735	22719.147603123353	3.875112780622
0	28750	22728.64616481132	1.174716337584
0	28760	22736.412077253224	1.578764187597
0	28765	22738.120244597212	0.979525832459
0	28785	22757.233261959761	1.183550972212
0	28790	22761.663178258921	0.814374144468
0	28795	22778.758576685776	1.14080539085
0	28810	22796.649956372915	0.903388865665
0	28822	22807.75599013544	0.974008412287
0	28830	22813.245411290418	1.005714453571
0	28835	22816.186116962206	1.104443472531
0	28855	22827.930032907166	5.215582616518
0	28865	22837.271687158368	1.084424006008
0	28879	22849.160643560418	1.140728581138
0	28882	22850.353793943745	1.389918236678
0	28890	22856.779408656377	1.199516917486
0	28895	22858.235678220552	1.032493822463
0	28905	22863.317934067702	2.556645048109
0	28915	22874.127496608306	0.993622146733
0	28930	22882.984858443734	1.192621073779
0	28935	22884.157137844828	0.983080505021
0	28950	22890.608826684663	5.444971643496
0	28955	22903.411905088289	0.909317161981
0	28960	22905.33146589162	1.146080131177
0	28965	22909.937055606506	1.001091070473
0	28990	22920.808146946399	1.454077846384
0	29015	22935.331270701124	0.873968111165
0	29020	22944.507586098364	1.046783088706
0	29025	22946.260411012133	1.103280592244
0	29050	22960.24868562138	0.921051821392
0	29055	22963.135281912503	1.110794882476
0	29060	22975.138128459361	0.975822755136
0	29065	22985.797997608431	0.845513747912
0	29072	23000.654497194471	0.921079969406
0	29080	23003.556249505694	2.978932922325
0	29110	23024.593958803036	4.959712279064
0	29131	23028.475149603848	1.314322880174
0	29134	23029.49617087134	3.826551256
0	29137	23030.683410499811	2.587148938406
0	29160	23049.220682116191	1.138613607734
0	29170	23058.222763396253	2.074170227556
0	29220	23113.352667176848	0.825137956534
0	29230	23130.288337595019	1.121709742211
0	29237	23144.01297919597	0.871301043965
0	29242	23145.167929748217	1.57061683061
0	29247	23146.159571241359	1.331875295737
0	29287	23169.708935910123	1.667676329992
0	29290	23170.613144559259	1.60669739943
0	29300	23181.387967160693	2.741259956595
0	29325	23205.348504527383	1.076673104521
0	29330	23207.690178092526	1.117894934025
0	29335	23208.936790513506	0.962495938968
0	29340	23215.298987057991	1.041880960111
0	29355	23232.803892669922	1.04926930815
0	29375	23247.084913280747	8.352895135644
0	29380	23249.783014636022	0.88398860395
0	29385	23253.646086771947	1.131330217142
0	29409	23278.098575724324	1.809610223916
0	29412	23279.134788210166	1.336197025209
0	29420	23283.759954668472	1.118705999758
0	29437	23291.915398754455	0.843440349493
0	29440	23292.95994226066	1.680934293627
0	29445	23298.882699815347	1.147910882812
0	29457	23303.176974479322	2.062819164473
0	29462	23304.17433911872	2.558516267394
0	29470	23310.178787396672	0.802920702472
0	29485	23314.483660921229	2.558814923137
0	29490	23318.892818328409	1.078185527772
0	29520	23344.27324270454	2.250313811533
0	29545	23363.103562647532	1.415825776286
0	29555	23371.013267563147	0.898471229151
0	29560	23376.94067077061	0.976687397249
0	29565	23379.474076722764	1.006445527542
0	29570	23384.535043659635	0.844267240167
0	29577	23398.045874559505	1.077582298312
0	29585	23401.523933276023	0.947765927203
0	29597	23408.590726525343	1.137245473731
0	29605	23410.429566257453	1.54436977696
0	29610	23417.133632710934	0.928918050695
0	29620	23426.593296569376	1.497738708078
0	29625	23432.620126031171	0.831202252395
0	29635	23453.500350215194	0.917425986752
0	29640	23456.130734422139	0.848886168748
0	29650	23462.592847834317	4.145893556422
0	29655	23466.173344414763	1.121758854948
0	29672	23473.561446118855	1.609660008917
0	29680	23482.449871356077	1.177827921696
0	29700	23493.199980081601	0.874705909844
0	29705	23494.692157576674	1.128183458466
0	29712	23499.445006349037	1.174090423342
0	29735	23514.513994160117	4.70526510025
0	29740	23517.039182288014	0.979952838272
0	29750	23522.449687343328	1.186283004563
0	29759	23523.603716527904	0.981396234408
0	29762	23524.425126336469	1.550070643082
0	29777	23535.911829733453	0.996869121958
0	29785	23538.111391104851	2.944783927489
0	29792	23546.461936313182	1.068183122855
0	29807	23557.143392560488	2.725483665713
0	29810	23558.330862934092	2.269904765908
0	29815	23566.064749623945	0.816017103288
0	29820	23588.135334634258	0.851504061744
0	29825	23592.046577353937	0.832760035433
0	29830	23598.369159101254	1.165513231885
0	29835	23601.498601236419	0.950934660342
0	29840	23610.141918022803	1.012788347434
0	29845	23621.098178845692	0.814406424668
0	29857	23627.390284966989	1.943195364078
0	29860	23628.473915449655	3.144382555503
0	29885	23644.660250807694	2.268667819146
0	29890	23652.532018625133	0.913252352923
0	29895	23659.535311543081	1.050777799916
0	29902	23669.393589726367	0.958342821617
0	29907	23670.439026638118	1.087808273341
0	29912	23671.344201028624	1.017536397347
0	29932	23675.436662844012	4.521366806792
0	29957	23686.566075153327	1.101663956884
0	29960	23687.585216630208	4.864002111515
0	29975	23691.990447096907	3.445719101603
0	29985	23700.506018385098	1.067517535854
0	29995	23707.572735377726	2.650673761171
0	30007	23714.117848234556	2.068274070281
0	30015	23716.412261942156	2.525549956932
0	30030	23719.653544693976	3.227924017235
0	30047	23726.778319790532	1.760213772081
0	30060	23729.751664411781	0.948635873171
0	30084	23736.08365025255	2.006979792715
0	30087	23737.016565274867	9.90925210623
0	30100	23740.540171761915	0.94506087387
0	30110	23748.373898743326	4.464725387948
0	30120	23753.282963953854	0.992855998036
0	30125	23756.200470653096	0.80555839045
0	30135	23764.358927825486	1.148529349733
0	30142	23767.798700349108	1.125927911047
0	30150	23770.855866955381	1.057555876113
0	30155	23772.414479141355	1.17513726186
0	30165	23781.671787707147	0.842145704851
0	30172	23787.307254529339	1.075615032203
0	30175	23788.42186155735	1.224789617875
0	30202	23823.532317802599	1.523958446928
0	30222	23827.916770493063	3.441682230543
0	30225	23828.775526607699	3.444505381425
0	30230	23844.940980183015	0.923100696597
0	30235	23847.360016711496	1.021608583257
0	30240	23854.437889255084	0.804435891286
0	30247	23856.480581160929	0.958643315826
0	30260	23860.810753123641	2.138428253087
0	30275	23872.468322466501	0.922733560484
0	30290	23879.199633391691	0.919991252199
0	30295	23884.068559426918	1.164523631707
0	30330	23916.807600082245	0.961952879163
0	30355	23935.583163015371	4.895996694839
0	30360	23936.752522487332	5.75629787052
0	30380	23946.957572527576	0.971995380229
0	30390	23967.168439408184	0.921166843176
0	30397	23970.67472482831	1.157133443095
0	30400	23971.606113369621	1.585574071029
0	30405	23983.065652732395	1.163458394259
0	30415	23992.421308362456	0.836813795939
0	30420	23995.476308834721	1.124799057841
0	30460	24010.048219126428	0.961572043225
0	30485	24049.620821659474	1.118325356487
0	30512	24078.362554542838	2.88114410198
0	30520	24092.553623776915	0.853345246706
0	30527	24095.856956749238	1.129835138284
0	30540	24099.125549237167	4.33858026788
0	30545	24104.804218403503	0.931830662303
0	30555	24109.527219772964	0.957596799359
0	30560	24110.774192245953	1.05014214227
0	30565	24120.031616414057	0.909115837794
0	30585	24127.933192828091	4.75116904715
0	30590	24130.192819959267	1.020173726697
0	30595	24138.824511500507	0.952523929812
0	30600	24140.246267600856	1.053939840663
0	30607	24144.406168588321	0.901175893284
0	30625	24155.083581712544	0.929262058903
0	30635	24166.499863611343	0.844682138972
0	30655	24175.145118307439	3.228830369845
0	30665	24189.858212821706	1.0434115774
0	30670	24192.975550872034	1.17225421695
0	30675	24195.027567827661	1.116511037108
0	30685	24198.332433602628	2.001143570509
0	30695	24219.657395555988	2.238974821921
0	30727	24232.296568418426	8.158966727106
0	30732	24233.248534321824	9.457969135512
0	30740	24239.662698815934	0.944965816569
0	30745	24255.097526452566	0.843605492916
0	30750	24262.375183311213	0.894259010628
0	30755	24269.544967761596	1.006405549869
0	30760	24271.440515882211	1.162145434879
0	30765	24280.875395519495	0.826797252893
0	30770	24298.495923619968	0.842663449515
0	30775	24307.219416058916	0.939172624145
0	30780	24315.757468709798	0.955033071339
0	30795	24322.215369581221	3.552033755519
0	30827	24339.775191274837	7.963497897611
0	30830	24340.867277595021	1.108200315711
0	30840	24343.61639040652	1.462717532129
0	30852	24351.828948763566	0.955512440205
0	30865	24355.670678569092	4.525113203479
0	30885	24385.6882801868	1.449219129332
0	30895	24390.744679187387	1.878824594325
0	30905	24410.355135050072	0.971079714689
0	30910	24412.515903763019	1.064676161576
0	30915	24416.822837232349	0.921157313604
0	30964	24438.406094244829	5.044238411713
0	30967	24439.526867801937	2.158908885682
0	30970	24440.365940470117	5.686418892479
0	30975	24442.928233730745	1.115933563188
0	30980	24445.255023659303	0.942419651989
0	30997	24451.694518213268	6.332533277527
0	31010	24454.365445626448	2.796972088834
0	31040	24467.797061510726	1.032859287504
0	31045	24471.083391126655	0.874443288986
0	31050	24484.000829630128	0.865419793595
0	31055	24493.847986340532	0.880189579073
0	31062	24495.737929583929	1.193099836633
0	31069	24496.569938933413	1.773452536144
0	31072	24497.402455962386	1.385590858491
0	31080	24501.440903848012	1.115419376362
0	31087	24503.64078996577	7.374867897298
0	31090	24504.651395684524	2.107751114169
0	31105	24520.672860585281	1.125150638238
0	31110	24524.525079250984	0.931146401446
0	31122	24527.101674914563	0.962159200944
0	31137	24530.4477930489	1.569721449074
0	31160	24536.672191356418	1.266087888609
0	31165	24538.909748180105	1.133478757832
0	31172	24541.67163368147	1.095269683748
0	31180	24547.883349027093	0.852970646042
0	31185	24551.546911863308	1.187635068502
0	31192	24553.398388713508	1.090340825357
0	31200	24556.387251994798	3.432338612042
0	31210	24574.947361147721	2.189446548636
0	31215	24580.932695474067	0.807622340415
0	31222	24584.803415993176	1.153989317734
0	31225	24585.813864014431	1.976363839112
0	31237	24602.322421041938	2.00557076658
0	31245	24604.60594139941	2.628936029434
0	31255	24608.939037187486	2.42741071193
0	31265	24614.308292403177	0.911805275735
0	31285	24632.179661384638	1.192365151457
0	31290	24633.466512541513	1.131815074105
0	31302	24644.550476185086	2.022360847006
0	31305	24645.622442644968	1.775533914341
0	31330	24651.98185498866	6.255717786032
0	31362	24669.630549111247	4.744756702667
0	31367	24670.721925846331	2.851652198365
0	31370	24671.858897726733	1.442200782314
0	31400	24699.784354820984	1.739228475884
0	31405	24701.434315303165	1.042400788981
0	31420	24707.582572917545	2.649712701803
0	31425	24710.03563005241	4.278462118996
0	31430	24712.743673809333	1.090156202111
0	31435	24717.258196043634	0.921722643357
0	31447	24720.644706297321	0.970817124937
0	31450	24721.686669898992	1.298509932142
0	31462	24730.136354193893	0.993567427434
0	31470	24733.925101811249	4.104461626707
0	31500	24750.1433029695	7.290149786235
0	31525	24757.255027482953	6.201297404578
0	31530	24768.82284779903	0.960977664683
0	31537	24791.972672743944	0.803368017357
0	31540	24792.863543608447	1.252487249898
0	31545	24811.692494800266	1.025811860804
0	31562	24827.698211952811	2.848366115149
0	31580	24837.188563671865	2.465078211522
0	31607	24849.595762810044	0.968717503734
0	31610	24850.78414833213	1.784908532147
0	31615	24854.207302239407	0.832577972207
0	31625	24876.248228113214	0.85951927714
0	31630	24879.300096660068	1.19297918044
0	31640	24886.052659308407	0.839094288833
0	31650	24889.083785121982	2.008485383485
0	31655	24891.34742203252	1.029888977855
0	31665	24909.824114144853	0.818015814386
0	31670	24911.874223266485	0.92134150425
0	31680	24916.777439585786	1.186612320412
0	31717	24939.556643001616	5.759963489493
0	31731	24941.732049901851	1.758880521605
0	31742	24944.81528854619	3.646830218596
0	31755	24959.417601465503	0.884581872914
0	31787	24978.13848286743	1.416301426755
0	31790	24979.183296877022	6.643825013246
0	31810	25021.769397227241	3.463715403034
0	31815	25026.048723796285	0.814601191506
0	31825	25040.067976885982	2.036732243262
0	31835	25062.287372561114	0.881006701197
0	31840	25070.259104325011	1.052073878795
0	31857	25081.203017431234	4.770789197848
0	31860	25082.277957440183	3.158904685825
0	31865	25086.532968382702	0.874695945159
0	31870	25088.30609460306	0.954632535484
0	31875	25091.380174689362	1.111648280639
0	31880	25095.801842650205	0.859811171517
0	31887	25106.383497002567	1.016380733345
0	31892	25107.244445713921	1.626483652512
0	31895	25108.141978809083	1.735012727788
0	31900	25110.777105222502	1.157689005509
0	31910	25128.323884486569	0.800036348961
0	31920	25145.594002963146	0.971655792184
0	31947	25157.487380801128	0.915686357022
0	31955	25172.919748574455	0.988872824144
0	31960	25179.930073761532	0.909900421184
0	31977	25192.193805108072	3.761097399925
0	31985	25196.849471131335	1.114462784026
0	31995	25206.152270160295	2.862401733559
0	32000	25217.259350703658	1.15398166338
0	32020	25230.59966116335	0.984661572427
0	32027	25236.926402490443	0.991111712623
0	32037	25238.815676024134	1.298972892537
0	32040	25239.810601159042	2.028089067402
0	32060	25249.611461815648	2.018721315383
0	32065	25253.248225951725	0.987913023215
0	32080	25267.141546817828	0.894788191933
0	32090	25269.356972407852	1.931250293634
0	32095	25272.60517538716	14.657858653633
0	32105	25290.593026984122	1.02994441865
0	32112	25294.006281550356	1.024847004004
0	32115	25295.093770374858	1.237813349852
0	32125	25306.143229702173	1.199361209814
0	32135	25316.753282298185	1.143589880411
0	32140	25318.707644748724	0.886909638811
0	32152	25328.160133813138	0.959444398899
0	32167	25331.29537285787	3.904164560383
0	32172	25332.333004032978	2.463931439989
0	32175	25333.268227113941	1.894653545277
0	32190	25351.962537365815	0.90680300761
0	32195	25354.398861494953	0.954757618718
0	32200	25361.939643848253	1.098365475424
0	32212	25368.685099799614	1.135930065358
0	32215	25369.647269659638	2.912264460232
0	32220	25371.13097278317	1.166874142829
0	32225	25385.754464868578	0.992163987085
0	32237	25398.14117080316	1.132473206334
0	32240	25399.196726638619	1.067792093591
0	32245	25402.493311104879	1.127870488353
0	32255	25407.231704083638	3.16922646956
0	32265	25412.475019405036	2.320184457533
0	32280	25415.652187931784	1.39984889775
0	32285	25418.705866675868	5.720163738711
0	32300	25421.753899470361	2.957447874295
0	32305	25431.889915251536	0.83271342041
0	32310	25437.14977467052	0.805431559216
0	32315	25441.017829623767	0.941823146585
0	32320	25448.061217500256	0.826139619481
0	32330	25452.765663172753	0.993098580185
0	32335	25459.610475705026	1.006870466284
0	32345	25467.841032894774	2.114769660017
0	32355	25471.028949615738	0.962933169771
0	32365	25475.228934057846	2.525648925663
0	32370	25478.714806888352	0.973289836943
0	32385	25482.696510934492	2.331656126411
0	32395	25508.472618458777	0.856575061101
0	32415	25529.42497551201	2.453227686477
0	32425	25539.872997835987	1.074442866351
0	32430	25547.190622219244	0.989265738986
0	32447	25567.96895927542	1.19385909345
0	32485	25601.474350539723	5.451082063252
0	32490	25617.06256446567	1.126824533008
0	32495	25624.075898475615	1.033902703039
0	32507	25626.512039801281	1.17047388555
0	32510	25627.675580654562	3.48175797267
0	32515	25632.379059653525	1.008541490231
0	32530	25639.656469242891	0.967684557289
0	32540	25644.713489479603	1.101998164132
0	32545	25646.567782854452	0.932495444641
0	32552	25650.489845721122	0.941963094659
0	32555	25651.342871434312	1.187314578686
0	32570	25673.602583470129	0.999686584622
[...]
7	30475	24044.057261284252	0.926975926571
7	30480	24046.718865806482	0.814862607326
7	30490	24059.305937970279	1.157744664513
7	30497	24062.623535176231	1.130414978787
7	30500	24063.472799751679	0.849264575448
7	30515	24079.291491225014	0.928936682176
7	30537	24098.082126111274	0.889540129714
7	30550	24106.442843767995	0.84746954767
7	30570	24120.96018379683	0.847702952754
7	30610	24145.540324336081	1.13415574776
7	30620	24148.889250587832	2.198911017004
7	30630	24165.278292757567	1.078230221383
7	30645	24170.383441567455	1.802729627621
7	30660	24185.722139377407	1.071527263708
7	30717	24227.080793386835	1.923912743658
7	30735	24234.234540685212	0.986006363388
7	30800	24329.881740850762	1.168196752295
7	30837	24342.783081398898	0.835818626639
7	30845	24347.585823347918	0.89335384639
7	30870	24359.404067832521	0.82157543581
7	30875	24366.33746872195	0.9209815301
7	30882	24384.752815510703	0.997448525298
7	30900	24393.106007280835	0.819753486663
7	30920	24423.78961335013	1.143009966146
7	30925	24425.260146103569	1.198253496271
7	30930	24429.337710298841	0.851689761598
7	30939	24433.464459903033	0.9009970502
7	30949	24435.252625496833	0.947449243069
7	30957	24437.272608328293	0.892726389226
7	31007	24453.464626437067	0.861250630207
7	31020	24457.995760879715	2.058740597421
7	31035	24464.139534234826	4.276107473901
7	31147	24533.623258464241	15.999084293083
7	31152	24534.691160966472	1.067902502231
7	31157	24535.603058013709	0.911897047237
7	31175	24542.730606210699	1.058972529229
7	31260	24612.130921446948	0.970451415982
7	31270	24615.303187811989	0.806586052477
7	31277	24617.677006021011	1.156499407254
7	31280	24618.546472807563	0.869466786552
7	31359	24668.467103732966	5.203572734363
7	31375	24674.411764783162	1.140887172613
7	31387	24688.055660130062	0.842818954587
7	31390	24689.15983096685	2.419569978378
7	31397	24698.860892300817	1.035413048696
7	31440	24719.047387667498	0.825579564832
7	31455	24723.108993658134	0.835238727648
7	31480	24739.660971695362	2.678223489771
7	31495	24747.64238908077	0.827836202178
7	31507	24751.32349605754	1.019194657076
7	31559	24826.876389780035	1.146015706472
7	31565	24828.561964607565	0.863752654754
7	31570	24830.32433161292	0.81743975319
7	31590	24844.386954465248	0.981878558733
7	31595	24846.256677355257	3.872647295327
7	31600	24847.736647479121	0.940821936075
7	31620	24861.359470982229	1.042092797719
7	31635	24881.447205693884	0.959927369095
7	31660	24893.01637632564	1.062110468
7	31675	24914.344865473084	0.869963237084
7	31692	24928.749479716503	1.152536018845
7	31697	24929.784973218803	3.776580312579
7	31700	24930.703256370918	0.918283152115
7	31739	24943.678635710266	0.82651287159
7	31745	24945.944192297917	2.143100609092
7	31750	24949.234776678477	0.805713828374
7	31770	24966.767502741222	5.76797164108
7	31795	24994.792563054698	0.981447485555
7	31800	25007.565332580123	1.091504013073
7	31830	25049.343202131871	1.091254897974
7	31905	25119.79473190382	1.094467197731
7	31915	25137.007000311592	1.024099811539
7	31944	25156.575378529528	1.005279823765
7	31950	25158.64467916804	8.978216546965
7	31980	25193.329999501949	2.770560450001
7	32005	25219.086793437971	0.94887718549
7	32015	25225.555089673689	2.269560443608
7	32034	25237.811458371716	0.885055881273
7	32045	25241.363575841327	0.855053813942
7	32050	25244.791572149829	1.118185381126
7	32057	25248.572773727346	1.125567890238
7	32070	25254.56397351612	0.880120178871
7	32100	25277.147036187434	1.021705025807
7	32122	25304.98398673475	0.924837397132
7	32130	25309.812050782644	1.119752015267
7	32145	25320.944471114037	1.154161779396
7	32164	25330.192474949331	1.163802897278
7	32180	25346.113933732014	0.814524663147
7	32185	25350.59074105835	0.811132747307
7	32230	25391.335364873155	0.989024829399
7	32277	25414.715798807391	0.848023736384
7	32325	25449.281138616542	1.138471249491
7	32350	25469.994049199078	1.028662979789
7	32375	25479.714589925106	0.895297195669
7	32390	25485.876122188627	1.084037495591
7	32400	25514.534595686325	0.987750470452
7	32405	25517.154414666192	1.024330975395
7	32420	25537.185659595168	0.994505741261
7	32437	25560.018045280207	1.002263016067
7	32440	25560.927410079431	0.909364799224
7	32450	25569.129993133034	1.161033857614
7	32455	25572.967395110512	0.936735156551
7	32460	25574.119963003174	0.877336702589
7	32465	25576.118446685014	1.032277986221
7	32477	25598.025794473726	1.068180970941
7	32480	25599.223487435903	1.197692962177
7	32522	25634.83208611459	1.178310816921
7	32535	25641.487476507277	6.655390392687
7	32560	25656.883078953	0.890889591444
7	32565	25661.688540891952	0.845948556252
7	32575	25677.528322509075	0.939548672177
7	32600	25711.954354296857	1.186000714451
7	32612	25715.578786517362	0.983866207302
7	32615	25716.630411925687	3.096826113445
7	32620	25723.847642995887	1.157268096879
7	32625	25726.268214141356	0.868128625304
7	32630	25733.297439603975	1.113938410021
7	32640	25736.61764072009	0.90149545325
7	32662	25753.654213461915	1.193980410416
7	32687	25763.697247782216	0.906242865883
7	32705	25799.569197873303	2.668284644349
7	32727	25805.640558626832	1.009951662924
7	32757	25821.345255168524	1.029128417
7	32770	25824.347111494836	0.865351278987
7	32790	25830.172566569741	4.45968508111
7	32797	25833.480338662066	0.968780184817
7	32807	25836.456989240064	1.128372327797
7	32824	25839.866943435659	1.138353913464
7	32832	25841.959558861245	0.969407304283
7	32867	25864.956840583933	0.918482980598
7	32895	25878.432573959233	0.875412626937
7	32900	25881.266378388944	0.901433931012
7	32905	25884.132473988955	0.938771756366
7	32940	25905.159716760422	1.136751578096
7	32987	25955.737420900008	0.82828766983
7	32990	25956.673031307878	0.93561040787
7	32995	25958.539334136154	0.870461192261
7	33002	25963.286513529762	0.975921466015
7	33010	25965.132802844185	0.830971446075
7	33040	25989.13658710487	0.841842697375
7	33062	25995.13711198358	1.047002906352
7	33110	26027.538387920882	1.176173078269
7	33120	26060.39928248413	0.868492136616
7	33137	26072.385558819183	1.165284866747
7	33142	26073.187306958129	0.801748138946
7	33192	26114.667692330311	5.141038356394
7	33195	26115.478388345352	0.810696015041
7	33205	26131.29212639276	0.96261988841
7	33220	26140.809337800931	1.192669671122
7	33225	26143.300998664085	0.95746265864
7	33230	26154.397644677334	0.993782238849
7	33257	26180.368612994997	0.925712938886
7	33262	26181.427450456469	1.058837461472
7	33282	26192.315703954663	0.829947938584
7	33295	26196.253016678014	0.862508502975
7	33310	26208.921261911618	1.00921035558
7	33330	26223.025679811537	1.048059888557
7	33365	26251.587929999536	1.02110144645
7	33410	26281.345266113979	1.065612054337
7	33422	26283.290027367463	0.810242655035
7	33440	26293.722503146289	0.871894985996
7	33445	26295.378493794111	1.00486191595
7	33487	26307.037529418812	2.896728977674
7	33490	26308.093824842394	1.056295423582
7	33502	26311.190754380326	1.151718957443
7	33527	26316.643359712227	2.655096370536
7	33535	26319.215901690794	2.572541978567
7	33545	26326.77427109457	1.012640433852
7	33555	26333.029133666663	4.660737324372
7	33575	26342.772849946346	1.19540543016
7	33580	26352.877286874842	0.830170208868
7	33592	26356.218003382929	0.894174179528
7	33610	26377.130243478186	1.188291286025
7	33625	26389.921015932817	0.923398659751
7	33640	26398.866064239293	2.356009987286
7	33650	26419.664253233263	0.831990209222
7	33659	26428.355003175783	1.097390384134
7	33690	26448.607042661547	1.135391085409
7	33705	26488.29754782838	1.01841645129
7	33715	26493.280364743125	0.99636718696
7	33725	26500.67856394192	0.884846159909
7	33730	26502.848079122358	1.107175025623
7	33735	26509.398091337297	0.830872238986
7	33762	26517.383658614457	0.990727034863
7	33765	26518.396404570695	1.012745956238
7	33770	26524.376129402312	1.114974953793
7	33822	26576.035288458564	0.804516193829
7	33835	26581.570657123421	1.154461503401
7	33840	26588.010451939789	0.866293038242
7	33855	26594.126549985559	0.90445895819
7	33872	26599.242316107037	0.97699272437
7	33900	26612.88821011476	0.896142523922
7	33950	26640.729686499516	0.966418035794
7	33970	26664.228614988873	1.045126832556
7	33977	26674.838998420645	1.122525283415
7	33980	26675.692852092457	0.853853671812
7	34007	26695.083114697475	0.830258704349
7	34010	26695.888531584356	0.805416886881
7	34015	26702.481116607686	1.008157818764
7	34025	26706.595926231593	1.063209905103
7	34037	26712.516163381539	2.12518883393
7	34070	26759.259201460643	0.942118988745
7	34085	26777.256930333068	1.023167607561
7	34095	26793.177327861896	0.89796644859
7	34100	26806.086750774259	0.853006339259
7	34105	26807.631783169172	0.914270593133
7	34120	26828.156420681234	5.771459561164
7	34130	26840.317320108829	0.92453304939
7	34135	26847.709101980335	0.817344043031
7	34154	26851.735452216724	1.075716261566
7	34165	26860.592717633682	0.875138638634
7	34190	26871.888661466714	0.878583487961
7	34225	26921.919334015739	1.05364046637
7	34295	26981.92314115478	2.009434957207
7	34350	27049.703205962367	1.027295446955
7	34360	27059.605470498458	0.88949606847
7	34375	27069.43455269946	1.007795961201
7	34385	27072.295993779576	0.862484352011
7	34394	27073.725361547957	1.012622426357
7	34400	27075.784257858957	1.109800901357
7	34410	27085.733642496107	1.027728885598
7	34422	27115.762647394342	1.119361321535
7	34435	27135.213610551354	1.008121208102
7	34445	27162.596830477583	1.152251717914
7	34467	27187.849503010237	5.619775984823
7	34475	27193.602500798809	0.927783457562
7	34485	27205.197018142836	0.941327194683
7	34495	27217.316381961792	0.993120515533
7	34500	27220.562595911547	1.018473155797
7	34510	27227.624343988579	1.133103474323
7	34515	27234.267098013729	1.161257639527
7	34525	27244.642996818668	1.143223118596
7	34535	27250.920963245453	0.938897444028
7	34545	27270.36360969294	0.818111679237
7	34555	27273.694549463172	0.898255881481
7	34560	27282.337006442191	0.827322825976
7	34565	27288.28446847771	0.824175076
7	34570	27290.419864075461	0.883575846255
7	34580	27297.493590783511	0.970245170034
7	34652	27337.999424035439	1.195124549046
7	34665	27355.746481296872	0.924070839956
7	34675	27360.793186158941	2.774594229557
7	34695	27386.52852221219	1.0844255968
7	34700	27390.937286555729	0.906377134006
7	34705	27393.461583430657	0.939568368252
7	34737	27404.478417723888	2.222490165336
7	34775	27437.59863346183	3.756394122317
7	34780	27447.18729808613	1.096398078743
7	34805	27494.12472694933	1.084481064696
7	34815	27502.511064136869	0.990595837869
7	34820	27507.582355542948	0.972156047076
7	34825	27511.841109629498	0.873657941725
7	34840	27543.330690844551	1.146018293034
7	34850	27554.687897128696	0.857695696969
7	34870	27571.473579335929	1.191380199417
7	34875	27576.193054194564	1.190603460371
7	34890	27583.851795364118	0.934305506106
7	34900	27587.694516423734	8.333216044902
7	34910	27599.056833928214	2.341921040146
7	34935	27610.131340660916	2.825936453527
7	34960	27622.605151978239	2.236320586621
7	34967	27633.874309865539	1.148218046129
7	34975	27635.762306062394	1.887996196855
7	35035	27674.347225555103	0.94897528505
7	35040	27679.005617692931	1.088235395402
7	35055	27690.517876386733	0.882494339533
7	35060	27697.01417151174	1.140103651956
7	35065	27704.08758420103	1.045122354385
7	35070	27711.387047852505	0.842888795584
7	35090	27753.402625142503	1.155331249069
7	35100	27760.472663718773	3.660007137291
7	35120	27772.458341391473	1.024497138523
7	35135	27780.700975589454	1.112858860847
7	35140	27792.418830634867	0.881930277869
7	35150	27807.85416557289	0.854917467013
7	35155	27811.820918140047	1.196300728153
7	35165	27823.398510634639	1.190666832309
7	35187	27870.423245306754	1.082044719532
7	35195	27873.771791663982	3.348546357228
7	35205	27880.581948911075	0.923063189816
7	35215	27894.951416105384	1.107817255892
7	35240	27913.893481774326	9.909965291005
7	35260	27958.03701292175	0.830647275597
7	35265	27964.457246169187	0.987111428659
7	35280	27982.649969802883	3.299481436978
7	35285	27984.274072611802	1.119812674448
7	35290	27986.550021280131	1.118788117357
7	35295	27990.984625021029	1.152987451479
7	35300	27994.732315164483	1.194215839636
7	35312	28000.443423868997	0.893235764652
7	35335	28018.169755251756	2.188836397952
7	35345	28024.815357721716	0.808937633038
7	35370	28046.871202155364	1.041521321051
7	35375	28063.380326093706	0.990037131682
7	35380	28075.28458115716	0.912432337739
7	35385	28085.658924268586	1.003157858644
7	35390	28094.655821902572	0.977841551322
7	35405	28101.362876707301	0.903521494288
7	35417	28108.152858731617	1.013241112139
7	35427	28113.993024825208	1.176411495637
7	35435	28116.8286878616	2.835663036392
7	35470	28155.850014069919	0.847037504893
7	35475	28165.425474771448	1.113565497287
7	35480	28166.241399687265	0.811343106069
7	35540	28194.696096650369	4.066411774154
7	35555	28200.93019268033	0.977676413767
7	35570	28205.228454454941	0.815599136148
7	35592	28219.925197336907	2.726910286802
7	35602	28222.146972405569	1.005670621991
7	35610	28224.376011377325	1.052045935206
7	35617	28227.015808809518	1.105716675986
7	35637	28230.894188662402	3.259635002595
7	35652	28234.810002157991	1.137437747605
7	35657	28236.008351536063	1.198349378072
7	35665	28240.469873687033	1.120462810621
7	35670	28242.765154171243	1.177068248671
7	35700	28266.886712573932	1.130012594163
7	35710	28271.529739171989	1.078002274223
7	35732	28287.761917076767	0.805394774955
7	35747	28292.018162103706	0.892364984658
7	35755	28295.715372023696	0.976045570709
7	35760	28299.76546231418	0.982564874925
7	35775	28304.664880591054	1.084439563379
7	35780	28308.04008195643	1.158044504188
7	35785	28320.381674255809	0.998225898109
7	35797	28331.92156969218	1.047175299097
7	35805	28334.595865514453	3.83877752331
7	35815	28342.452370777093	3.194145396459
7	35830	28353.931270699183	2.456877775907
7	35870	28394.20579580649	0.962096804474
7	35875	28415.622906658084	0.959571070317
7	35910	28425.028210818541	1.046975386515
7	35915	28426.745739764287	8.219063120462
7	35937	28438.64238138531	1.076981218718
7	35945	28441.043070425244	0.898831460718
7	35955	28442.952833707261	0.954916861746
7	35965	28448.247047200666	1.108918925188
7	35980	28451.710633579205	2.405418796792
7	35987	28468.71003122503	0.820892716944
7	36002	28477.106683567742	1.98261425618
7	36032	28489.642151076006	0.982401599549
7	36035	28490.595333358212	5.362193038438
7	36040	28491.65898726904	0.833544931095
7	36070	28529.449248690936	1.156298169959
7	36080	28558.179384899386	2.953092394948
7	36085	28580.845400742085	1.020084508508
7	36095	28603.715418311618	1.152068886533
7	36100	28612.492219519849	1.036739385501
7	36105	28613.998847732914	1.150021008868
7	36165	28658.504936441415	2.151642860745
7	36175	28662.431435210039	1.120687587559
7	36187	28667.845806687022	0.848597005662
7	36200	28674.380865859665	1.090055390354
7	36240	28722.535033193206	4.230948705311
7	36260	28738.385983734994	3.73259943412
7	36270	28749.848229411688	2.970626594578
7	36290	28779.799606076171	0.872153730411
7	36327	28805.211829626551	1.020098907687
7	36364	28838.348691984489	1.002822954953
7	36370	28840.271615906189	0.87309957128
7	36375	28846.659587024095	0.879929025192
7	36382	28850.530126126142	0.950884774607
7	36385	28851.536605864422	1.00647973828
7	36395	28853.947787054061	0.924674463738
7	36415	28863.380931728241	0.99638297651
7	36422	28866.354711861251	0.842264565732
7	36430	28873.878327749124	1.008540421911
7	36455	28917.014103699114	0.97241727002
7	36475	28924.205294554661	1.09170251321
7	36480	28927.125528912455	0.971398814768
7	36485	28932.694191714064	1.08042625431
7	36510	28967.268157121975	1.15761653278
7	36532	28972.131949740046	0.983095188532
7	36540	28978.894382708883	1.161977154482
7	36545	28981.502800897718	1.078203589004
7	36590	29008.463045879018	0.95316140363
7	36595	29014.452537108509	0.947910523135
7	36617	29029.100964508773	4.886160624363
7	36632	29032.309376226375	1.152398419846
7	36655	29042.205065066371	1.027606265526
7	36685	29073.537434320144	1.13805459151
7	36702	29084.101675166018	0.915429418907
7	36717	29087.725587075621	1.03067679517
7	36747	29101.335519222489	0.91036867518
7	36765	29108.290391522491	0.951142674778
7	36777	29127.014998157157	0.826413347572
7	36780	29128.205129629953	1.190131472796
7	36792	29130.787184191673	1.151555737294
7	36824	29151.026480592857	0.951454020571
7	36850	29157.708313865146	0.961257298756
7	36865	29172.665413902535	1.037565649208
7	36870	29176.924904820918	0.896678497735
7	36880	29184.076808942754	0.84654780468
7	36909	29199.322208670801	1.19164295299
7	36925	29221.980244827556	4.848690712554
7	36945	29235.638465263227	1.07699345611
7	36960	29249.80197730043	0.84478446506
7	36972	29277.923914177342	1.14880005708
7	36975	29278.981880360095	1.057966182753
7	36985	29291.158599827733	1.078306684736
7	37007	29310.502827221548	0.852169042081
7	37010	29311.65511319034	1.152285968792
7	37040	29343.774081130102	0.888272150606
7	37050	29350.930180682831	1.100169608183
7	37055	29357.916512375258	0.930632307101
7	37065	29363.366090858925	2.02432723608
7	37070	29372.028334442592	1.166487288382
7	37090	29380.226718615658	1.079204378463
7	37100	29390.245806962059	0.943457112554
7	37125	29399.207809437961	8.064864617826
7	37145	29409.646915073142	0.953527943417
7	37155	29414.033020195044	1.102577694133
7	37177	29432.411941543075	1.091702184454
7	37182	29433.507257133762	1.095315590687
7	37185	29434.329233571461	0.821976437699
7	37220	29473.045055054792	1.139034232218
7	37240	29484.685789574801	1.013488588482
7	37275	29512.645487533736	0.987376445159
7	37280	29517.223012627268	1.101576033048
7	37307	29541.188476581499	3.781887522404
7	37310	29542.281925121788	1.093448540289
7	37315	29559.359274487007	0.911396908015
7	37335	29596.222536995889	3.633007991301
7	37370	29622.960295648226	2.905685581098
7	37390	29641.552890940265	1.133493259363
7	37395	29643.810586519527	0.979746174533
7	37405	29656.75107365085	0.944818181172
7	37415	29667.449985242109	0.895364935882
7	37429	29669.306435831103	0.807439203747
7	37451	29673.554881672028	3.384313171839
7	37457	29675.433208396218	0.826423796918
7	37462	29676.533304069962	1.100095673744
7	37470	29678.182277780611	0.833461683616
7	37480	29692.967316136855	0.927272569761
7	37500	29718.70630530543	1.839501707869
7	37505	29719.668419447831	0.913911184017
7	37525	29755.20566522597	0.802805417497
7	37540	29774.379892660737	0.964296934474
7	37545	29784.379844579233	1.089107678737
7	37560	29805.902195809447	1.197707143798
7	37565	29811.952868536005	1.126835092902
7	37580	29822.900200575305	2.820836207253
7	37595	29829.347529599986	3.628887876648
7	37640	29878.867343211059	2.614193089806
7	37645	29880.565716324554	1.057331638131
7	37655	29886.32883344821	1.164575366862
7	37672	29893.315601080751	0.802420229651
7	37682	29897.369963759796	1.037814443838
7	37685	29898.21510922495	0.845145465154
7	37690	29904.851359915721	0.991580843087
7	37695	29907.206355776577	0.881321120728
7	37700	29910.512709129811	1.15441053845
7	37710	29927.335830065417	0.917339390889
7	37720	29933.312666390793	1.132417534851
7	37735	29941.55230073938	0.987865223084
7	37780	29969.401864947762	0.953619650379
7	37790	29972.187034495221	1.129072542954
7	37825	29987.231558366479	1.186407520529
8	14000	10791.244706229114	1
8	14004	10792.946959313382	0
8	15285	11845.749158477724	1
8	15286	11846.402947023162	0
8	22590	17789.761249038937	1
8	22591	17789.968616955788	0
8	27355	21601.6441161326	1
8	27356	21602.843318074858	0
8	28115	22208.500012659241	1
8	28116	22208.96225635389	0
8	28122	22209.856170718075	1
8	28124	22210.685733044971	0
8	29927	23674.514249012715	1
8	29929	23675.366150101335	0
9	17134	13291.263175146627	1
9	17141	13293.267249148238	0
9	19340	14981.193402317351	1
9	19344	14981.513845799412	0
9	23705	18563.969344508056	1
9	23706	18564.281830249161	0
9	30347	23932.798468431177	1
9	30351	23934.724247698871	0
9	30712	24226.185450081944	1
9	30714	24226.583227466266	0
9	30720	24227.887698225069	1
9	30721	24231.397875052077	0
9	30952	24436.379881939067	1
9	30954	24436.880612358932	0
9	34147	26850.659735955158	1
9	34149	26850.863732500743	0

