version 2
run Second_exit_9-10-20191017-13:44:10-1982
attr configname Second_exit_9
attr datetime 20191017-13:44:10
attr experiment Second_exit_9
attr inifile omnetpp.ini
attr iterationvars ""
attr iterationvarsf ""
attr measurement ""
attr network ResponseTimeNetwork
attr processid 1982
attr repetition 10
attr replication #10
attr resultdir results
attr runnumber 10
attr seedset 10
param **.Source.interArrivalTime exponential(5s)
param **.jobPriority bernoulli(0.6)
param **.PS.serviceTimeU1 "uniform(0.8s, 1.2s)"
param **.PS.serviceTimeU2 "uniform(1.8s, 2.2s)"
param **.SS1.serviceTime exponential(1s)
param **.SS2.serviceTime exponential(1.2s)
param **.PS.exitProbability bernoulli(0.9)

vector 0 ResponseTimeNetwork.SS1 queueLength:vector ETV
attr interpolationmode sample-hold
attr title "queue length, vector"
vector 1 ResponseTimeNetwork.SS2 queueLength:vector ETV
attr interpolationmode sample-hold
attr title "queue length, vector"
vector 2 ResponseTimeNetwork.QueueU1 queueLength:vector ETV
attr interpolationmode sample-hold
attr title "queue length, vector"
vector 3 ResponseTimeNetwork.QueueU2 queueLength:vector ETV
attr interpolationmode sample-hold
attr title "queue length, vector"
vector 4 ResponseTimeNetwork.sink lifeTimeU1:vector ETV
attr interpolationmode none
attr title "lifetime of arrived jobs U1, vector"
attr unit s
vector 5 ResponseTimeNetwork.sink lifeTime:vector ETV
attr interpolationmode none
attr title "lifetime of arrived jobs, vector"
attr unit s
vector 6 ResponseTimeNetwork.sink lifeTimeU2:vector ETV
attr interpolationmode none
attr title "lifetime of arrived jobs U2, vector"
attr unit s
2	0	0	0
2	10	9.151705897614	1
2	11	10.059746621822	0
2	15	10.31437651757	1
2	16	10.8698153153	0
2	25	12.290221262488	1
2	26	13.010403533578	0
2	30	13.173367111656	1
2	31	14.08454745926	0
2	40	17.560140312531	1
2	43	18.155436275923	0
2	50	19.10354299505	1
2	52	19.44867914765	2
2	53	20.118728910876	1
2	56	21.135081283306	0
2	60	21.276020790692	1
2	61	22.152099030488	0
2	65	22.305448420324	1
2	68	23.263590555475	0
2	72	24.140423504103	1
2	73	24.333244003006	0
2	77	24.916341395209	1
2	78	25.46367690314	0
2	82	25.575057535746	1
2	83	26.51078369657	0
2	87	27.230558759291	1
2	88	27.337009003688	0
2	92	27.395108767246	1
2	93	28.377424583979	0
2	102	30.013325586136	1
2	103	30.114892699219	0
2	112	31.308751965532	1
2	113	31.915549459423	0
2	119	32.828686292587	1
2	120	33.047021988428	0
2	127	34.031289545542	1
2	128	34.988497497535	0
2	134	35.742134690884	1
2	135	36.095249515793	0
2	142	37.878979901147	1
2	143	38.137769648361	0
2	147	38.789244557037	1
2	148	39.291344237442	0
2	155	40.401891484954	1
2	158	41.371846690702	0
2	169	43.236138162133	1
2	170	43.346358017179	0
2	174	43.930190734759	1
2	175	44.320899496342	0
2	182	45.659608779008	1
2	184	46.148024368143	2
2	185	46.393848766221	1
2	190	47.352714573706	0
2	196	47.818757974141	1
2	197	48.388795121221	0
2	201	48.428869233288	1
2	202	49.408321662454	0
2	206	49.544109136648	1
2	207	50.240166898558	0
2	211	50.604672306884	1
2	212	51.134182337785	0
2	216	52.212888902023	1
2	217	52.243714456932	0
2	221	52.284493963469	1
2	222	53.124933103678	0
2	226	53.607600764724	1
2	227	54.050903853701	0
2	234	55.062855476922	1
2	236	55.106909098436	2
2	237	55.929970195909	1
2	240	56.952577470263	0
2	244	57.694517672341	1
2	245	58.103816127425	0
2	253	58.644257921638	1
2	254	59.185948772469	0
2	258	59.330469468635	1
2	259	60.225083432739	0
2	263	60.529187153563	1
2	264	61.138342742269	0
2	268	61.844388404149	1
2	269	61.948502655533	0
2	273	62.30956228861	1
2	275	62.777315079506	2
2	276	62.881480293182	1
2	279	63.907683100292	0
2	283	63.974077118459	1
2	285	64.1631750717	2
2	286	64.897735998706	1
2	290	65.350745847796	2
2	291	65.852955778149	1
2	295	65.895369630916	2
2	296	66.788838915453	1
2	299	67.979671207276	0
2	306	69.205403326001	1
2	307	69.883289858346	0
2	316	71.010678462392	1
2	317	72.056117930376	0
2	323	72.939592875898	1
2	324	73.041930252706	0
2	328	73.871369771674	1
2	329	73.886996091456	0
2	336	75.139357885387	1
2	337	75.736242647675	0
2	346	77.147896453476	1
2	347	77.681410872304	0
2	353	77.822329205315	1
2	355	78.725854144554	2
2	356	78.750797641856	1
2	360	78.899248149288	2
2	362	79.125901575501	3
2	364	79.538113221344	4
2	365	79.570988711455	3
2	369	79.685349361094	4
2	370	80.395615262185	3
2	374	81.087224994184	4
2	375	81.549946101961	3
2	379	81.611119319377	4
2	381	82.004651302365	5
2	382	82.480803713502	4
2	386	82.830988536948	5
2	389	83.323555544877	4
2	393	83.958028786716	5
2	394	84.41691413589	4
2	397	85.275962210467	3
2	400	86.149576138819	2
2	403	87.207604990548	1
2	407	87.692277961276	2
2	408	88.027056192721	1
2	412	88.421765669366	2
2	414	89.203544122518	3
2	415	89.206924187972	2
2	418	90.368790082468	1
2	422	90.394185747144	2
2	423	91.427947052589	1
2	426	92.598089802845	0
2	430	92.948221082168	1
2	432	93.19748772231	2
2	433	93.62478977416	1
2	437	93.959922580139	2
2	438	94.430733782261	1
2	442	95.323657032639	2
2	443	95.369410045839	1
2	447	96.174695991363	2
2	449	96.359043116601	3
2	450	96.486112844966	2
2	454	97.183569418353	3
2	455	97.637046940367	2
2	458	98.762032881401	1
2	462	98.882804605676	2
2	464	99.043599673836	3
2	466	99.51050793259	4
2	467	99.637407145578	3
2	470	100.714963172119	2
2	474	101.000735793975	3
2	476	101.53482630435	4
2	477	101.556811069533	3
2	481	101.819482298743	4
2	482	102.423291927039	3
2	486	103.130494679157	4
2	487	103.529041831124	3
2	490	104.365084525313	2
2	494	104.517107765997	3
2	496	105.330119368149	4
2	497	105.485112023841	3
2	501	105.632766649505	4
2	503	105.853538840877	5
2	504	106.63062010214	4
2	508	107.203530822598	5
2	509	107.57898098782	4
2	512	108.394004057835	3
2	516	108.693518515239	4
2	517	109.20627799297	3
2	521	109.809776448485	4
2	522	110.275257634858	3
2	526	110.355443555235	4
2	527	111.298175797539	3
2	531	111.78449354416	4
2	532	112.240408353156	3
2	536	112.264119339895	4
2	537	113.375712881072	3
2	540	114.415333600177	2
2	543	115.446042790471	1
2	547	115.94187820023	2
2	548	116.478461722585	1
2	552	116.866107813978	2
2	554	117.525779968397	3
2	555	117.590885969738	2
2	559	118.382844767283	3
2	560	118.399352045751	2
2	563	119.584966458495	1
2	567	119.787506554681	2
2	569	120.400945015205	3
2	570	120.449610689397	2
2	574	120.863560591048	3
2	576	121.169353845294	4
2	577	121.2564226798	3
2	580	122.126348237622	2
2	583	122.932202187109	1
2	587	123.544572940161	2
2	589	123.939888384911	3
2	590	124.071707815699	2
2	594	124.172005616421	3
2	595	125.054386828955	2
2	599	125.297302148269	3
2	600	125.901078631472	2
2	604	126.683006835716	3
2	606	126.782450495952	4
2	607	127.001414244179	3
2	611	127.265778580289	4
2	613	127.345997153426	5
2	614	127.950589647632	4
2	618	128.181198821524	5
2	620	128.437098066162	6
2	621	129.054308239579	5
2	624	130.116598934889	4
2	628	130.45736766636	5
2	629	131.238026271783	4
2	632	132.204065946792	3
2	637	133.04280834787	2
2	641	133.072048740642	3
2	643	133.571965927149	4
2	645	134.121888725334	5
2	646	134.126787501503	4
2	649	135.080399810732	3
2	652	135.983320965641	2
2	656	136.120518861528	3
2	658	136.446317914675	4
2	659	137.115081735258	3
2	663	137.779574792728	4
2	664	138.118122099363	3
2	668	138.720859174693	4
2	670	138.960623293698	5
2	671	139.062437946745	4
2	674	139.880141993169	3
2	677	140.779140202724	2
2	683	141.323007661972	3
2	685	141.694482600841	4
2	686	141.765193534572	3
2	690	141.790782090224	4
2	691	142.707663327571	3
2	695	143.071494382086	4
2	696	143.58151406201	3
2	700	143.653045876154	4
2	701	144.488760340981	3
2	705	144.912179366104	4
2	706	145.654193033021	3
2	710	146.266404705616	4
2	711	146.559438702487	3
2	715	147.341997675623	4
2	716	147.683395370212	3
2	720	148.200020854069	4
2	721	148.605730339908	3
2	725	148.709615158739	4
2	726	149.748462755349	3
2	730	150.069074189058	4
2	731	150.712629830208	3
2	737	151.238555906382	4
2	738	151.654938766942	3
2	741	152.682408809778	2
2	744	153.514155324851	1
2	748	153.516812973157	2
2	750	153.647502673126	3
2	752	154.10297665662	4
2	753	154.70898735628	3
2	757	154.997758603009	4
2	759	155.077986585316	5
2	760	155.680486288504	4
2	763	156.501370284823	3
2	766	157.385225845059	2
2	770	157.566644629471	3
2	772	157.903914349064	4
2	773	158.292072573607	3
2	777	158.435412312426	4
2	778	159.166019593855	3
2	782	159.213478560108	4
2	784	160.05575563676	5
2	785	160.255412248266	4
2	788	161.117397850123	3
2	791	162.100297352136	2
2	795	162.203791493763	3
2	797	163.157528961492	4
2	798	163.287860053335	3
2	802	163.534270301074	4
2	803	164.465906659444	3
2	807	165.157685129761	4
2	809	165.208578679727	5
2	812	165.516931401589	4
2	816	165.991039360397	5
2	817	166.426849455689	4
2	820	167.322012996883	3
2	824	167.345773392268	4
2	825	168.22008548493	3
2	828	169.125446751271	2
2	832	169.306550525175	3
2	834	169.792428631038	4
2	835	169.974381119129	3
2	838	171.164306118642	2
2	842	171.691486611889	3
2	844	172.010253015773	4
2	845	172.236535868165	3
2	848	173.055231559114	2
2	853	174.236289133248	1
2	857	174.316049787404	2
2	859	174.60768356778	3
2	860	175.367450403073	2
2	863	176.407024982316	1
2	866	177.579391317745	0
2	870	177.929160540769	1
2	871	178.438098841836	0
2	875	179.507800976124	1
2	876	179.527392161475	0
2	880	179.973062120793	1
2	881	180.634016212472	0
2	885	180.802577952798	1
2	886	181.765428762161	0
2	890	181.77291345391	1
2	892	181.818785944042	2
2	893	182.569117203285	1
2	897	183.061970285801	2
2	898	183.499665852659	1
2	902	183.670351993642	2
2	903	184.67594866699	1
2	907	185.344991103048	2
2	909	185.459651091615	3
2	910	185.634395785559	2
2	914	186.383884297486	3
2	915	186.457924733799	2
2	918	187.309994951844	1
2	922	187.735399006254	2
2	923	188.144782714102	1
2	927	188.372856263119	2
2	929	188.736086007198	3
2	930	189.116292863082	2
2	933	190.012063174158	1
2	937	190.179840031164	2
2	940	191.049370912764	1
2	943	192.107462011765	0
2	947	192.209687274516	1
2	949	192.306725942549	2
2	950	192.930113291296	1
2	954	193.25409440104	2
2	956	193.463617942421	3
2	957	193.776915268342	2
2	961	194.626341641316	3
2	962	194.63492271446	2
2	966	195.349461029562	3
2	967	195.737837128922	2
2	971	196.851292934322	3
2	972	196.899177144117	2
2	976	196.937526749878	3
2	978	197.648200364765	4
2	979	197.892005932446	3
2	983	198.400787372223	4
2	985	198.661905456387	5
2	989	198.891018804197	6
2	990	198.970529241137	5
2	993	199.985491255879	4
2	997	200.356112506123	5
2	998	200.932577851343	4
2	1001	202.122734938677	3
2	1004	203.142999252885	2
2	1008	203.47179418566	3
2	1010	203.662659144181	4
2	1011	203.968962045408	3
2	1015	204.477458719912	4
2	1016	205.167757948882	3
2	1019	206.05092878707	2
2	1023	206.091164788582	3
2	1025	206.876402606376	4
2	1026	206.908229792046	3
2	1029	207.731409715603	2
2	1033	208.080022097364	3
2	1034	208.634052742946	2
2	1038	209.021836922234	3
2	1040	209.660323365727	4
2	1041	209.693385336756	3
2	1044	210.673191248554	2
2	1047	211.713767398915	1
2	1050	212.552676396838	0
2	1057	214.373297461419	1
2	1058	214.55649030844	0
2	1062	214.567653194263	1
2	1065	215.691921112894	0
2	1069	215.817860393061	1
2	1071	216.021902226116	2
2	1073	216.173607421844	3
2	1074	216.68440162849	2
2	1078	217.129424409189	3
2	1079	217.839183661643	2
2	1083	218.8023128603	3
2	1084	218.928711869869	2
2	1088	219.786196559901	3
2	1090	219.885162671699	4
2	1091	219.930735516104	3
2	1095	220.092875457093	4
2	1097	220.859601838144	5
2	1098	221.067415193024	4
2	1102	221.584759233904	5
2	1104	221.723534957231	6
2	1105	222.198650983649	5
2	1109	222.71705969786	6
2	1110	223.2154059089	5
2	1113	224.260497580955	4
2	1116	225.397592979504	3
2	1120	225.460788848536	4
2	1122	225.708197561862	5
2	1123	226.284756353984	4
2	1126	227.088664344533	3
2	1129	227.978989435102	2
2	1133	228.043013915829	3
2	1135	228.209301027065	4
2	1136	228.831811487324	3
2	1139	229.995903741963	2
2	1143	230.590312028298	3
2	1145	230.731969986813	4
2	1147	230.823529565364	5
2	1148	231.028326906845	4
2	1152	231.90618011482	5
2	1154	232.116491145182	6
2	1155	232.16016251326	5
2	1158	232.995013857655	4
2	1162	233.436231298588	5
2	1164	233.786164450576	6
2	1165	233.937999138165	5
2	1168	234.790587777201	4
2	1172	235.269902415363	5
2	1174	235.650563731093	6
2	1175	235.805720750172	5
2	1178	236.714731220831	4
2	1182	237.055933150165	5
2	1184	237.122144441709	6
2	1185	237.741338019934	5
2	1189	237.769716088089	6
2	1190	238.763986295205	5
2	1194	239.010187759394	6
2	1197	239.76058067067	5
2	1201	240.193500002217	6
2	1202	240.863133613602	5
2	1206	241.051592809711	6
2	1207	241.76469260084	5
2	1211	242.18739431471	6
2	1212	242.755580920563	5
2	1216	243.243531468083	6
2	1217	243.58110081146	5
2	1221	244.195957886702	6
2	1222	244.716266613104	5
2	1226	245.250587198985	6
2	1228	245.638554659938	7
2	1229	245.647192642395	6
2	1232	246.721919435565	5
2	1235	247.763706656196	4
2	1239	248.098826652157	5
2	1241	248.274195665615	6
2	1242	248.949660782912	5
2	1246	249.106402848365	6
2	1247	250.006851524697	5
2	1251	250.097394804391	6
2	1253	250.26189973804	7
2	1255	250.450455582586	8
2	1257	250.550566141782	9
2	1259	250.622908238884	10
2	1260	250.943216319871	9
2	1263	252.073402129975	8
2	1266	253.038297094893	7
2	1269	253.939568753191	6
2	1273	254.558816692016	7
2	1275	254.593465874652	8
2	1276	254.83425310424	7
2	1279	255.902755864453	6
2	1283	256.076780538489	7
2	1284	256.98528821778	6
2	1288	257.06527200999	7
2	1290	257.803520255024	8
2	1291	257.86101501903	7
2	1294	259.019476155401	6
2	1298	259.247923223328	7
2	1299	260.087018227041	6
2	1303	260.3034612272	7
2	1305	260.879116875919	8
2	1306	261.202439777576	7
2	1309	262.126081840996	6
2	1312	262.980325748515	5
2	1316	263.107238995942	6
2	1318	263.218364798393	7
2	1322	263.642459461242	8
2	1324	263.96667215782	9
2	1325	264.080696409777	8
2	1328	264.932712577027	7
2	1332	265.288315955729	8
2	1334	265.576563429391	9
2	1335	265.902318098698	8
2	1339	265.998524265748	9
2	1341	266.061879903838	10
2	1343	266.09497931725	11
2	1346	266.865672764857	10
2	1350	266.977289289932	11
2	1351	267.764481300977	10
2	1354	268.794917584606	9
2	1358	269.389712916141	10
2	1360	269.453989097262	11
2	1363	269.711379356891	10
2	1367	270.508928206089	11
2	1368	270.712809254065	10
2	1372	271.094210685636	11
2	1373	271.814804296125	10
2	1377	272.737676794223	11
2	1378	272.986212039668	10
2	1382	273.283293603981	11
2	1383	274.122329274867	10
2	1386	275.208324454468	9
2	1389	276.011788161401	8
2	1392	276.927046395302	7
2	1396	277.30089479791	8
2	1398	277.465939972239	9
2	1400	278.051447990153	10
2	1401	278.063605857942	9
2	1404	279.150029061384	8
2	1408	279.333270058009	9
2	1409	280.268993113305	8
2	1413	280.932166705392	9
2	1415	281.053799124455	10
2	1416	281.328555175405	9
2	1420	281.750444413054	10
2	1421	282.242811258625	9
2	1425	283.239294823424	10
2	1426	283.25336604074	9
2	1430	283.698701844411	10
2	1431	284.269181456812	9
2	1435	284.309658649258	10
2	1436	285.367567393579	9
2	1440	285.875170687845	10
2	1442	286.141537126283	11
2	1444	286.194786290573	12
2	1445	286.209550358005	11
2	1448	287.07077708377	10
2	1452	287.231801236929	11
2	1454	287.342581316465	12
2	1455	287.871480945241	11
2	1459	288.251746108151	12
2	1460	288.994627556786	11
2	1463	289.906263397098	10
2	1466	290.754535253089	9
2	1470	290.755216465588	10
2	1471	291.74681055874	9
2	1475	292.38146885012	10
2	1476	292.706576717853	9
2	1480	293.117071741052	10
2	1481	293.604126755822	9
2	1484	294.792222569346	8
2	1488	294.845719400824	9
2	1490	294.860314704429	10
2	1493	295.702470423024	9
2	1498	296.856357898213	8
2	1504	297.638510243553	9
2	1505	297.714946282491	8
2	1509	297.72014448033	9
2	1510	298.539381436095	8
2	1514	299.37508729626	9
2	1516	299.541356743871	10
2	1517	299.624193911463	9
2	1521	299.752151316662	10
2	1523	299.913177391402	11
2	1525	300.021801465738	12
2	1527	300.176144717027	13
2	1529	300.392409693755	14
2	1530	300.481335415527	13
2	1534	301.43794792895	14
2	1535	301.647848050691	13
2	1538	302.543943285312	12
2	1542	303.453146917329	13
2	1543	303.569082101549	12
2	1547	303.875275511613	13
2	1548	304.611923800523	12
2	1551	305.733676966115	11
2	1555	305.734829318486	12
2	1557	305.804857216908	13
2	1560	306.651707325245	12
2	1564	307.150179254437	13
2	1565	307.749035817313	12
2	1568	308.722507682837	11
2	1572	308.79584205222	12
2	1574	308.978346937854	13
2	1576	308.991896883732	14
2	1577	309.855341587703	13
2	1581	310.567336062006	14
2	1582	310.670948857091	13
2	1585	311.482810832489	12
2	1588	312.287382240988	11
2	1591	313.220119840767	10
2	1594	314.044692272343	9
2	1597	315.083961675246	8
2	1600	316.238329775096	7
2	1604	317.055307586652	8
2	1605	317.203183282563	7
2	1608	318.236070002639	6
2	1611	319.341214212333	5
2	1615	320.310082565253	6
2	1618	320.444379820884	5
2	1621	321.251143745449	4
2	1625	321.96748947041	5
2	1626	322.395661476743	4
2	1630	322.605668671997	5
2	1632	323.117956500574	6
2	1633	323.451051838253	5
2	1636	324.537140042916	4
2	1640	324.832221592891	5
2	1641	325.377993286144	4
2	1645	325.792058205306	5
2	1648	326.234232777007	4
2	1652	326.897176706935	5
2	1654	327.148348736188	6
2	1655	327.357330498587	5
2	1658	328.481785554181	4
2	1662	328.757376519812	5
2	1663	329.496166967436	4
2	1667	329.757505774876	5
2	1669	330.499569882505	6
2	1670	330.507761411297	5
2	1674	331.155103552936	6
2	1676	331.160273239832	7
2	1677	331.337221027466	6
2	1681	331.542837021221	7
2	1682	332.258632446101	6
2	1686	332.714105124543	7
2	1688	332.970676001524	8
2	1689	333.127269655859	7
2	1692	334.041375903154	6
2	1696	334.154619637612	7
2	1698	334.821448609351	8
2	1699	334.863418271693	7
2	1703	335.694255865291	8
2	1704	335.781745763237	7
2	1708	336.171465360739	8
2	1709	336.693208708076	7
2	1712	337.571182573049	6
2	1715	338.510141173864	5
2	1718	339.351746800283	4
2	1722	339.582391546863	5
2	1724	340.077929765993	6
2	1726	340.175374627042	7
2	1727	340.312459542343	6
2	1731	340.576262137141	7
2	1732	341.391723940728	6
2	1735	342.239995039088	5
2	1738	343.134476272037	4
2	1742	343.816095850634	5
2	1743	344.041674672181	4
2	1746	345.235909014216	3
2	1750	345.973072313133	4
2	1751	346.243978889773	3
2	1755	346.604253900778	4
2	1756	347.278975671178	3
2	1761	348.340814952387	2
2	1765	349.312528849683	3
2	1766	349.345301221984	2
2	1769	350.29638900731	1
2	1772	351.363279537691	0
2	1776	351.627161126947	1
2	1778	352.011922051584	2
2	1779	352.319431802931	1
2	1782	353.148833352721	0
2	1788	353.979083286808	1
2	1789	354.001749900098	0
2	1796	354.89645875265	1
2	1798	355.039545410721	2
2	1800	355.191719534652	3
2	1801	355.72711216111	2
2	1805	355.762206570692	3
2	1806	356.819523216898	2
2	1809	357.929584600332	1
2	1812	359.104964395168	0
2	1821	360.836277436752	1
2	1822	360.931983531567	0
2	1831	362.837018464161	1
2	1832	362.982617799866	0
2	1836	363.41171295577	1
2	1839	363.970824662617	0
2	1843	364.695148663396	1
2	1844	364.919772094416	0
2	1851	365.923784593639	1
2	1853	366.825865684465	2
2	1854	366.938097154463	1
2	1860	367.374995439791	2
2	1862	367.590918585927	3
2	1864	367.94591949557	4
2	1865	368.035076189528	3
2	1869	368.455632971903	4
2	1871	368.578388735235	5
2	1873	368.712281778097	6
2	1875	368.80374497856	7
2	1877	368.954312413576	8
2	1878	369.085518943819	7
2	1881	369.941336022991	6
2	1885	370.275954636563	7
2	1886	370.992546439565	6
2	1890	371.071981063213	7
2	1892	371.429985556611	8
2	1893	371.876543306208	7
2	1896	372.83398112573	6
2	1899	374.005959865565	5
2	1903	374.491613108198	6
2	1904	374.957111065949	5
2	1907	376.044047045449	4
2	1910	376.905972491784	3
2	1914	377.077657317193	4
2	1916	377.726838441186	5
2	1918	377.933137077375	6
2	1919	377.995425934738	5
2	1924	379.175060811101	4
2	1928	379.209310511212	5
2	1930	380.002493700594	6
2	1932	380.06124497848	7
2	1933	380.268282524517	6
2	1936	381.102589563115	5
2	1940	381.181293619774	6
2	1942	381.321941971993	7
2	1943	382.11280628687	6
2	1947	382.184439738262	7
2	1949	382.767965751036	8
2	1950	383.239353385309	7
2	1954	383.85869873901	8
2	1956	384.166876311347	9
2	1957	384.422586226484	8
2	1961	385.144601262274	9
2	1962	385.394228209855	8
2	1966	385.483476494272	9
2	1967	386.373638045343	8
2	1970	387.185520469139	7
2	1974	387.202714485673	8
2	1976	387.536085598642	9
2	1977	388.381895168519	8
2	1980	389.186464116184	7
2	1983	390.110472963212	6
2	1986	391.280675989596	5
2	1989	392.212797326429	4
2	1993	392.596054591757	5
2	1995	392.967056885096	6
2	1997	393.099125048373	7
2	1999	393.248115488861	8
2	2000	393.26764565252	7
2	2004	393.467218428035	8
2	2005	394.446418220943	7
2	2009	395.514517430367	8
2	2010	395.60124823807	7
2	2013	396.71972029621	6
2	2016	397.545892064574	5
2	2020	397.862929277054	6
2	2022	398.177022302545	7
2	2023	398.632707516684	6
2	2027	398.785663704441	7
2	2028	399.493301000654	6
2	2032	400.305354546851	7
2	2034	400.335024961687	8
2	2035	400.389716939743	7
2	2038	401.393267678398	6
2	2042	402.031832237601	7
2	2044	402.042266529394	8
2	2046	402.382408318065	9
2	2047	402.4136544822	8
2	2051	402.779054194505	9
2	2053	402.848102861001	10
2	2056	403.545050917029	9
2	2060	403.570415470507	10
2	2061	404.518658084537	9
2	2066	405.674928841203	8
2	2070	405.862815663655	9
2	2072	406.151012936764	10
2	2074	406.449987605182	11
2	2075	406.561422965604	10
2	2079	407.334407196688	11
2	2080	407.476512366648	10
2	2084	407.764106993061	11
2	2085	408.40972667646	10
2	2089	408.662110267344	11
2	2090	409.22377119914	10
2	2094	409.339166418227	11
2	2095	410.16694773326	10
2	2100	411.35373741465	9
2	2104	411.644702095622	10
2	2106	412.146642614291	11
2	2107	412.303047568	10
2	2111	413.191560259457	11
2	2112	413.22762429437	10
2	2115	414.132950469315	9
2	2119	415.144954143528	10
2	2120	415.233844862994	9
2	2124	415.274247138377	10
2	2125	416.320529865962	9
2	2129	416.94342518538	10
2	2130	417.432350801047	9
2	2134	418.304117302579	10
2	2135	418.438387898564	9
2	2139	418.693346512721	10
2	2140	419.281254069622	9
2	2143	420.10568333913	8
2	2147	420.155571094769	9
2	2148	421.251656552333	8
2	2152	421.407858818924	9
2	2153	422.146550232101	8
2	2157	422.709592149393	9
2	2160	423.189556517567	8
2	2163	424.388375375069	7
2	2167	425.214248115567	8
2	2168	425.394744958471	7
2	2171	426.319164688348	6
2	2175	426.934292123606	7
2	2176	427.466517936274	6
2	2180	428.56156814206	7
2	2181	428.591950994938	6
2	2185	429.248357842906	7
2	2186	429.782232489924	6
2	2190	430.826919139079	7
2	2192	430.843261336726	8
2	2193	430.973599292639	7
2	2197	431.421178675026	8
2	2198	432.161799392778	7
2	2202	432.292705852585	8
2	2204	432.318742018284	9
2	2206	432.828920930726	10
2	2208	433.288268760354	11
2	2209	433.310046370629	10
2	2213	433.45812838877	11
2	2215	433.978001414852	12
2	2216	434.351489360839	11
2	2220	434.897966634085	12
2	2222	435.068369940711	13
2	2225	435.358166722137	12
2	2228	436.515316343143	11
2	2232	437.663433852357	12
2	2233	437.705507879726	11
2	2239	438.554566320747	12
2	2240	438.78718244836	11
2	2244	439.224516239762	12
2	2245	439.764363630044	11
2	2248	440.665584725442	10
2	2252	441.390075945665	11
2	2253	441.556782246123	10
2	2257	442.623343921245	11
2	2258	442.710007726236	10
2	2262	442.892746305182	11
2	2264	443.469042610974	12
2	2265	443.802402246206	11
2	2269	444.559683507411	12
2	2270	444.698112213819	11
2	2274	444.735278354111	12
2	2276	445.110372917923	13
2	2277	445.739044952414	12
2	2280	446.765606092683	11
2	2283	447.6112296371	10
2	2286	448.620897640961	9
2	2290	449.070496435615	10
2	2291	449.452562410033	9
2	2295	449.767696102859	10
2	2297	449.895604766294	11
2	2299	450.205669989313	12
2	2300	450.486094836446	11
2	2304	451.559569277008	12
2	2305	451.594631995934	11
2	2309	452.014626420568	12
2	2311	452.170714646001	13
2	2312	452.654724544308	12
2	2316	452.754883598711	13
2	2317	453.544368243425	12
2	2321	454.019903991095	13
2	2323	454.250660839623	14
2	2325	454.334362472925	15
2	2326	454.349312582075	14
2	2330	455.22866163333	15
2	2331	455.231468706693	14
2	2336	456.256083199311	13
2	2340	456.908638545808	14
2	2342	457.132922686411	15
2	2343	457.144315529544	14
2	2346	458.026515811704	13
2	2350	458.427871539149	14
2	2351	459.101851238146	13
2	2355	459.652930709788	14
2	2358	459.986462849401	13
2	2362	460.131329907289	14
2	2363	461.09315366561	13
2	2367	461.614358505179	14
2	2369	461.863185220367	15
2	2370	462.086377874691	14
2	2373	463.10625936028	13
2	2376	464.116029843524	12
2	2380	464.853129361613	13
2	2381	465.265463766385	12
2	2385	465.493279230721	13
2	2387	465.892609348289	14
2	2388	466.153684979793	13
2	2391	467.334958471939	12
2	2395	468.188002757019	13
2	2396	468.220261764828	12
2	2401	469.353488409914	11
2	2405	469.659061912805	12
2	2407	469.758353675178	13
2	2408	470.3837108928	12
2	2411	471.469460951466	11
2	2415	472.149202996674	12
2	2416	472.462220958643	11
2	2422	473.218843497284	12
2	2424	473.244099200781	13
2	2425	473.59577245491	12
2	2429	474.463469551414	13
2	2430	474.552736901421	12
2	2433	475.507564642582	11
2	2437	475.835264429425	12
2	2439	475.924064457248	13
2	2441	476.193719120582	14
2	2442	476.542093038022	13
2	2446	476.813506482166	14
2	2448	477.651669938574	15
2	2449	477.691606266446	14
2	2453	477.702139073982	15
2	2454	478.887673364043	14
2	2458	479.088478935901	15
2	2460	479.510257943918	16
2	2462	479.873084140133	17
2	2463	480.015477508235	16
2	2467	480.943228619118	17
2	2468	481.188701660021	16
2	2471	482.198364663518	15
2	2474	483.169329033907	14
2	2479	484.17643728901	13
2	2483	484.960030275958	14
2	2485	484.988692558756	15
2	2486	485.135881158359	14
2	2490	485.282323833373	15
2	2492	485.69780278016	16
2	2493	486.193166979517	15
2	2497	486.313999792765	16
2	2499	486.664472147555	17
2	2501	486.746709284069	18
2	2502	487.027087626907	17
2	2506	488.009902143001	18
2	2507	488.021891439076	17
2	2511	488.61704820899	18
2	2512	489.154402630239	17
2	2515	490.232704231351	16
2	2519	491.142135830632	17
2	2520	491.143392009217	16
2	2523	492.195839074462	15
2	2526	493.281202693585	14
2	2530	493.894665341217	15
2	2531	494.310923761617	14
2	2535	494.538696937448	15
2	2537	495.278397078169	16
2	2538	495.429109100367	15
2	2542	496.038766086309	16
2	2543	496.458962263282	15
2	2546	497.5273973427	14
2	2550	497.880067806664	15
2	2551	498.662298959888	14
2	2555	498.769875548219	15
2	2557	498.845490136401	16
2	2559	499.529389950351	17
2	2560	499.554122329246	16
2	2564	499.631127532579	17
2	2566	500.033054684776	18
2	2568	500.324778602013	19
2	2569	500.750896490946	18
2	2573	501.250488726227	19
2	2574	501.588771041411	18
2	2577	502.392407020389	17
2	2580	503.515305364991	16
2	2583	504.457422035395	15
2	2586	505.455392525832	14
2	2590	506.145281467521	15
2	2591	506.610095702133	14
2	2595	507.411947902555	15
2	2597	507.487106323082	16
2	2598	507.779788387681	15
2	2602	507.890280782226	16
2	2603	508.916830598863	15
2	2607	509.210676114237	16
2	2609	509.698708174268	17
2	2610	510.085898379164	16
2	2614	510.301118599014	17
2	2615	511.026096322315	16
2	2619	511.054659760376	17
2	2621	511.057367450203	18
2	2623	511.334531376506	19
2	2625	512.05810260945	20
2	2626	512.147155638619	19
2	2629	513.102618174928	18
2	2633	513.309302271043	19
2	2635	513.681362286612	20
2	2636	514.27125542939	19
2	2639	515.371253214798	18
2	2643	516.16484310848	19
2	2644	516.550246660899	18
2	2648	517.262453329005	19
2	2650	517.433762847654	20
2	2651	517.455783900547	19
2	2655	517.875939389915	20
2	2656	518.551040544941	19
2	2659	519.459205816149	18
2	2662	520.449000863194	17
2	2665	521.472442382968	16
2	2669	522.159347016	17
2	2670	522.274981371242	16
2	2673	523.382812078319	15
2	2677	523.80650560625	16
2	2678	524.477528674643	15
2	2682	525.243849257369	16
2	2684	525.298027520923	17
2	2685	525.310503437485	16
2	2688	526.255860713239	15
2	2692	526.740939428239	16
2	2693	527.152559057552	15
2	2697	527.19644208111	16
2	2699	527.253879637669	17
2	2701	527.815466957182	18
2	2702	528.247125906892	17
2	2706	528.411076661685	18
2	2708	529.106570281141	19
2	2709	529.407456162967	18
2	2712	530.395008680154	17
2	2718	531.484797894646	18
2	2719	531.527426666137	17
2	2725	532.248762246812	18
2	2726	532.430779889994	17
2	2729	533.583620386221	16
2	2733	533.815126569537	17
2	2734	534.766671582614	16
2	2738	534.874573672005	17
2	2740	535.144294123687	18
2	2742	535.275796928593	19
2	2743	535.627014438179	18
2	2747	535.967108797377	19
2	2749	536.264736441231	20
2	2751	536.437876360226	21
2	2752	536.797276181192	20
2	2757	537.760452190065	19
2	2761	538.727091786354	20
2	2762	538.958945096214	19
2	2766	539.530472628976	20
2	2767	539.956752630626	19
2	2771	540.240670114928	20
2	2773	540.426612669554	21
2	2774	540.762793262419	20
2	2778	541.77901384068	21
2	2779	541.881388461799	20
2	2783	542.609308175852	21
2	2784	542.769251489755	20
2	2787	543.863226478383	19
2	2790	545.005185231961	18
2	2794	545.111945162683	19
2	2795	545.946122003089	18
2	2799	546.461798688788	19
2	2800	547.082140568479	18
2	2803	548.119843274935	17
2	2806	549.193008068225	16
2	2810	549.265523146033	17
2	2812	549.27517238215	18
2	2814	549.458633110715	19
2	2815	550.292617991774	18
2	2819	550.801405497394	19
2	2820	551.217511962655	18
2	2824	551.715187444454	19
2	2825	552.092439987159	18
2	2828	553.187631348355	17
2	2832	554.167084666004	18
2	2834	554.27010142164	19
2	2836	554.341421618046	20
2	2837	554.383679400498	19
2	2840	555.346184288545	18
2	2844	556.297239469216	19
2	2845	556.515945929403	18
2	2849	556.949890749402	19
2	2851	557.271185514687	20
2	2852	557.434961859065	19
2	2856	557.864660506858	20
2	2857	558.392118279843	19
2	2860	559.579037659357	18
2	2863	560.454625526371	17
2	2867	560.691652823532	18
2	2869	561.393860047404	19
2	2870	561.429302408102	18
2	2873	562.355411553404	17
2	2877	562.689974909019	18
2	2880	563.227748124136	17
2	2884	563.886477237012	18
2	2885	564.386315127949	17
2	2888	565.484214252348	16
2	2891	566.370248571525	15
2	2895	566.764122410794	16
2	2897	567.156516388869	17
2	2898	567.236328955016	16
2	2902	568.000004549961	17
2	2904	568.200397841977	18
2	2905	568.363929681315	17
2	2909	568.764549154527	18
2	2910	569.46947873777	17
2	2913	570.370516076146	16
2	2916	571.198289535309	15
2	2920	571.930766565711	16
2	2921	572.290070357288	15
2	2925	572.950343279931	16
2	2926	573.181838478262	15
2	2929	573.987065924446	14
2	2933	573.987069901139	15
2	2935	574.804775862971	16
2	2936	574.959418363891	15
2	2939	575.843048942018	14
2	2942	576.916465867705	13
2	2946	577.125173994917	14
2	2948	577.413637790104	15
2	2949	578.116180606953	14
2	2953	578.359943214066	15
2	2955	578.528013401014	16
2	2956	579.287744654643	15
2	2960	579.78474858643	16
2	2961	580.216974020491	15
2	2964	581.128639975397	14
2	2967	582.192544609608	13
2	2971	583.013676175425	14
2	2974	583.155665580762	13
2	2978	583.766527760939	14
2	2979	584.098796123472	13
2	2982	585.142486848981	12
2	2986	586.059891831325	13
2	2987	586.309692904559	12
2	2991	587.313506085398	13
2	2992	587.412876807918	12
2	2996	587.54326741625	13
2	2998	588.469479143288	14
2	2999	588.470151431971	13
2	3003	589.154893191638	14
2	3005	589.306148158815	15
2	3006	589.532926570643	14
2	3010	589.652885220768	15
2	3012	590.015135555781	16
2	3014	590.086841967024	17
2	3015	590.389431904368	16
2	3019	590.421830440116	17
2	3020	591.234225250613	16
2	3024	591.827584679804	17
2	3025	592.200211009216	16
2	3028	593.3354462648	15
2	3031	594.37946323596	14
2	3035	595.153016619412	15
2	3036	595.523465207052	14
2	3040	595.540835992609	15
2	3041	596.423151450251	14
2	3045	597.157086150791	15
2	3047	597.1865613818	16
2	3048	597.458170438391	15
2	3052	597.470285383819	16
2	3054	597.537525362132	17
2	3055	598.551500704159	16
2	3058	599.6204725465	15
2	3061	600.671846534052	14
2	3065	600.827635745463	15
2	3067	601.070123918664	16
2	3069	601.484252428866	17
2	3070	601.488387900424	16
2	3074	601.500929365996	17
2	3075	602.474239586965	16
2	3078	603.337427193598	15
2	3082	604.17191392385	16
2	3083	604.329920682703	15
2	3086	605.370055391473	14
2	3090	605.62497997976	15
2	3092	605.701459340444	16
2	3094	606.286436627057	17
2	3095	606.530456710999	16
2	3099	606.708020890408	17
2	3103	607.363762493368	18
2	3104	607.601253824608	17
2	3108	607.735503464863	18
2	3109	608.423038224896	17
2	3113	608.815548490039	18
2	3115	609.137377487653	19
2	3116	609.377411347648	18
2	3120	609.976351810404	19
2	3121	610.565441394245	18
2	3124	611.548821164502	17
2	3127	612.6418452427	16
2	3131	613.125047768231	17
2	3133	613.620911819106	18
2	3134	613.731568152758	17
2	3138	614.069365473481	18
2	3140	614.096739839222	19
2	3142	614.192335876282	20
2	3144	614.452521224987	21
2	3145	614.762027553863	20
2	3148	615.73285458295	19
2	3152	616.0319644175	20
2	3154	616.267880764875	21
2	3156	616.326151026607	22
2	3158	616.506609420287	23
2	3159	616.773442159242	22
2	3162	617.580703986364	21
2	3166	617.944457380631	22
2	3168	618.372674236731	23
2	3171	618.64114046341	22
2	3175	619.256654958897	23
2	3176	619.462835576033	22
2	3179	620.344294308426	21
2	3183	620.480077749487	22
2	3184	621.181764468758	21
2	3188	621.350786155364	22
2	3189	622.371974854006	21
2	3193	623.230666635358	22
2	3194	623.516037149655	21
2	3198	624.032227694044	22
2	3199	624.71302062778	21
2	3203	625.548356297817	22
2	3204	625.620769565946	21
2	3208	626.487957022311	22
2	3209	626.773343152108	21
2	3213	626.785328076788	22
2	3214	627.931029694176	21
2	3218	628.61139015234	22
2	3219	628.858541567831	21
2	3222	629.806856673511	20
2	3226	629.908371063509	21
2	3228	630.477952864425	22
2	3229	630.740651034771	21
2	3233	630.911248017519	22
2	3234	631.735870779327	21
2	3237	632.667873930021	20
2	3241	633.312630062087	21
2	3243	633.554012195382	22
2	3244	633.564090494181	21
2	3247	634.449680343199	20
2	3251	634.752731507315	21
2	3252	635.443153646144	20
2	3256	635.70098103673	21
2	3258	636.122572036506	22
2	3259	636.389072826712	21
2	3263	636.393140176479	22
2	3265	636.573689638113	23
2	3266	637.274692629019	22
2	3270	637.842471997787	23
2	3271	638.241274297537	22
2	3275	639.077546025826	23
2	3276	639.371101985706	22
2	3279	640.171147225725	21
2	3283	640.816529231734	22
2	3285	640.909273953899	23
2	3287	641.055040810001	24
2	3288	641.36360989895	23
2	3291	642.319087999522	22
2	3295	643.123619193951	23
2	3296	643.376469531956	22
2	3300	643.862656187513	23
2	3301	644.228631356566	22
2	3304	645.070284180923	21
2	3308	645.95242639967	22
2	3309	646.137769588011	21
2	3313	646.515982586334	22
2	3314	646.985404163713	21
2	3318	647.028177211343	22
2	3320	647.664999606	23
2	3321	648.016250396448	22
2	3325	648.233796777148	23
2	3326	648.838105992901	22
2	3330	649.743190946136	23
2	3331	649.95649137676	22
2	3335	650.620788707918	23
2	3336	651.08929096211	22
2	3339	651.96798667053	21
2	3343	652.553828717112	22
2	3344	653.136511387418	21
2	3348	653.173228848937	22
2	3350	653.278419656426	23
2	3352	653.333720518331	24
2	3354	653.869783892244	25
2	3355	653.967626942716	24
2	3358	655.099678271844	23
2	3364	656.173595796205	24
2	3365	656.220272272008	23
2	3369	656.233970472161	24
2	3370	657.136813845786	23
2	3374	657.384780480538	24
2	3375	658.178521837967	23
2	3379	658.843667050177	24
2	3380	659.375534602834	23
2	3384	659.50898723528	24
2	3385	660.20117013056	23
2	3389	660.530857404995	24
2	3390	661.143584535757	23
2	3393	662.128630690856	22
2	3397	662.726926970187	23
2	3398	663.104792691695	22
2	3401	664.244940242751	21
2	3407	664.468304840775	22
2	3409	664.714074526528	23
2	3410	665.217814611664	22
2	3414	666.371218221034	23
2	3415	666.415357144291	22
2	3421	667.276617258744	23
2	3422	667.322691636181	22
2	3425	668.194115882481	21
2	3428	669.095756955186	20
2	3432	669.257825726221	21
2	3435	669.925021260532	20
2	3439	670.176134962927	21
2	3441	670.736083830857	22
2	3442	670.903176247443	21
2	3446	670.959024330345	22
2	3447	671.828654987852	21
2	3451	672.221990637058	22
2	3452	672.708447821367	21
2	3455	673.811888027306	20
2	3458	674.902086598448	19
2	3462	674.948343328643	20
2	3463	676.037945144645	19
2	3467	676.575097104774	20
2	3468	677.234590320776	19
2	3471	678.200486861936	18
2	3475	678.874546477927	19
2	3476	679.275084991588	18
2	3480	679.292978765908	19
2	3481	680.33782967685	18
2	3485	680.56773904732	19
2	3486	681.223132105844	18
2	3490	681.231205671865	19
2	3492	681.755907388334	20
2	3493	682.125156399907	19
2	3498	682.948332785276	18
2	3502	683.704615970983	19
2	3504	683.806259273348	20
2	3506	683.947564416154	21
2	3507	684.052712057923	20
2	3510	685.031871103049	19
2	3514	685.358438109434	20
2	3515	686.055107357838	19
2	3518	687.24788827451	18
2	3522	687.619352652605	19
2	3524	687.888305054729	20
2	3525	688.345303581674	19
2	3528	689.243649156597	18
2	3532	689.366911135576	19
2	3533	690.380531597902	18
2	3537	690.983174762574	19
2	3539	691.137841116749	20
2	3540	691.254265703374	19
2	3544	691.320055659223	20
2	3546	691.816658092148	21
2	3548	692.174625139997	22
2	3549	692.404897847419	21
2	3553	692.745001015432	22
2	3554	693.544210344014	21
2	3558	693.590099096483	22
2	3560	694.18863693983	23
2	3561	694.576999065486	22
2	3565	694.767554357411	23
2	3567	694.885937453188	24
2	3568	695.462526274492	23
2	3572	695.780376392363	24
2	3573	696.377165401001	23
2	3576	697.550544926078	22
2	3579	698.582955750749	21
2	3582	699.480724571385	20
2	3585	700.554465229828	19
2	3589	700.673978814572	20
2	3591	700.753990000794	21
2	3593	701.377727082325	22
2	3594	701.720193374455	21
2	3600	702.022931941352	22
2	3601	702.575795588009	21
2	3605	702.701193746903	22
2	3607	702.73359991908	23
2	3608	703.714326522704	22
2	3612	703.928095072701	23
2	3613	704.585741357058	22
2	3616	705.5377773083	21
2	3619	706.349896581769	20
2	3623	706.434113111445	21
2	3625	706.636410748608	22
2	3626	707.507136528865	21
2	3630	707.874939706555	22
2	3631	708.312020804473	21
2	3635	708.316157806659	22
2	3636	709.148632006925	21
2	3640	709.318070616653	22
2	3641	710.103143570591	21
2	3645	710.24028482105	22
2	3647	710.479115551635	23
2	3648	711.01688734714	22
2	3651	712.20994917594	21
2	3659	712.540315693608	22
2	3660	713.343776026667	21
2	3663	714.368827735745	20
2	3667	714.383114626236	21
2	3668	715.182947812435	20
2	3672	715.758856894532	21
2	3674	715.897440907296	22
2	3675	716.155740197395	21
2	3679	716.269863468011	22
2	3681	716.512104548843	23
2	3682	717.155661230368	22
2	3686	717.654012148324	23
2	3688	717.924285845873	24
2	3689	718.114265157675	23
2	3692	719.085295335875	22
2	3695	720.124930943755	21
2	3699	720.621353870302	22
2	3700	720.963408144025	21
2	3703	721.843303629218	20
2	3706	722.677932670268	19
2	3710	722.713737083683	20
2	3714	723.354628986218	21
2	3715	723.769560216668	20
2	3719	724.218140026725	21
2	3721	724.277960249542	22
2	3722	724.616265324804	21
2	3726	724.767831351807	22
2	3727	725.737778475157	21
2	3730	726.689441105838	20
2	3734	727.498617977331	21
2	3735	727.603055111433	20
2	3739	728.129298592148	21
2	3741	728.463758114755	22
2	3742	728.792507870796	21
2	3745	729.789223049509	20
2	3748	730.741740573964	19
2	3752	730.95756713902	20
2	3754	731.692637685501	21
2	3757	731.896966724026	20
2	3760	732.910660207572	19
2	3763	733.842664891409	18
2	3767	733.907870285079	19
2	3769	734.024438615395	20
2	3771	734.915145338117	21
2	3772	734.963277193738	20
2	3776	735.880956342189	21
2	3777	736.112344189009	20
2	3780	737.125908945522	19
2	3784	737.644316433384	20
2	3785	738.279437502681	19
2	3789	739.051538679126	20
2	3790	739.464387458211	19
2	3794	739.946815108865	20
2	3795	740.421599332264	19
2	3799	740.829225261057	20
2	3800	741.49386865536	19
2	3803	742.653638081087	18
2	3806	743.790098337664	17
2	3810	744.320144738964	18
2	3812	744.439728256221	19
2	3814	744.684023528665	20
2	3815	744.738997563834	19
2	3819	745.556315510303	20
2	3820	745.587693166102	19
2	3824	745.788813214137	20
2	3826	745.993386584117	21
2	3827	746.420186921789	20
2	3830	747.326945218558	19
2	3834	747.733437430985	20
2	3836	748.393462710112	21
2	3837	748.421796404219	20
2	3842	749.430578145313	19
2	3845	750.362658263392	18
2	3848	751.528278216927	17
2	3852	752.352438415413	18
2	3853	752.685793601929	17
2	3856	753.587860633547	16
2	3860	753.61952179829	17
2	3862	753.779192377675	18
2	3864	754.124027537144	19
2	3865	754.669875359277	18
2	3869	754.804940410919	19
2	3871	754.810207587345	20
2	3872	755.525846489447	19
2	3876	755.969500961199	20
2	3877	756.368424689698	19
2	3881	756.488701851313	20
2	3882	757.256743614583	19
2	3886	757.834849137167	20
2	3887	758.265523931871	19
2	3891	758.483871525487	20
2	3892	759.448221135347	19
2	3896	759.762781368123	20
2	3899	760.56526869938	19
2	3904	761.575336814693	18
2	3908	761.895664922486	19
2	3909	762.457543555296	18
2	3913	762.728523802699	19
2	3914	763.366261698793	18
2	3918	763.373601957371	19
2	3919	764.564973437249	18
2	3922	765.658307438459	17
2	3925	766.717162697319	16
2	3929	767.102536363502	17
2	3930	767.730812661186	16
2	3934	767.802542715183	17
2	3936	768.069227513909	18
2	3938	768.428543046264	19
2	3939	768.924951098696	18
2	3943	769.694893827061	19
2	3945	769.933064750002	20
2	3946	769.981192941148	19
2	3950	770.588093136939	20
2	3951	771.014986234926	19
2	3955	771.221327673679	20
2	3957	771.368044716608	21
2	3958	772.187756713316	20
2	3961	773.309520841692	19
2	3965	773.324016041541	20
2	3966	774.445273247291	19
2	3970	774.813352178523	20
2	3971	775.490788424411	19
2	3974	776.529625337408	18
2	3978	776.712100311257	19
2	3979	777.339535726165	18
2	3982	778.1824370906	17
2	3986	778.911615956733	18
2	3987	779.355398974592	17
2	3990	780.478288400198	16
2	3994	781.008409186102	17
2	3996	781.282457508031	18
2	3997	781.543289615704	17
2	4000	782.355174328784	16
2	4003	783.303131510808	15
2	4007	784.465122268684	16
2	4008	784.472053618568	15
2	4012	785.036088672946	16
2	4013	785.620474541957	15
2	4016	786.471943078401	14
2	4020	786.877493190849	15
2	4021	787.552111920553	14
2	4025	788.388912354101	15
2	4027	788.418547397375	16
2	4028	788.692024662371	15
2	4032	789.031986301644	16
2	4034	789.570147903242	17
2	4035	789.754702681049	16
2	4039	790.477266700347	17
2	4041	790.70656245795	18
2	4042	790.839566907778	17
2	4045	791.850501254133	16
2	4049	791.928331535107	17
2	4051	792.456959002274	18
2	4052	793.045898322321	17
2	4056	793.640494274885	18
2	4057	794.132099139809	17
2	4061	794.197790915605	18
2	4062	795.163708358377	17
2	4066	795.86050650108	18
2	4068	796.004707896477	19
2	4069	796.028790283788	18
2	4073	796.949604469547	19
2	4075	797.119654919294	20
2	4076	797.207970723629	19
2	4080	797.620317832231	20
2	4081	798.105116449323	19
2	4087	798.377275460307	20
2	4088	799.050728319146	19
2	4092	799.160249759788	20
2	4093	799.922532630738	19
2	4096	800.903001493335	18
2	4099	801.777599706061	17
2	4102	802.970991380632	16
2	4106	803.643624374969	17
2	4107	803.969079516389	16
2	4111	804.097161861015	17
2	4113	804.562200617701	18
2	4115	804.846335104434	19
2	4116	804.922637651329	18
2	4119	806.046016865716	17
2	4123	806.702857489881	18
2	4124	806.897378319529	17
2	4128	807.766159728799	18
2	4129	807.768978581325	17
2	4133	808.261417529397	18
2	4134	808.694586226092	17
2	4138	809.778235573035	18
2	4139	809.858514152029	17
2	4143	810.280136687164	18
2	4144	810.721052224775	17
2	4148	811.338945744326	18
2	4149	811.762774326959	17
2	4153	812.045793773905	18
2	4155	812.2397171776	19
2	4156	812.752689231959	18
2	4160	812.974740635502	19
2	4162	813.343903838954	20
2	4163	813.906882927035	19
2	4166	814.788508387123	18
2	4169	815.838147320998	17
2	4172	816.727886592996	16
2	4178	817.142479410775	17
2	4180	817.605364634272	18
2	4181	817.717137671289	17
2	4185	818.057045417048	18
2	4187	818.605682304744	19
2	4188	818.807527752806	18
2	4192	818.810391573383	19
2	4197	819.807213547107	18
2	4201	819.838014145252	19
2	4202	820.684938278075	18
2	4206	820.743087365128	19
2	4208	821.349212467641	20
2	4209	821.787310114342	19
2	4213	822.065409048161	20
2	4214	822.900051062486	19
2	4218	823.850053328995	20
2	4219	824.045591373394	19
2	4223	824.363915695399	20
2	4224	825.078191844492	19
2	4228	825.081348339186	20
2	4230	825.532139849819	21
2	4232	826.193338833269	22
2	4233	826.249744574471	21
2	4236	827.281512291661	20
2	4239	828.421179551376	19
2	4243	828.873469373944	20
2	4244	829.444802261727	19
2	4248	829.650336580901	20
2	4249	830.381633838942	19
2	4253	830.486421088042	20
2	4255	831.193774404691	21
2	4257	831.344461024781	22
2	4258	831.52590844615	21
2	4261	832.326028639568	20
2	4267	832.471856205271	21
2	4269	832.694773593345	22
2	4270	833.365886582831	21
2	4273	834.302795476491	20
2	4276	835.319202096971	19
2	4280	835.749962417457	20
2	4282	836.065253823795	21
2	4283	836.192382702349	20
2	4287	837.067005528881	21
2	4288	837.084673770821	20
2	4292	837.658786578882	21
2	4293	837.965645073938	20
2	4297	838.300183216952	21
2	4298	839.100984280209	20
2	4301	840.027545658524	19
2	4305	840.427577005218	20
2	4306	840.937293873287	19
2	4310	840.940292476348	20
2	4312	841.00988780143	21
2	4314	841.841369858331	22
2	4316	841.965031428423	23
2	4317	842.076575712885	22
2	4321	842.591594590143	23
2	4322	842.882751642379	22
2	4326	842.890811190108	23
2	4328	843.204605988977	24
2	4329	843.75200570936	23
2	4333	843.865787537918	24
2	4335	844.423367835126	25
2	4336	844.591115941411	24
2	4340	844.788079539435	25
2	4341	845.630711648638	24
2	4345	845.782053027206	25
2	4347	846.618193618337	26
2	4348	846.633445550247	25
2	4352	847.262746210804	26
2	4354	847.319726531063	27
2	4355	847.821959954432	26
2	4359	848.722486163379	27
2	4360	848.864432629502	26
2	4366	849.173643719021	27
2	4367	850.052377797874	26
2	4371	850.347133191325	27
2	4373	850.398054417627	28
2	4374	850.86369917656	27
2	4378	851.359031478324	28
2	4379	851.920665160964	27
2	4382	852.757805292054	26
2	4386	853.126708374934	27
2	4388	853.275249675661	28
2	4389	853.80619823069	27
2	4393	854.22815654332	28
2	4394	854.9034756033	27
2	4398	855.278774973218	28
2	4399	855.715755628074	27
2	4402	856.877107491089	26
2	4406	857.197599883349	27
2	4407	857.99100354605	26
2	4410	858.931355417079	25
2	4413	860.093693149953	24
2	4416	861.26630379765	23
2	4422	861.595296839918	24
2	4424	861.881235406911	25
2	4425	862.181378145541	24
2	4429	862.402482821093	25
2	4431	862.691850785282	26
2	4432	863.083661748308	25
2	4436	863.322135226928	26
2	4437	864.07873726201	25
2	4441	864.114869707963	26
2	4442	865.264747219279	25
2	4446	865.534900868145	26
2	4448	865.858427423903	27
2	4449	866.406532256424	26
2	4452	867.342884924661	25
2	4456	867.806502531092	26
2	4458	867.83470695274	27
2	4460	868.036123791987	28
2	4461	868.491845403544	27
2	4464	869.45380845594	26
2	4468	869.507922591709	27
2	4469	870.565060385342	26
2	4472	871.729052990235	25
2	4475	872.761094411581	24
2	4479	873.466358772675	25
2	4480	873.761810712448	24
2	4483	874.608225197836	23
2	4487	874.794678441962	24
2	4489	875.275593911084	25
2	4490	875.691477334432	24
2	4494	875.807284887609	25
2	4495	876.567832407474	24
2	4499	877.154305814617	25
2	4500	877.426246810916	24
2	4504	878.301133442406	25
2	4506	878.375929950725	26
2	4507	878.378699404027	25
2	4511	879.09654167964	26
2	4513	879.354592898798	27
2	4515	879.38726857391	28
2	4517	879.407142664383	29
2	4518	879.526944090265	28
2	4522	879.695853133272	29
2	4523	880.674944700419	28
2	4526	881.499722665667	27
2	4531	882.564427539452	26
2	4535	882.577922713462	27
2	4537	882.930544266742	28
2	4539	883.473204588163	29
2	4541	883.520216964758	30
2	4542	883.642236595905	29
2	4546	884.018672319856	30
2	4547	884.562125428791	29
2	4551	885.072675400931	30
2	4552	885.700746383636	29
2	4555	886.759084717395	28
2	4558	887.661916685781	27
2	4562	887.804201172375	28
2	4563	888.747005150026	27
2	4567	889.18340846684	28
2	4568	889.885852785526	27
2	4571	891.031701289142	26
2	4575	891.27860005013	27
2	4577	891.722191610428	28
2	4578	892.091218480399	27
2	4582	892.905525678988	28
2	4583	893.278397463473	27
2	4587	893.357886862459	28
2	4590	894.451205020702	27
2	4594	894.904352506318	28
2	4596	895.232493244063	29
2	4597	895.517640539749	28
2	4601	895.750714578052	29
2	4603	896.073907894851	30
2	4604	896.367733547116	29
2	4607	897.233985816898	28
2	4611	897.889239075724	29
2	4612	898.282092132537	28
2	4615	899.476147378167	27
2	4619	900.342286007253	28
2	4621	900.461948907887	29
2	4622	900.501584449341	28
2	4626	901.269822801084	29
2	4627	901.697880781931	28
2	4631	902.385886593249	29
2	4632	902.80619450456	28
2	4637	903.874539555819	27
2	4641	904.493962394426	28
2	4642	904.878031978593	27
2	4646	905.689263543146	28
2	4647	905.907834561937	27
2	4650	907.061575572122	26
2	4654	907.641822050439	27
2	4656	907.859305338241	28
2	4657	907.903088906244	27
2	4661	907.954878619756	28
2	4662	908.864049682789	27
2	4666	909.675070629239	28
2	4667	909.789237509784	27
2	4671	909.882345735573	28
2	4673	910.084943622893	29
2	4674	910.661422999133	28
2	4677	911.690492162876	27
2	4681	912.254562476989	28
2	4683	912.49145236264	29
2	4685	912.543065201766	30
2	4686	912.608425853424	29
2	4690	913.212296308575	30
2	4693	913.587616073828	29
2	4697	914.256653144801	30
2	4698	914.446377262495	29
2	4702	914.896069357583	30
2	4703	915.584886879682	29
2	4707	915.930326273282	30
2	4709	916.293037767324	31
2	4710	916.771845310762	30
2	4713	917.692439825855	29
2	4717	917.810408462983	30
2	4719	918.240796234619	31
2	4721	918.257977365102	32
2	4722	918.608681542449	31
2	4725	919.6140688129	30
2	4728	920.721769732353	29
2	4732	921.079145630738	30
2	4733	921.60204737524	29
2	4738	922.480854969774	28
2	4742	923.253876288535	29
2	4743	923.460881918878	28
2	4746	924.518342514173	27
2	4749	925.34178203207	26
2	4752	926.236744864867	25
2	4756	926.335661888074	26
2	4758	926.876151333512	27
2	4759	927.279662802094	26
2	4763	927.600499750846	27
2	4765	927.899665458129	28
2	4767	928.167494159191	29
2	4768	928.383172181645	28
2	4772	928.832409653835	29
2	4773	929.36171485635	28
2	4777	930.304771134079	29
2	4778	930.336054122751	28
2	4782	931.345461850795	29
2	4783	931.355863080197	28
2	4787	932.343979291408	29
2	4788	932.473718113848	28
2	4791	933.601482785237	27
2	4795	934.509008790477	28
2	4796	934.655695142713	27
2	4800	935.553763052182	28
2	4801	935.817994799674	27
2	4805	936.033698186979	28
2	4807	936.036577842323	29
2	4809	936.587228893834	30
2	4811	936.622824366391	31
2	4812	937.014871158287	30
2	4816	937.463410912921	31
2	4817	937.978385134623	30
2	4821	938.479547185375	31
2	4823	938.789960011336	32
2	4824	938.791701698606	31
2	4828	939.375986295762	32
2	4830	939.47553875009	33
2	4831	939.837323576422	32
2	4835	940.404229239869	33
2	4837	940.539496904454	34
2	4838	940.99116290242	33
2	4842	941.54393388081	34
2	4843	941.974997667154	33
2	4847	942.356759650163	34
2	4848	943.035997450096	33
2	4852	943.090027349763	34
2	4853	943.913709284109	33
2	4857	944.059853925193	34
2	4858	944.718237780617	33
2	4863	945.634577003145	32
2	4869	946.087435543197	33
2	4871	946.226063066726	34
2	4872	946.445920001367	33
2	4876	947.121383829459	34
2	4877	947.362042335352	33
2	4881	947.429510801076	34
2	4882	948.362204812678	33
2	4886	949.195778186078	34
2	4887	949.426703952091	33
2	4891	949.57911135044	34
2	4892	950.341536405521	33
2	4896	951.016931979009	34
2	4897	951.229805596663	33
2	4901	952.159057986445	34
2	4902	952.397901465116	33
2	4906	952.860116702937	34
2	4907	953.591777038971	33
2	4911	954.166426304589	34
2	4912	954.615636861069	33
2	4916	955.210817504806	34
2	4917	955.524416587712	33
2	4923	955.959469534792	34
2	4925	956.171375405703	35
2	4926	956.49711478774	34
2	4931	957.471282496048	33
2	4935	958.448600512432	34
2	4936	958.529099817691	33
2	4940	958.754474137868	34
2	4941	959.542251427775	33
2	4945	959.673430496334	34
2	4947	960.040656836641	35
2	4948	960.606526373444	34
2	4952	960.710321618668	35
2	4954	961.433662045356	36
2	4955	961.519685244026	35
2	4959	961.828476711222	36
2	4960	962.706649489446	35
2	4964	963.283321185721	36
2	4965	963.524276442198	35
2	4969	963.802247103018	36
2	4971	963.803817322692	37
2	4973	963.846754205272	38
2	4974	964.531882283209	37
2	4978	964.671124633332	38
2	4979	965.376483925829	37
2	4984	966.251333380515	36
2	4988	967.035132975258	37
2	4989	967.178589178832	36
2	4992	968.126519932529	35
2	4996	968.568729295221	36
2	4997	969.206034637546	35
2	5001	969.964590751391	36
2	5003	970.15326683495	37
2	5004	970.356201346336	36
2	5007	971.160539244047	35
2	5011	971.545659460888	36
2	5012	971.961446850027	35
2	5016	972.694586130985	36
2	5017	972.974197339851	35
2	5020	974.055086770866	34
2	5024	974.199487618556	35
2	5025	974.99051728484	34
2	5029	975.725613691442	35
2	5030	976.090371860496	34
2	5034	976.444618978591	35
2	5036	976.712667571234	36
2	5038	976.742436784644	37
2	5039	977.176294233675	36
2	5045	977.83660793591	37
2	5046	978.145909249621	36
2	5051	979.275576739597	35
2	5055	979.303440217761	36
2	5057	980.18983154363	37
2	5058	980.246643010459	36
2	5062	980.3648710937	37
2	5063	981.317268053561	36
2	5069	982.138752043992	37
2	5070	982.425839791845	36
2	5074	982.776498762609	37
2	5076	983.042586347488	38
2	5077	983.249378242555	37
2	5081	983.758011008722	38
2	5082	984.424204952295	37
2	5085	985.530504530228	36
2	5088	986.56093039748	35
2	5092	986.84836849167	36
2	5093	987.733617827787	35
2	5096	988.924383380848	34
2	5100	989.159874407031	35
2	5103	989.869513521927	34
2	5107	989.918848521389	35
2	5109	990.102372204706	36
2	5110	991.0669497479	35
2	5114	991.199811893741	36
2	5117	992.090837130348	35
2	5120	992.940288864008	34
2	5124	993.746007955998	35
2	5125	993.917814788992	34
2	5129	994.83082554826	35
2	5131	994.982899950088	36
2	5133	995.047917504049	37
2	5134	995.108588486283	36
2	5138	995.323581774959	37
2	5139	996.008140183917	36
2	5143	996.470173051883	37
2	5144	997.184827099207	36
2	5148	997.994061227873	37
2	5149	998.314792375664	36
2	5152	999.195309362679	35
2	5156	999.497184323276	36
2	5158	1000.157731696704	37
2	5159	1000.393666618715	36
2	5163	1000.858655994779	37
2	5165	1001.094107174389	38
2	5166	1001.511593601878	37
2	5170	1002.286863256398	38
2	5171	1002.349116934116	37
2	5174	1003.368223000995	36
2	5178	1003.966103953297	37
2	5179	1004.543456337999	36
2	5183	1004.746303554228	37
2	5185	1004.87944302866	38
2	5186	1005.65663434549	37
2	5190	1006.336940077117	38
2	5191	1006.82748189003	37
2	5195	1007.18404309841	38
2	5197	1007.221502416132	39
2	5198	1007.632866144858	38
2	5201	1008.724056083083	37
2	5205	1009.203076948669	38
2	5206	1009.841499722868	37
2	5209	1011.010855822943	36
2	5212	1011.877625656526	35
2	5216	1011.983477235812	36
2	5217	1012.949693642955	35
2	5221	1013.325859487746	36
2	5222	1013.771785514269	35
2	5226	1014.617008336814	36
2	5227	1014.664820289917	35
2	5230	1015.863361785866	34
2	5234	1015.945049914707	35
2	5236	1016.050622881764	36
2	5237	1016.670299037199	35
2	5241	1017.667860341315	36
2	5242	1017.723863486971	35
2	5247	1018.578727306637	34
2	5251	1018.78519532918	35
2	5252	1019.634217421084	34
2	5255	1020.640268651421	33
2	5259	1020.932366782448	34
2	5261	1020.949487461685	35
2	5262	1021.496991236253	34
2	5266	1021.730157515565	35
2	5267	1022.416837556219	34
2	5270	1023.445738041239	33
2	5275	1024.609461138981	32
2	5278	1025.72458494634	31
2	5282	1026.302792713468	32
2	5283	1026.798872791255	31
2	5287	1027.488656517648	32
2	5288	1027.770557044191	31
2	5291	1028.589877956198	30
2	5294	1029.485320258164	29
2	5298	1030.439698003378	30
2	5299	1030.482303069928	29
2	5303	1030.547776051745	30
2	5304	1031.604666212783	29
2	5308	1032.407081764645	30
2	5309	1032.455946092703	29
2	5313	1032.937990228156	30
2	5314	1033.449573533912	29
2	5317	1034.270100177009	28
2	5321	1034.656673236546	29
2	5322	1035.312844663415	28
2	5325	1036.461091386828	27
2	5329	1037.022033702747	28
2	5330	1037.441900878421	27
2	5333	1038.319411637935	26
2	5336	1039.319386620282	25
2	5341	1040.184352188392	24
2	5345	1040.850743191921	25
2	5347	1041.069235373289	26
2	5348	1041.143244424204	25
2	5352	1041.247036846435	26
2	5354	1041.553620208405	27
2	5355	1042.316984926465	26
2	5358	1043.429874965663	25
2	5362	1043.902685148973	26
2	5364	1043.951733361311	27
2	5365	1044.465798560831	26
2	5371	1044.94272817342	27
2	5372	1045.342958238184	26
2	5376	1045.531245508523	27
2	5378	1046.074931261805	28
2	5380	1046.110469389345	29
2	5381	1046.178458295133	28
2	5384	1047.071549328905	27
2	5388	1047.520691295019	28
2	5390	1047.632620029944	29
2	5392	1047.891223242392	30
2	5394	1048.069054401511	31
2	5395	1048.23691056373	30
2	5398	1049.162800066475	29
2	5401	1050.211588939768	28
2	5404	1051.070287113101	27
2	5408	1051.542438898579	28
2	5409	1052.183324859408	27
2	5413	1052.40212375218	28
2	5415	1052.434337284633	29
2	5416	1053.086393456464	28
2	5420	1053.5964887402	29
2	5422	1053.938802411272	30
2	5424	1054.071881805897	31
2	5425	1054.208687373461	30
2	5430	1055.097622268392	29
2	5435	1055.920541878535	28
2	5439	1056.614214773722	29
2	5440	1056.974033425587	28
2	5443	1058.034441974411	27
2	5446	1058.882444876923	26
2	5450	1059.34827290611	27
2	5451	1059.741094135239	26
2	5455	1060.74111622756	27
2	5456	1060.911653238653	26
2	5459	1061.862865899156	25
2	5463	1062.050273849073	26
2	5465	1062.176325327817	27
2	5466	1062.813540430765	26
2	5470	1062.932146196798	27
2	5472	1063.494084903819	28
2	5473	1063.856092373587	27
2	5476	1064.828793425698	26
2	5479	1065.945014376406	25
2	5483	1066.390541160961	26
2	5485	1066.68727446662	27
2	5488	1067.030636737056	26
2	5491	1067.863287398897	25
2	5497	1068.945901998603	26
2	5498	1069.025635562584	25
2	5502	1069.598102190935	26
2	5504	1069.847479613176	27
2	5505	1070.186727769047	26
2	5509	1070.571229164758	27
2	5510	1071.061763072133	26
2	5514	1071.289534590004	27
2	5516	1071.543384712656	28
2	5517	1071.885282311056	27
2	5521	1071.911778274658	28
2	5523	1072.125591600134	29
2	5525	1072.138937709878	30
2	5527	1072.791589845521	31
2	5528	1073.053392010115	30
2	5532	1073.905275879583	31
2	5533	1074.140432073854	30
2	5537	1074.990404653301	31
2	5538	1075.143415321529	30
2	5542	1075.382623069806	31
2	5545	1076.195224300053	30
2	5549	1076.280206136878	31
2	5551	1076.418639134452	32
2	5552	1077.341882324152	31
2	5555	1078.51498304217	30
2	5559	1078.537376837903	31
2	5561	1079.337660450996	32
2	5562	1079.6814208478	31
2	5568	1080.613057137791	32
2	5569	1080.64603925173	31
2	5572	1081.493344649326	30
2	5575	1082.311287445415	29
2	5578	1083.174707901597	28
2	5582	1084.165613351471	29
2	5583	1084.355277262747	28
2	5587	1084.371668119458	29
2	5589	1085.078580626145	30
2	5590	1085.160646721281	29
2	5594	1085.409235510064	30
2	5596	1085.424973179409	31
2	5597	1086.2845346791	30
2	5601	1086.786206859407	31
2	5602	1087.436094499312	30
2	5606	1088.431264648675	31
2	5607	1088.610391083292	30
2	5611	1089.408188947373	31
2	5613	1089.493002435943	32
2	5616	1089.742967009104	31
2	5622	1090.46620474764	32
2	5623	1090.664040806635	31
2	5626	1091.479321458495	30
2	5630	1091.778597785307	31
2	5632	1092.068324102137	32
2	5634	1092.448056944076	33
2	5635	1092.526700718353	32
2	5639	1093.070043004132	33
2	5640	1093.403207970808	32
2	5644	1093.546409146528	33
2	5646	1093.9635337514	34
2	5647	1094.259007067724	33
2	5650	1095.305454045652	32
2	5653	1096.178586730386	31
2	5657	1096.350327128737	32
2	5659	1096.352084233029	33
2	5661	1096.450041586707	34
2	5662	1097.214546194418	33
2	5666	1097.62392596134	34
2	5668	1097.827412655251	35
2	5669	1098.399869709394	34
2	5673	1098.656449073831	35
2	5675	1098.668174400234	36
2	5677	1099.327444292759	37
2	5678	1099.514784283961	36
2	5681	1100.375186140488	35
2	5685	1100.534125602923	36
2	5686	1101.334219384498	35
2	5690	1101.929717581615	36
2	5691	1102.529518101762	35
2	5697	1103.1120936493	36
2	5699	1103.324885563202	37
2	5700	1103.686476684759	36
2	5704	1104.757865928686	37
2	5705	1104.860743725604	36
2	5709	1105.345730671436	37
2	5710	1105.834641292623	36
2	5713	1106.833826407536	35
2	5716	1107.674240816596	34
2	5720	1107.723136624185	35
2	5722	1108.245999865951	36
2	5723	1108.633122370231	35
2	5727	1109.372183906756	36
2	5728	1109.825575841057	35
2	5731	1110.990506412021	34
2	5735	1111.058954036067	35
2	5737	1111.602209748677	36
2	5738	1112.157786947514	35
2	5741	1113.156274003933	34
2	5745	1114.036958264339	35
2	5746	1114.143518243848	34
2	5750	1114.269783575034	35
2	5751	1115.185088349252	34
2	5754	1116.144366182412	33
2	5758	1116.180941598377	34
2	5760	1116.20700912227	35
2	5761	1117.300774087596	34
2	5765	1117.485681676685	35
2	5766	1118.414744953743	34
2	5769	1119.558359986941	33
2	5773	1120.140702062848	34
2	5774	1120.49355285403	33
2	5777	1121.379896376866	32
2	5781	1122.068688248477	33
2	5783	1122.165700852865	34
2	5784	1122.518145171951	33
2	5787	1123.370439674638	32
2	5791	1124.112791898867	33
2	5792	1124.537305850934	32
2	5796	1124.782206375031	33
2	5797	1125.452981744081	32
2	5800	1126.254203746774	31
2	5803	1127.407973364115	30
2	5806	1128.593973396931	29
2	5810	1128.595961751817	30
2	5812	1128.686453737723	31
2	5814	1128.731845114635	32
2	5816	1128.751520770776	33
2	5817	1129.692816835854	32
2	5820	1130.80684575795	31
2	5823	1131.685958167471	30
2	5826	1132.787909978189	29
2	5829	1133.888665545758	28
2	5833	1134.084966669733	29
2	5835	1134.359723639449	30
2	5836	1134.800152621351	29
2	5839	1135.946091833271	28
2	5842	1137.014448418029	27
2	5845	1137.841478427712	26
2	5848	1138.818014183015	25
2	5851	1139.653888324861	24
2	5854	1140.782424998962	23
2	5858	1141.186662769484	24
2	5859	1141.765375534006	23
2	5863	1142.019818639079	24
2	5865	1142.154332852592	25
2	5866	1142.848433712431	24
2	5870	1142.978074284685	25
2	5871	1143.796506919552	24
2	5875	1144.362843227792	25
2	5877	1144.412313222601	26
2	5878	1144.702283338484	25
2	5882	1145.095783682053	26
2	5883	1145.556268910811	25
2	5887	1146.070744251961	26
2	5889	1146.289923118572	27
2	5890	1146.672942960196	26
2	5894	1146.843651982793	27
2	5896	1146.996521604653	28
2	5897	1147.511973487799	27
2	5901	1147.550512280958	28
2	5903	1147.706309789944	29
2	5904	1148.597814265759	28
2	5908	1149.1353421214	29
2	5910	1149.37958237851	30
2	5911	1149.6169587808	29
2	5916	1150.776008200859	28
2	5920	1151.022327504964	29
2	5922	1151.580190915854	30
2	5923	1151.701930264783	29
2	5927	1152.353114874755	30
2	5928	1152.736702422918	29
2	5931	1153.774121443209	28
2	5935	1154.158236496699	29
2	5937	1154.233339808339	30
2	5938	1154.642450476651	29
2	5942	1155.519780290114	30
2	5943	1155.542685844404	29
2	5947	1156.014328609015	30
2	5949	1156.170665474342	31
2	5951	1156.243945445116	32
2	5952	1156.657277331994	31
2	5956	1157.234338281883	32
2	5957	1157.7119423128	31
2	5961	1158.035010245235	32
2	5962	1158.792933352877	31
2	5968	1159.010305179684	32
2	5969	1159.637291019902	31
2	5973	1159.650811136604	32
2	5975	1159.882495418487	33
2	5976	1160.569253892292	32
2	5979	1161.4438647426	31
2	5983	1161.502336925529	32
2	5987	1161.745375413398	33
2	5988	1162.577595666264	32
2	5992	1163.068759379969	33
2	5993	1163.403798720919	32
2	5996	1164.238483590193	31
2	6000	1164.926123334045	32
2	6001	1165.047443873368	31
2	6005	1165.383313747158	32
2	6006	1166.216812645763	31
2	6009	1167.334214349303	30
2	6013	1167.488854381682	31
2	6015	1167.604423706729	32
2	6017	1168.124933330862	33
2	6018	1168.167615372713	32
2	6022	1168.196386263471	33
2	6024	1168.728538175272	34
2	6027	1169.238291282046	33
2	6031	1169.598727007037	34
2	6032	1170.267700185745	33
2	6036	1170.408797510519	34
2	6038	1170.621519179211	35
2	6039	1171.242919825415	34
2	6042	1172.235630883767	33
2	6046	1172.825557361241	34
2	6048	1172.896544093103	35
2	6050	1173.200851461027	36
2	6051	1173.274954670506	35
2	6055	1173.327877505914	36
2	6057	1173.336766796971	37
2	6058	1174.246983308835	36
2	6061	1175.251419345221	35
2	6064	1176.087155419985	34
2	6068	1176.609150118155	35
2	6070	1176.914010470315	36
2	6071	1177.259115924431	35
2	6074	1178.15356002946	34
2	6078	1178.759880051766	35
2	6080	1178.881127383462	36
2	6081	1178.975540211914	35
2	6085	1179.511684859034	36
2	6086	1180.105241675513	35
2	6090	1180.195252973082	36
2	6091	1181.104126883788	35
2	6094	1181.980580370897	34
2	6097	1182.950421610871	33
2	6101	1183.340094199949	34
2	6102	1183.770190877678	33
2	6106	1184.156375671914	34
2	6108	1184.685364048387	35
2	6109	1184.932391364431	34
2	6113	1185.48941896415	35
2	6114	1186.106447103737	34
2	6118	1186.288431512162	35
2	6120	1186.60817817921	36
2	6121	1187.058161898075	35
2	6125	1187.168512981279	36
2	6126	1188.169438268269	35
2	6130	1188.519287849627	36
2	6131	1189.077316209326	35
2	6135	1189.18730196505	36
2	6136	1189.968277277356	35
2	6140	1190.384870183099	36
2	6141	1190.965200430738	35
2	6145	1191.591956136589	36
2	6146	1192.141406746792	35
2	6150	1192.952947115526	36
2	6151	1193.071397609102	35
2	6155	1193.080047515799	36
2	6157	1193.974194969784	37
2	6159	1194.093360871798	38
2	6160	1194.250743428363	37
2	6164	1194.558604386676	38
2	6165	1195.263446066646	37
2	6169	1196.09399704974	38
2	6170	1196.137683241746	37
2	6173	1197.004960195093	36
2	6177	1197.912458372257	37
2	6178	1198.142496369245	36
2	6182	1198.738395899555	37
2	6183	1199.107947134065	36
2	6187	1199.400580858695	37
2	6189	1199.467284864929	38
2	6191	1200.041773259773	39
2	6193	1200.174174672644	40
2	6194	1200.191843849166	39
2	6197	1200.995606576211	38
2	6200	1202.008687543336	37
2	6204	1202.821505758668	38
2	6205	1203.064627180554	37
2	6208	1203.954665045373	36
2	6212	1204.724875019282	37
2	6213	1205.016904166739	36
2	6217	1205.860762597823	37
2	6218	1205.886388824254	36
2	6222	1205.94098055944	37
2	6224	1206.07668504803	38
2	6226	1206.244814012158	39
2	6227	1206.908304563284	38
2	6233	1206.990613860793	39
2	6234	1208.053188861281	38
2	6238	1208.857871754964	39
2	6239	1209.001244793859	38
2	6243	1209.099889705909	39
2	6244	1210.126178510886	38
2	6248	1210.820852676462	39
2	6249	1211.11308000258	38
2	6253	1211.29836956339	39
2	6256	1211.96036307209	38
2	6260	1212.007244576284	39
2	6261	1212.847241710898	38
2	6264	1213.984339093257	37
2	6267	1215.034713380251	36
2	6270	1216.046669953622	35
2	6274	1216.113723644746	36
2	6276	1216.537970905649	37
2	6277	1217.213130030807	36
2	6281	1217.225037477815	37
2	6282	1218.195633902892	36
2	6286	1218.741959572674	37
2	6288	1218.78066097951	38
2	6289	1219.315824220541	37
2	6292	1220.351735244158	36
2	6295	1221.213938551608	35
2	6299	1221.836555455937	36
2	6301	1222.041396291477	37
2	6302	1222.300326785191	36
2	6306	1222.758317719866	37
2	6307	1223.213414668876	36
2	6311	1223.273357482026	37
2	6312	1224.322675417855	36
2	6316	1224.856251087964	37
2	6317	1225.262325568616	36
2	6321	1225.410222023349	37
2	6322	1226.4182649066	36
2	6326	1226.663275975551	37
2	6327	1227.526690889362	36
2	6330	1228.725174064122	35
2	6334	1229.01311616099	36
2	6335	1229.600995539714	35
2	6339	1230.008864049772	36
2	6340	1230.526431326874	35
2	6344	1230.687270549744	36
2	6345	1231.598831138973	35
2	6349	1232.139461061173	36
2	6351	1232.496889927841	37
2	6352	1232.690386845943	36
2	6356	1233.366741501543	37
2	6357	1233.673998787746	36
2	6361	1234.375909821527	37
2	6362	1234.475073798679	36
2	6366	1234.544684036676	37
2	6367	1235.294096433398	36
2	6371	1236.129076532142	37
2	6372	1236.206520025179	36
2	6376	1236.273276987906	37
2	6377	1237.048579403412	36
2	6381	1237.80874934826	37
2	6382	1238.109548792735	36
2	6385	1239.307428504553	35
2	6388	1240.364487647012	34
2	6394	1241.389212886548	35
2	6395	1241.542246598218	34
2	6398	1242.50954282659	33
2	6402	1242.612171265475	34
2	6404	1243.097774153933	35
2	6406	1243.300415748498	36
2	6407	1243.412908815899	35
2	6411	1243.447278904644	36
2	6413	1244.029387234052	37
2	6414	1244.218483582539	36
2	6417	1245.256735436739	35
2	6421	1245.512627137989	36
2	6422	1246.30608085853	35
2	6426	1246.737047166425	36
2	6427	1247.290806134073	35
2	6432	1248.158985796692	34
2	6436	1248.230038530333	35
2	6437	1249.300261545675	34
2	6440	1250.375478237523	33
2	6444	1250.453984290615	34
2	6447	1251.567867951682	33
2	6450	1252.459824216766	32
2	6454	1253.003239957589	33
2	6455	1253.530201971093	32
2	6459	1253.911610224118	33
2	6460	1254.590171201182	32
2	6464	1254.933347864968	33
2	6466	1255.074037122653	34
2	6467	1255.779864805126	33
2	6471	1255.837282227748	34
2	6473	1256.181195498543	35
2	6474	1256.834365487126	34
2	6478	1257.126878502091	35
2	6479	1257.682826419202	34
2	6483	1257.83711004734	35
2	6485	1258.277130620802	36
2	6486	1258.52096943886	35
2	6489	1259.353920052508	34
2	6493	1259.972406075984	35
2	6494	1260.199275721265	34
2	6498	1260.21388685612	35
2	6501	1261.170514399027	34
2	6505	1261.428364174769	35
2	6506	1262.096732259756	34
2	6510	1262.407671294501	35
2	6511	1263.205757407593	34
2	6515	1263.902402019553	35
2	6516	1264.225947461958	34
2	6520	1264.734804836931	35
2	6522	1265.091053962496	36
2	6523	1265.109363179217	35
2	6527	1265.449400509816	36
2	6528	1266.077517280011	35
2	6532	1266.531658187049	36
2	6534	1266.59329044612	37
2	6535	1266.885657408303	36
2	6538	1267.984021642367	35
2	6542	1268.612665784471	36
2	6543	1268.991832148033	35
2	6547	1269.281814701891	36
2	6548	1269.921242492116	35
2	6551	1270.823333307291	34
2	6555	1271.087580945464	35
2	6557	1271.260930372542	36
2	6560	1271.837066363292	35
2	6564	1272.433342712969	36
2	6566	1272.686665785818	37
2	6568	1272.711595685561	38
2	6569	1272.828195886621	37
2	6573	1273.278226751579	38
2	6574	1273.648461127681	37
2	6578	1274.241003705018	38
2	6579	1274.626048221373	37
2	6583	1275.088088380657	38
2	6585	1275.09958619812	39
2	6586	1275.798895392873	38
2	6589	1276.943501642187	37
2	6593	1277.145153110722	38
2	6594	1277.743611011681	37
2	6598	1278.372868431218	38
2	6599	1278.917375837852	37
2	6604	1279.735693125454	36
2	6608	1279.856862610073	37
2	6609	1280.562784943943	36
2	6613	1280.693569134872	37
2	6614	1281.694792019696	36
2	6618	1282.210481073308	37
2	6619	1282.783919529551	36
2	6624	1283.802841298961	35
2	6628	1284.137752711812	36
2	6629	1284.826101328459	35
2	6633	1285.185352348248	36
2	6634	1285.80035521251	35
2	6638	1285.930800712478	36
2	6640	1286.390273931105	37
2	6641	1286.645585743085	36
2	6645	1287.221457906812	37
2	6647	1287.736014877925	38
2	6648	1287.762171113424	37
2	6652	1287.958689824132	38
2	6654	1288.521592577507	39
2	6655	1288.851053041618	38
2	6659	1288.86934154669	39
2	6661	1288.8863438157	40
2	6662	1289.676605331737	39
2	6666	1290.31123658199	40
2	6667	1290.57365488962	39
2	6671	1290.960185072178	40
2	6672	1291.644104785404	39
2	6675	1292.715055164347	38
2	6679	1293.166404570388	39
2	6680	1293.859346785049	38
2	6684	1294.478042105788	39
2	6686	1294.481344498165	40
2	6687	1294.980745883591	39
2	6691	1295.017121784032	40
2	6692	1296.079666604965	39
2	6698	1296.955918912498	40
2	6700	1297.014427551022	41
2	6701	1297.265378578871	40
2	6707	1298.025860370539	41
2	6709	1298.119465419387	42
2	6710	1298.233903802957	41
2	6714	1298.637307178918	42
2	6715	1299.072832006894	41
2	6718	1299.888022890247	40
2	6722	1300.870113674423	41
2	6723	1300.973362355612	40
2	6727	1300.997878322372	41
2	6729	1301.273010684456	42
2	6731	1301.489108919679	43
2	6732	1301.96898170321	42
2	6735	1302.952071520712	41
2	6739	1303.210601935267	42
2	6740	1303.793700222511	41
2	6744	1303.948948975531	42
2	6746	1304.301338551638	43
2	6747	1304.703509467587	42
2	6751	1305.23695963067	43
2	6752	1305.751268798977	42
2	6756	1306.140188180693	43
2	6757	1306.650911820333	42
2	6760	1307.601305057413	41
2	6764	1308.473291955597	42
2	6766	1308.520697176944	43
2	6767	1308.605758517913	42
2	6771	1309.575169613368	43
2	6772	1309.591809490535	42
2	6776	1309.902332463136	43
2	6777	1310.427392577312	42
2	6780	1311.235134280591	41
2	6784	1311.381970020284	42
2	6785	1312.332869719087	41
2	6789	1312.795416532391	42
2	6790	1313.217504878088	41
2	6794	1313.639893313278	42
2	6795	1314.064619350365	41
2	6799	1314.766255120574	42
2	6800	1314.879708546145	41
2	6803	1316.029786166201	40
2	6806	1317.117799271202	39
2	6810	1317.700116503705	40
2	6811	1318.238822217496	39
2	6815	1319.274786517341	40
2	6816	1319.431436295086	39
2	6820	1319.823487741165	40
2	6822	1320.072946222989	41
2	6823	1320.350021334296	40
2	6827	1320.545916944766	41
2	6828	1321.468686248945	40
2	6831	1322.461919681938	39
2	6835	1322.862496211277	40
2	6837	1322.976158957061	41
2	6838	1323.422666967032	40
2	6842	1324.207727513575	41
2	6843	1324.35004430546	40
2	6848	1325.310768257478	39
2	6852	1325.671455308668	40
2	6854	1325.736260553939	41
2	6855	1326.267056598538	40
2	6858	1327.236124528316	39
2	6862	1328.156514267658	40
2	6865	1328.247822320764	39
2	6869	1328.423465380413	40
2	6870	1329.266246961174	39
2	6874	1329.761156837033	40
2	6876	1330.163525717181	41
2	6878	1330.185896780893	42
2	6879	1330.273761065607	41
2	6883	1330.870072213953	42
2	6885	1331.099798968413	43
2	6886	1331.245778632001	42
2	6889	1332.300273798429	41
2	6892	1333.204512225766	40
2	6896	1333.365573039257	41
2	6898	1333.762436077897	42
2	6899	1334.171561990328	41
2	6903	1334.344466116041	42
2	6905	1335.099499967268	43
2	6907	1335.107118963703	44
2	6908	1335.336913487337	43
2	6912	1335.92564900445	44
2	6914	1335.958805270008	45
2	6916	1336.006489749131	46
2	6918	1336.167815378489	47
2	6919	1336.309046641945	46
2	6922	1337.156558202229	45
2	6926	1337.512011232149	46
2	6927	1338.103266029361	45
2	6931	1338.456826846001	46
2	6932	1338.922766538545	45
2	6935	1339.811254546161	44
2	6938	1340.984277841564	43
2	6942	1341.789856664048	44
2	6943	1342.001817106385	43
2	6947	1342.064833575104	44
2	6949	1342.334629361166	45
2	6951	1342.371251708539	46
2	6953	1342.987186989252	47
2	6955	1342.990439409357	48
2	6956	1343.117618733108	47
2	6959	1344.220016221818	46
2	6963	1344.249559580471	47
2	6965	1344.57526200949	48
2	6966	1345.16816376422	47
2	6970	1345.755390990547	48
2	6972	1345.812792380847	49
2	6973	1346.311691052582	48
2	6977	1346.535698079139	49
2	6978	1347.129238507826	48
2	6981	1348.086533402953	47
2	6985	1348.142109537757	48
2	6986	1349.22245716669	47
2	6990	1349.259607570282	48
2	6991	1350.094924488872	47
2	6995	1350.420301600617	48
2	6996	1351.241879495535	47
2	6999	1352.111760576744	46
2	7002	1352.91676857986	45
2	7006	1352.967474901663	46
2	7008	1353.448353250621	47
2	7009	1353.802185684	46
2	7012	1354.679802458756	45
2	7017	1355.514215129916	44
2	7020	1356.443729898729	43
2	7024	1356.895807083787	44
2	7025	1357.400572948833	43
2	7029	1357.830059919658	44
2	7031	1358.123614414151	45
2	7032	1358.223102722713	44
2	7036	1358.57146105964	45
2	7040	1358.951552359939	46
2	7041	1359.134172325977	45
2	7045	1359.331009834911	46
2	7046	1360.184021958453	45
2	7049	1361.05232211093	44
2	7053	1361.513629745592	45
2	7054	1361.912872288493	44
2	7058	1362.226168807419	45
2	7060	1362.651571485114	46
2	7061	1362.789073902672	45
2	7065	1362.980125844977	46
2	7066	1363.732333075186	45
2	7070	1363.928505043358	46
2	7071	1364.673979735771	45
2	7075	1365.011897504657	46
2	7076	1365.507462918689	45
2	7080	1366.509296470243	46
2	7081	1366.52128053282	45
2	7084	1367.410989502469	44
2	7087	1368.380101388251	43
2	7090	1369.256075702538	42
2	7094	1369.637573964812	43
2	7097	1370.414731796202	42
2	7101	1370.749735742921	43
2	7103	1371.004696274165	44
2	7104	1371.325424970709	43
2	7108	1371.414132274725	44
2	7110	1371.633625416607	45
2	7112	1371.953609046031	46
2	7113	1372.243474944331	45
2	7117	1372.331198996253	46
2	7119	1373.01180670729	47
2	7120	1373.135872169886	46
2	7124	1373.361447374151	47
2	7127	1374.244482041545	46
2	7131	1374.534777148907	47
2	7132	1375.355695214517	46
2	7136	1375.591381704208	47
2	7138	1376.077791472262	48
2	7139	1376.398778731118	47
2	7143	1376.725343280741	48
2	7145	1377.135981244963	49
2	7146	1377.531664613656	48
2	7149	1378.586713045764	47
2	7153	1378.846214941838	48
2	7154	1379.466922092832	47
2	7158	1379.721418094072	48
2	7159	1380.622405849512	47
2	7163	1380.834024643397	48
2	7164	1381.487443351767	47
2	7167	1382.32245165	46
2	7170	1383.464328861165	45
2	7173	1384.273437172475	44
2	7176	1385.307076803057	43
2	7179	1386.21927750597	42
2	7183	1387.151078627643	43
2	7184	1387.294045109695	42
2	7188	1387.499712324969	43
2	7190	1387.904671028477	44
2	7193	1388.342662020048	43
2	7197	1388.642807269323	44
2	7199	1389.172292661312	45
2	7200	1389.319444511572	44
2	7204	1389.66771632153	45
2	7205	1390.172476932054	44
2	7208	1391.309744796456	43
2	7212	1391.609386226582	44
2	7214	1391.686235900899	45
2	7215	1392.374689122123	44
2	7218	1393.436250553393	43
2	7222	1393.889464278478	44
2	7223	1394.591829164346	43
2	7227	1395.195517288801	44
2	7229	1395.375063483042	45
2	7230	1395.582008228378	44
2	7234	1395.772457717248	45
2	7236	1395.882822114531	46
2	7238	1396.160149112532	47
2	7239	1396.492524390129	46
2	7243	1397.34136631332	47
2	7244	1397.578076235225	46
2	7248	1398.231749684414	47
2	7249	1398.613901570087	46
2	7252	1399.482479980142	45
2	7255	1400.509509645329	44
2	7258	1401.507691394371	43
2	7262	1401.989695574365	44
2	7264	1402.011618194294	45
2	7265	1402.30869535992	44
2	7269	1402.437575520402	45
2	7271	1402.689324000373	46
2	7272	1403.253901740835	45
2	7276	1403.56875175752	46
2	7277	1404.435832731818	45
2	7281	1404.582219189463	46
2	7283	1405.308367387697	47
2	7285	1405.319840929143	48
2	7286	1405.522575874739	47
2	7290	1405.721805601202	48
2	7292	1406.284177886823	49
2	7293	1406.715613758583	48
2	7296	1407.863363249991	47
2	7300	1408.566462372332	48
2	7302	1408.603215966061	49
2	7303	1408.804898790475	48
2	7307	1409.248523635283	49
2	7309	1409.257380749649	50
2	7310	1409.79266805958	49
2	7314	1410.722475777616	50
2	7315	1410.958596900962	49
2	7318	1411.889066577349	48
2	7322	1412.025476557734	49
2	7323	1413.006972586289	48
2	7327	1413.453489823119	49
2	7329	1413.903202678905	50
2	7330	1413.986316379178	49
2	7334	1414.658627618982	50
2	7335	1415.138169322181	49
2	7339	1415.567904297938	50
2	7340	1416.271424891818	49
2	7344	1416.609011598969	50
2	7345	1417.239020344633	49
2	7349	1417.449684061855	50
2	7351	1418.034848012884	51
2	7352	1418.352090153302	50
2	7356	1418.416117938692	51
2	7357	1419.386042352877	50
2	7360	1420.418944651652	49
2	7363	1421.315767885484	48
2	7367	1421.673017486917	49
2	7369	1421.994154828889	50
2	7370	1422.491370150466	49
2	7374	1422.563519475897	50
2	7377	1423.611215770357	49
2	7380	1424.465850103759	48
2	7383	1425.357517975588	47
2	7387	1425.771925107351	48
2	7388	1426.399811538235	47
2	7392	1426.413394431337	48
2	7394	1427.35503722382	49
2	7395	1427.555123810117	48
2	7398	1428.537623159048	47
2	7402	1428.554183210415	48
2	7403	1429.423812799641	47
2	7407	1430.076773964346	48
2	7408	1430.601069371981	47
2	7411	1431.592637781539	46
2	7415	1432.346724082845	47
2	7416	1432.666212761329	46
2	7419	1433.565443586392	45
2	7423	1434.097148958475	46
2	7424	1434.43490196841	45
2	7427	1435.34410165718	44
2	7431	1435.585454589979	45
2	7432	1436.33058127884	44
2	7435	1437.45258022791	43
2	7439	1438.275229260593	44
2	7440	1438.308200771289	43
2	7443	1439.159591885025	42
2	7447	1439.203864627464	43
2	7449	1439.459683127513	44
2	7451	1439.79950621738	45
2	7452	1440.168916673607	44
2	7456	1440.575464362203	45
2	7457	1440.982060489545	44
2	7461	1441.006121598982	45
2	7463	1441.209600799019	46
2	7465	1441.251822087496	47
2	7467	1441.473016314062	48
2	7468	1441.93701896921	47
2	7472	1442.23541618321	48
2	7473	1442.764669582827	47
2	7476	1443.755574079158	46
2	7480	1444.082251010101	47
2	7481	1444.809725180848	46
2	7485	1444.863496109139	47
2	7487	1444.931526324272	48
2	7489	1445.51966586133	49
2	7490	1445.712704169771	48
2	7494	1445.955998339267	49
2	7496	1446.45530289627	50
2	7497	1446.806117070021	49
2	7501	1446.901536872152	50
2	7503	1447.534027812686	51
2	7504	1447.908002380488	50
2	7507	1448.963507612256	49
2	7511	1449.216968840299	50
2	7512	1449.881433791594	49
2	7516	1450.087643778194	50
2	7517	1450.843539408894	49
2	7521	1450.847122119853	50
2	7523	1450.978991086761	51
2	7524	1451.876960781516	50
2	7528	1451.918111115528	51
2	7530	1451.967703955723	52
2	7532	1452.166052856986	53
2	7533	1452.760967634545	52
2	7537	1452.896779079762	53
2	7538	1453.686617186313	52
2	7542	1453.999206773472	53
2	7544	1454.469485987373	54
2	7545	1454.716646124908	53
2	7549	1455.460882133498	54
2	7550	1455.689727764131	53
2	7553	1456.840090845545	52
2	7556	1457.65143665515	51
2	7560	1457.710119572003	52
2	7562	1457.74908606911	53
2	7564	1458.321914210366	54
2	7565	1458.576621449759	53
2	7569	1458.631359469095	54
2	7571	1458.836583067582	55
2	7572	1459.74487399554	54
2	7575	1460.641096133107	53
2	7578	1461.61511627447	52
2	7582	1462.089482202307	53
2	7584	1462.170257971359	54
2	7586	1462.58334671216	55
2	7587	1462.597425143068	54
2	7591	1462.601051948186	55
2	7592	1463.733526623921	54
2	7596	1464.150876134216	55
2	7597	1464.612667408233	54
2	7601	1464.632810005083	55
2	7605	1464.758457098811	56
2	7607	1465.061288183227	57
2	7608	1465.419962310438	56
2	7611	1466.565962303729	55
2	7615	1467.431109521529	56
2	7616	1467.669354115353	55
2	7620	1468.41847250624	56
2	7621	1468.531085538232	55
[...]
5	130602	25139.718219252799	1093.5666720137
5	130607	25140.831233963214	12121.369104584
5	130692	25157.277093334621	6726.6813529625
5	130699	25158.334852070207	552.06784054811
5	130724	25163.246458119093	2629.1513825223
5	130756	25169.58353886533	4962.0940627398
5	130772	25173.836140171191	3566.8419135317
5	130857	25190.175284912006	4972.7324481087
5	130889	25195.91299265133	557.69545288168
5	130979	25213.799368484168	5438.3700557038
5	130982	25214.691668752431	5438.2409082395
5	131033	25223.921441398039	1107.3605150873
5	131160	25243.00837976657	2649.3637381871
5	131170	25244.948126783819	2646.9007525784
5	131339	25276.184850141353	3111.481472143
5	131351	25278.242289111431	4555.8518580844
5	131381	25286.289006228505	5454.6959419929
5	131485	25305.228855476195	7633.7647950372
5	131562	25317.808450273093	1106.9881570526
5	131628	25331.403720422596	1110.1744089839
5	131737	25352.622450947336	1633.9127208157
5	131747	25354.410621319286	3623.2493533086
5	131774	25359.055957145098	11284.570906656
5	131802	25364.953662295401	1104.545443487
5	131810	25366.885428688064	555.38071896989
5	131828	25370.911143732856	1103.0017258723
5	131975	25397.603860662638	1635.6385115862
5	131998	25402.078872970159	563.52364728302
5	132213	25442.902088723279	4580.624312613
5	132378	25474.884225954902	1115.0825875492
5	132423	25481.391271067546	10664.116260286
5	132546	25502.799256007879	4116.1247478201
5	132558	25505.049259775824	6802.787342687
5	132575	25507.75045344163	5926.408881841
5	132623	25517.333839505206	1117.1898178949
5	132664	25524.053151786647	2171.7153682213
5	132884	25566.533119677882	3632.2237650218
5	132983	25584.502178218905	1127.1032049108
5	133176	25622.048453855459	1126.1598365984
5	133389	25664.431747636609	2686.7803132569
5	133510	25688.453310883359	570.24000314733
5	133558	25698.315677804254	2694.8377666245
5	133590	25704.619043926743	4142.5981168196
5	133600	25706.602137681597	562.54610306496
5	133749	25735.638404617494	4620.2776088566
5	133770	25738.825775102933	1674.6315025141
5	133802	25745.33717853328	4142.858499207
5	133817	25747.960963859072	10072.644503591
5	133842	25753.042293749599	1133.9653069276
5	133987	25779.185182965957	9733.6910155919
5	133993	25781.224927743283	11795.962348495
5	134161	25811.503036612591	11473.320931216
5	134222	25822.665157160668	4176.4429104933
5	134225	25823.657277773919	1137.922944792
5	134252	25828.682691059208	5119.5006740038
5	134419	25862.06810633032	8613.4034311683
5	134615	25898.252101314761	2723.2098612577
5	134620	25899.275302655757	10483.187012772
5	134625	25900.185413374328	5129.5937011547
5	134632	25901.157887503826	4668.4641565036
5	134752	25923.060461123888	12815.502005722
5	134769	25926.193274432741	5131.7714675672
5	134916	25955.773530478259	2729.4043277125
5	134955	25962.633777492443	2223.4672439329
5	135145	25998.509206025997	6494.803678719
5	135152	25999.708811852658	3247.0277443942
5	135196	26007.390581513893	5601.3671523781
5	135199	26008.314775410246	6499.1875365596
5	135261	26020.354223955186	581.07780622701
5	135321	26032.46641516848	7405.5825538145
5	135326	26033.317221127213	2763.4264243795
5	135382	26042.670698811249	13166.093001922
5	135446	26053.803513270287	579.74065580564
5	135474	26060.020405757377	7831.7393837777
5	135524	26068.383788534297	6979.8108427845
5	135828	26124.509319487631	3747.254740788
5	135925	26143.752419561377	594.71044624097
5	136076	26168.553280896737	1163.1807659051
5	136091	26171.650455611522	10242.190154444
5	136119	26177.870772275373	4229.0039141448
5	136151	26184.183895365285	10591.850603362
5	136166	26187.509510636373	603.57917734922
5	136188	26191.486831450132	3275.5192033316
5	136227	26200.67250806088	4734.1145584801
5	136272	26209.354725225122	8282.8451019972
5	136337	26222.407498477811	2770.0236813005
5	136340	26223.308443648314	1163.3632178192
5	136354	26225.352706199178	2772.9660959412
5	136415	26236.527574909143	1161.8324957702
5	136471	26246.420546336508	602.95781771882
5	136550	26261.959948723055	2793.3120879857
5	136644	26279.315455181561	9908.3639538658
5	136659	26282.61019587297	4259.922531711
5	136709	26292.34880081363	3304.2869013262
5	136751	26300.186189334691	1186.3211074067
5	136874	26322.910736196434	3315.9891371006
5	136882	26324.788098984065	2808.7415425404
5	136885	26325.624041655792	4761.2454076805
5	136903	26329.675056279304	1747.0270132088
5	136954	26340.471146943645	7481.3887630708
5	136977	26345.766703377144	3326.4863757628
5	136980	26346.7935864448	4762.3713515892
5	137140	26377.19823555084	2286.8156296264
5	137292	26406.737583579624	607.40479416983
5	137432	26434.485973101886	616.62456932328
5	137491	26443.426414677906	1756.3612652053
5	137497	26445.236163508832	1196.5208461208
5	137568	26459.61797657305	1760.9525752011
5	137591	26464.262752646148	10384.740338539
5	137632	26473.426000073772	5751.9538159101
5	137677	26480.630840035561	617.17921290931
5	137728	26489.673779578727	7095.2552218143
5	137760	26495.602138769101	6658.249201147
5	137808	26505.612871176595	1198.197836364
5	138005	26544.924410626694	3346.2189975039
5	138040	26550.062648411031	4312.9728833408
5	138049	26551.036959041591	3845.832333564
5	138163	26573.088585038421	1201.4951151827
5	138194	26580.371603362014	14542.469351531
5	138213	26583.158463724175	1763.7591946754
5	138224	26585.805688794827	1764.1033533463
5	138307	26600.760580963765	623.06171348433
5	138380	26615.80856099318	15338.188952946
5	138420	26623.964906667483	3873.5339799735
5	138430	26625.828030084104	6690.0189401022
5	138439	26628.466463201431	5782.9980673295
5	138473	26634.514189313943	6686.5421067474
5	138510	26642.001287297006	626.24445841217
5	138526	26645.767120715078	1776.8618361502
5	138697	26677.561185187602	5345.7141075582
5	138787	26694.295908045152	629.35779857739
5	138850	26704.878866609221	2342.1593586669
5	138995	26733.736273612954	3406.0383153022
5	139010	26736.774016523955	1229.0542849968
5	139020	26738.828992034809	7599.4577790782
5	139035	26741.762913364952	4383.0521144143
5	139119	26758.037391125353	634.66817996792
5	139185	26769.370592878143	19860.813014764
5	139230	26776.397025574592	14124.311280754
5	139236	26778.438324965851	3404.0139372011
5	139254	26782.264259475132	1801.040109491
5	139273	26785.073924976622	6705.9614651901
5	139313	26792.930586243084	17139.026678471
5	139331	26796.926612031402	2370.3027168232
5	139341	26799.072383879533	4397.0295711822
5	139369	26805.400522898546	6272.5925916076
5	139384	26808.589112258552	4876.5824331375
5	139400	26812.598074589426	1807.6073099918
5	139510	26832.965062464439	643.35948977352
5	139520	26834.925569941793	4412.32480598
5	139587	26848.649200649318	1803.563753267
5	139667	26864.828927363306	8934.101990861
5	139680	26867.650293528885	642.44429816394
5	139748	26881.696423629894	3935.7847128322
5	139776	26887.636154523807	645.6799974071
5	139879	26908.652182777634	1825.9897398816
5	139977	26924.600162114703	1249.0257023191
5	140041	26937.047702446616	3949.2405852638
5	140116	26949.854968696031	6778.0621700599
5	140176	26961.684735406506	3453.0657888136
5	140193	26964.962786066755	2400.8527242928
5	140196	26965.812368321735	646.65936036063
5	140243	26974.833882680107	3457.6178995486
5	140352	26995.602381413096	3972.4984479065
5	140358	26997.722260239014	5402.211404849
5	140390	27003.515943240412	6344.775267717
5	140481	27020.966352605203	4469.6553006362
5	140545	27032.71391655322	3456.8336532291
5	140635	27052.654885746202	2400.6136249611
5	140723	27066.050193895157	2403.5326957558
5	140726	27066.948072489108	5911.9271255872
5	140816	27083.285605040601	2410.8592880479
5	140826	27085.276658660489	8180.0329166038
5	140846	27089.636516283023	648.78592243481
5	141105	27142.594451103488	7305.4968018713
5	141167	27152.842830158153	3482.9324191215
5	141170	27153.784810374805	648.33837887231
5	141180	27155.619324178562	647.50160505469
5	141213	27162.602043840137	7308.2303987562
5	141292	27176.010033525096	4965.8621191028
5	141400	27196.93957628006	4003.7103072249
5	141448	27206.926436222754	8208.7929980504
5	141507	27218.368068499901	9075.398732358
5	141646	27245.121589254066	2968.1406374118
5	141665	27247.685854926743	4512.9346241708
5	141756	27266.388359053658	1858.8027363629
5	141770	27268.393409809416	2976.3452427739
5	141804	27274.126547342857	8678.3743639187
5	141855	27286.817900211683	4996.0809980012
5	141904	27297.387565669737	1856.4328278622
5	142008	27319.203164269815	4044.3982660577
5	142029	27322.228349539025	8254.8883343527
5	142098	27337.827903969157	650.85335897114
5	142105	27339.000140910167	7803.2000798763
5	142139	27344.856698029991	2447.0620819013
5	142144	27345.682773516737	2447.5082678179
5	142172	27351.617877676375	653.037298562
5	142192	27355.568695396129	15290.455614025
5	142211	27358.461752447895	5525.1149542946
5	142276	27369.658118284252	8267.8421051365
5	142313	27374.595211011861	10378.517474746
5	142381	27388.25052576469	11502.986335937
5	142471	27406.187546529748	14762.545929253
5	142517	27414.165427760347	3555.6880132435
5	142532	27416.844885127093	2458.4278977778
5	142569	27425.621477205059	1297.6231375597
5	142643	27437.555223651171	11879.201623111
5	142646	27438.55711015429	1294.2432153882
5	142706	27452.362058716115	5531.4280722646
5	142709	27453.314613310654	5527.553875741
5	142718	27454.332212446291	1899.1538162176
5	142726	27456.410590181161	3560.1127648937
5	142733	27457.491840914391	1296.4825252699
5	142780	27466.929993812028	5533.9180831444
5	142800	27471.018929279163	653.65826301457
5	142820	27475.16965036023	9585.973751099
5	142823	27476.140319745835	11158.773057519
5	142834	27479.414275349896	1904.8963079843
5	142872	27487.274500744822	1302.0158889228
5	143148	27543.044695855986	3041.7019759822
5	143199	27551.892786050244	3582.4550878306
5	143207	27553.933076304412	9611.2631048114
5	143262	27562.889930092294	4607.2400419942
5	143285	27567.759915533971	1910.5956472597
5	143298	27570.417574008491	1911.6396881043
5	143366	27584.092982212485	656.3171614908
5	143410	27591.966502957075	4606.0028498556
5	143415	27592.852129593148	659.36175574326
5	143633	27630.142984233361	1307.7700780958
5	143643	27632.164914073452	3592.3486191798
5	143678	27641.078077847168	4119.9744209798
5	143699	27644.413950486232	4122.2158530461
5	143702	27645.335279937212	659.19809943678
5	143714	27647.489094459761	4122.7273037172
5	143749	27654.83682252926	3053.8282778238
5	143754	27655.800191252801	6070.4338254633
5	143762	27657.859414966993	662.91780704304
5	143939	27694.213900247711	8369.5538906137
5	143967	27700.25181792549	1922.9759536659
5	144048	27717.630139296718	3067.2694399193
5	144110	27729.674799742393	3069.4009932612
5	144118	27731.759461940482	9699.0312745286
5	144154	27738.182723838493	2500.5679032362
5	144232	27755.697820039589	4141.7496070054
5	144322	27775.699155097485	7495.310588401
5	144331	27778.816091086839	5170.165246354
5	144374	27789.651337784465	5627.2602557375
5	144411	27796.763271305926	658.70502216336
5	144512	27816.021698457686	1931.5312489384
5	144530	27819.741068720476	3628.5263285919
5	144533	27820.548049490464	6607.2146162148
5	144569	27826.341863670791	3083.3763389795
5	144647	27841.861995373139	14112.530107609
5	144701	27854.624316572894	1313.1178286425
5	144720	27857.603897295924	3084.9205375589
5	144726	27859.574679074934	6623.1817855717
5	144744	27863.662842171857	5645.0182027201
5	144766	27867.317590191992	667.49331246887
5	144901	27890.519217032784	667.50117912814
5	145280	27955.624155687012	10613.555891792
5	145319	27964.909784706246	665.44055925331
5	145583	28012.925768918109	3676.1121574623
5	145615	28018.789651864052	2545.4971011222
5	145656	28028.048229039209	1963.4622166913
5	145661	28029.043238171311	6199.3266214371
5	145667	28030.984309233008	665.71754474818
5	145709	28038.868025410111	6196.7607225412
5	145792	28056.191938480857	11446.486928485
5	145822	28062.402266964159	7595.3399696211
5	145853	28067.357067128766	13232.143634717
5	145877	28071.2048746371	672.22907436704
5	145921	28079.364339090539	1335.1035575816
5	146075	28106.47432352624	4237.1104152802
5	146078	28107.636385538272	1976.4807721759
5	146154	28121.002605441333	3139.471785902
5	146179	28126.541993405697	1336.1080025822
5	146202	28131.577131813793	673.64075528745
5	146210	28133.397035255871	6206.7586529221
5	146283	28148.384239926962	673.70349986052
5	146303	28152.601271315691	1972.4297348312
5	146559	28201.435495406042	6215.8718452387
5	146586	28206.587374230687	4241.9229214716
5	146642	28216.982544632748	2579.8320573231
5	146645	28217.80542694249	1327.3110685697
5	146835	28255.639340993972	5763.0613950655
5	146901	28267.885013681115	1327.6135769691
5	146925	28271.86559002914	9444.7455086623
5	147117	28308.805381439556	1339.3697523221
5	147130	28311.960013344255	4799.2245346982
5	147147	28315.077287009847	3166.5801709195
5	147181	28320.872870106739	1983.2646078734
5	147257	28337.188696102916	5309.2707343483
5	147278	28342.322694719236	7221.1861085272
5	147474	28380.83946936943	7705.3147212945
5	147479	28381.928382056136	2594.9455253392
5	147740	28429.677658914514	4299.0378509894
5	147850	28449.105632590893	3182.3492220148
5	147858	28451.12316805005	2607.5396443626
5	147897	28460.40581654461	1333.6685024323
5	147913	28462.54895359382	4819.1038122643
5	147990	28477.626946298797	5326.1647448323
5	148009	28480.482812624444	2608.972187667
5	148022	28483.382302941587	12744.000240426
5	148067	28491.934163919854	3189.1989669666
5	148092	28496.717250126897	3753.3622756343
5	148138	28504.755763049814	6304.9475724401
5	148237	28525.812178356312	1981.3333991574
5	148290	28534.629293402861	9106.8550516099
5	148479	28571.851245408802	4841.3424446803
5	148534	28582.94324501028	4308.7586015427
5	148579	28591.437554963415	7770.0608994146
5	148599	28595.893266119172	10014.186476867
5	148613	28600.166514602133	7317.3886266355
5	148627	28602.182920303584	2003.840605529
5	148649	28606.30010595407	1349.4300651686
5	148705	28618.646739321124	4856.9616474364
5	148772	28630.883735907186	3782.581144751
5	148829	28641.924808631201	5378.4652653084
5	148951	28663.268077879883	10894.967323232
5	148961	28665.361692787073	12837.386672865
5	149015	28675.743044244422	9607.2562784289
5	149096	28690.639670042153	2638.6079892377
5	149155	28701.954686997756	670.02806524815
5	149181	28708.046348399315	4348.1325951896
5	149225	28718.509822854417	3798.7005896175
5	149243	28722.418941838684	8261.4426941312
5	149368	28742.977393258195	5421.9701056633
5	149433	28754.503714151697	6885.1578401258
5	149446	28757.477033882885	2011.4175286554
5	149458	28759.183216618671	674.88161206304
5	149630	28792.572836664057	2018.8145604743
5	149667	28799.346096722799	8721.05156621
5	149712	28807.943168787674	3824.1294675782
5	149788	28821.41167407177	3816.5998586005
5	149816	28827.704808931255	2005.3335632697
5	149857	28834.341155117767	2651.1209299256
5	149865	28836.382602574228	7832.9759764596
5	149886	28841.638560021313	9645.769424196
5	149913	28846.356565403768	8298.2381962132
5	149962	28856.165587102453	677.22761350963
5	150001	28863.117860088982	5432.4100965785
5	150009	28864.945613310877	3258.7622368478
5	150097	28882.844795239085	3258.3452723779
5	150134	28889.668523911313	5946.0483662031
5	150293	28917.776634913049	4943.6612376143
5	150417	28941.819573971556	6447.2659964636
5	150468	28950.662628589964	12203.046804271
5	150496	28956.522734984682	2014.7936372914
5	150533	28963.670510434844	680.99474065007
5	150539	28965.733915794101	8795.5562146517
5	150604	28980.201970732604	7421.377872602
5	150622	28984.078462535162	2023.7356865849
5	150643	28988.786041830778	11839.829587043
5	150709	29002.669802717884	684.9061941694
5	150798	29018.376585904623	5481.1538264394
5	150825	29025.432894594242	4417.5159828372
5	150854	29030.724185758569	4954.0799636686
5	150972	29055.335783824904	6499.4636799367
5	151043	29070.707998301855	2670.1261908418
5	151062	29073.648341132163	3848.5745242761
5	151135	29086.178118541673	1353.3797952305
5	151203	29100.078963422985	4434.2124180058
5	151211	29101.864136026637	683.12251747353
5	151280	29115.258983593363	3297.6564662733
5	151314	29123.52897236573	3875.6259123507
5	151454	29155.070275157343	11498.404940581
5	151543	29170.583869776807	10674.030056428
5	151606	29181.588952779794	5516.3148094954
5	151611	29182.635638938496	1339.0944966697
5	151672	29196.245455995692	5523.0305453009
5	151697	29201.410184631242	3884.7304995729
5	151721	29205.606582864306	3301.0478194897
5	151822	29224.31117623367	1338.7530945734
5	151829	29225.465046021739	9802.1294937621
5	151949	29249.040521684965	3891.9035994147
5	152124	29279.873401493229	8464.3923130583
5	152202	29293.351736640673	3317.338521379
5	152357	29324.045198851569	3897.7581136067
5	152404	29331.461994948822	5018.8075300072
5	152415	29334.5985252118	3902.662934363
5	152446	29339.427909384135	689.52859755764
5	152485	29348.842952260029	3321.737357398
5	152621	29379.098784999484	1369.5517895192
5	152659	29385.148339988506	1371.639831333
5	152672	29387.989989990955	6103.1214428841
5	152702	29396.249585827282	3334.6930201286
5	152763	29407.354245278267	5046.7162671904
5	152797	29413.665820009848	690.94558726394
5	152828	29421.015795920444	694.26893884024
5	152833	29421.996349346758	1368.2973699029
5	152890	29432.848155078971	4494.5236769463
5	152912	29436.673439011283	3938.2261700504
5	152956	29444.525074209856	1373.198321746
5	153171	29481.214638234047	3358.8683242133
5	153189	29485.086218401255	11204.118087001
5	153361	29516.65986820322	2055.8606315132
5	153373	29518.534771604208	4520.2310280863
5	153383	29520.78413743584	6133.1050493678
5	153421	29527.151193731302	704.19886617928
5	153448	29532.456503985752	2712.6648454953
5	153456	29534.457066398509	704.37482764308
5	153555	29551.500254949671	9901.5865383383
5	153574	29554.190786813036	16290.19600802
5	153592	29558.146230872277	1383.2813754161
5	153612	29562.319115370441	11233.213821941
5	153651	29569.652235694344	2059.3878805955
5	153698	29580.516864937752	3364.0606507337
5	153721	29583.239607416488	5098.3230835942
5	153785	29596.093235262691	7137.8559961042
5	153805	29600.157261956318	705.18885953525
5	153843	29608.677423378101	3968.7479936332
5	153890	29617.750295260942	1386.748904204
5	153956	29632.031693824123	8112.8687896118
5	153978	29637.473709036897	2056.7263719633
5	154004	29643.080538977892	1386.2516836409
5	154043	29649.978837648244	3976.8155017715
5	154051	29651.903348896583	706.36515761443
5	154056	29652.986274041632	2724.6750012878
5	154084	29659.042200482288	5654.184344106
5	154101	29662.028999616788	12112.55610233
5	154185	29676.581463633223	2729.7954524567
5	154226	29684.167147316622	2067.9743895351
5	154343	29705.111910613559	7660.113369244
5	154346	29706.081524830989	2064.0763268771
5	154364	29710.069945646848	4557.2662385032
5	154372	29712.412866853017	1391.5639160265
5	154395	29717.210773950376	13697.369643395
5	154410	29720.366006989058	705.69161936544
5	154514	29740.689857316042	14060.306068522
5	154568	29751.127741865653	11312.381704025
5	154618	29761.021620094151	9540.4338199738
5	154636	29765.071944267794	695.49466660454
5	154649	29767.971787640663	5672.3125084562
5	154668	29772.671640541988	7679.1893453168
5	154761	29788.771332433007	5136.4389770696
5	154910	29815.733561120486	6727.4668786257
5	154972	29827.690957224951	1395.3752420181
5	155067	29846.34478860807	5154.600973165
5	155077	29848.118606889549	14488.837810932
5	155123	29856.145491564109	2046.6554809385
5	155204	29871.278399150746	10483.476149847
5	155250	29879.844298685828	8687.5787402489
5	155266	29883.889570784776	1399.5829820494
5	155325	29894.579807449807	8678.5965710541
5	155363	29902.889573651296	3388.8226191133
5	155380	29905.819638559898	3384.5389434049
5	155399	29910.783053002343	2736.272312103
5	155488	29928.206191182066	2737.3064052217
5	155521	29933.572623160131	4014.3637900441
5	155578	29944.573579045034	6740.3466572457
5	155600	29948.44038102154	690.6216290755
5	155636	29956.001462455022	2739.7852844272
5	155676	29964.097276826411	11815.2926817
5	155796	29988.398094575968	17149.355323825
5	155813	29993.197141336952	4025.9691742979
6	171	43.346358017179	14.204704954839

