version 2
run Second_exit_5-6-20191114-11:42:36-8917
attr configname Second_exit_5
attr datetime 20191114-11:42:36
attr experiment Second_exit_5
attr inifile omnetpp.ini
attr iterationvars ""
attr iterationvarsf ""
attr measurement ""
attr network ResponseTimeNetwork
attr processid 8917
attr repetition 6
attr replication #6
attr resultdir results
attr runnumber 6
attr seedset 6
param **.Source.interArrivalTime exponential(5s)
param **.jobPriority bernoulli(0.6)
param **.PS.serviceTimeU1 "uniform(0.8s, 1.2s)"
param **.PS.serviceTimeU2 "uniform(1.8s, 2.2s)"
param **.SS1.serviceTime exponential(1s)
param **.SS2.serviceTime exponential(1.2s)
param **.PS.exitProbability bernoulli(0.5)

vector 0 ResponseTimeNetwork.QueueU1 queueLength:vector ETV
attr interpolationmode sample-hold
attr title "queue length, vector"
vector 1 ResponseTimeNetwork.QueueU2 queueLength:vector ETV
attr interpolationmode sample-hold
attr title "queue length, vector"
vector 2 ResponseTimeNetwork.sink lifeTimeU1:vector ETV
attr interpolationmode none
attr title "lifetime of arrived jobs U1, vector"
attr unit s
vector 3 ResponseTimeNetwork.sink totalServiceTimeU1:vector ETV
attr interpolationmode none
attr title "the total time spent  by arrived jobs U1, vector"
attr unit s
vector 4 ResponseTimeNetwork.sink lifeTime:vector ETV
attr interpolationmode none
attr title "lifetime of arrived jobs, vector"
attr unit s
vector 5 ResponseTimeNetwork.sink totalServiceTime:vector ETV
attr interpolationmode none
attr title "the total time spent  by arrived jobs, vector"
attr unit s
vector 6 ResponseTimeNetwork.sink lifeTimeU2:vector ETV
attr interpolationmode none
attr title "lifetime of arrived jobs U2, vector"
attr unit s
vector 7 ResponseTimeNetwork.sink totalServiceTimeU2:vector ETV
attr interpolationmode none
attr title "the total time spent  by arrived jobs U2, vector"
attr unit s
vector 8 ResponseTimeNetwork.SS1 queueLength:vector ETV
attr interpolationmode sample-hold
attr title "queue length, vector"
vector 9 ResponseTimeNetwork.SS2 queueLength:vector ETV
attr interpolationmode sample-hold
attr title "queue length, vector"
0	19010	10003.786681768379	1
0	19011	10004.239210556013	0
0	19020	10006.050301457373	1
0	19021	10006.337692779427	0
0	19100	10055.328002082484	1
0	19102	10055.785625937091	2
0	19103	10056.199954768852	1
0	19106	10057.095980227948	0
0	19110	10057.256748164091	1
0	19111	10058.150448465091	0
0	19115	10058.872695808734	1
0	19116	10059.251929783099	0
0	19205	10128.544009093558	1
0	19210	10129.261147821321	0
0	19216	10129.675089668721	1
0	19217	10130.233283744379	0
0	19226	10131.9585347917	1
0	19227	10132.132130296341	0
0	19234	10134.022996575827	1
0	19235	10134.064402196556	0
0	19246	10134.976805158509	1
0	19248	10135.469176730331	2
0	19249	10136.006448902935	1
0	19254	10137.034256343357	0
0	19258	10137.30798757213	1
0	19259	10138.041730082873	0
0	19266	10139.456359125597	1
0	19268	10139.820824788508	2
0	19269	10140.143271548767	1
0	19272	10140.993541684188	0
0	19276	10141.102075364998	1
0	19277	10141.852285706718	0
0	19281	10142.039396044864	1
0	19282	10142.859985263926	0
0	19370	10191.045670667111	1
0	19373	10191.714384522489	0
0	19382	10193.673540835917	1
0	19383	10193.70908935239	0
0	19392	10194.837449514304	1
0	19394	10195.487316246758	2
0	19395	10195.879169386173	1
0	19398	10196.698031385443	0
0	19407	10197.581973520761	1
0	19408	10198.338927146713	0
0	19417	10200.546146193229	1
0	19418	10200.584123532767	0
0	19422	10200.983674190267	1
0	19423	10201.741059717177	0
0	19430	10202.765709154706	1
0	19431	10203.75671369174	0
0	19450	10212.695016034176	1
0	19451	10212.886913194837	0
0	19465	10227.821625227289	1
0	19466	10228.164161907481	0
0	19475	10229.655162849148	1
0	19476	10230.179166819651	0
0	19485	10233.275160306285	1
0	19486	10234.415919515958	0
0	19510	10240.997764963388	1
0	19512	10241.180034082251	2
0	19513	10241.843356486552	1
0	19518	10242.88351042052	0
0	19522	10243.566711313281	1
0	19523	10243.848375539065	0
0	19527	10244.441246088234	1
0	19528	10244.676385791742	0
0	19532	10245.591298344976	1
0	19533	10245.799096847282	0
0	19537	10245.891593665964	1
0	19538	10246.862892018588	0
0	19544	10247.31261881705	1
0	19545	10247.88626407185	0
0	19565	10260.306650687645	1
0	19566	10260.754802227596	0
0	19585	10264.898536945324	1
0	19586	10265.780284126168	0
0	19610	10270.892086487459	1
0	19611	10271.64041240094	0
0	19635	10286.727528910951	1
0	19636	10287.54142913063	0
0	19660	10293.633262792522	1
0	19661	10293.929343446644	0
0	19665	10293.961119875923	1
0	19666	10294.816559098216	0
0	19685	10309.814312812901	1
0	19686	10310.688269981244	0
0	19720	10329.254847340192	1
0	19721	10330.256369356817	0
0	19735	10339.896058200126	1
0	19736	10340.795718993493	0
0	19755	10347.025332763219	1
0	19756	10347.305638374183	0
0	19765	10348.822496612421	1
0	19766	10349.496980575093	0
0	19770	10349.889529786	1
0	19771	10350.692602806066	0
0	19795	10362.017711067265	1
0	19799	10362.297429479957	2
0	19800	10362.558436136622	1
0	19803	10363.519200667668	0
0	19810	10365.016071805205	1
0	19811	10365.514257666304	0
0	19835	10374.885829487388	1
0	19836	10375.734295580817	0
0	19850	10380.44122494524	1
0	19851	10381.541105841928	0
0	19975	10450.760721991502	1
0	19976	10451.455286262409	0
0	19990	10454.817160157804	1
0	19991	10455.234232650755	0
0	20000	10456.673938118068	1
0	20001	10457.328059934603	0
0	20035	10473.454150619926	1
0	20036	10474.457159617911	0
0	20092	10498.020749518823	1
0	20093	10498.116296767281	0
0	20097	10498.450334401799	1
0	20098	10499.239367194498	0
0	20104	10499.694748073908	1
0	20105	10500.266065714719	0
0	20112	10501.526384177092	1
0	20113	10502.170107870666	0
0	20122	10504.081444941369	1
0	20123	10504.319016122004	0
0	20142	10509.078762391763	1
0	20143	10509.984697272128	0
0	20155	10519.520794720504	1
0	20156	10519.731271181494	0
0	20165	10522.305640907438	1
0	20167	10522.631466074646	2
0	20168	10522.71586704861	1
0	20171	10523.710415939443	0
0	20175	10524.594597367965	1
0	20176	10524.620824234855	0
0	20275	10611.286642450184	1
0	20276	10611.374786864049	0
0	20282	10612.13079141456	1
0	20283	10612.497628922961	0
0	20300	10615.930617292724	1
0	20301	10616.725232360456	0
0	20320	10631.233446041446	1
0	20322	10631.732508860863	2
0	20323	10631.802850760398	1
0	20326	10632.724715391239	0
0	20335	10635.334275457473	1
0	20336	10635.447552801075	0
0	20340	10635.472645628889	1
0	20341	10636.609296168631	0
0	20380	10680.052200908002	1
0	20381	10680.77045069957	0
0	20395	10683.485780270637	1
0	20396	10684.148000137668	0
0	20415	10691.055765513675	1
0	20416	10691.804822838917	0
0	20420	10691.956352672426	1
0	20423	10692.608220024366	0
0	20475	10740.882365922109	1
0	20476	10741.027319787071	0
0	20480	10741.113190080922	1
0	20481	10741.882970245183	0
0	20495	10750.614893374638	1
0	20496	10750.839488990371	0
0	20530	10757.189707687453	1
0	20531	10758.128145729517	0
0	20565	10792.684850641023	1
0	20566	10792.750530750609	0
0	20570	10793.880352307353	1
0	20571	10793.927249292496	0
0	20610	10847.288299751292	1
0	20612	10847.369828127157	2
0	20613	10847.875064447748	1
0	20618	10848.772422970126	0
0	20622	10848.776797605173	1
0	20623	10849.856006320978	0
0	20630	10851.918384670176	1
0	20631	10852.043087001277	0
0	20635	10852.836541310094	1
0	20636	10853.142421401704	0
0	20640	10853.401435041885	1
0	20641	10854.328555445692	0
0	20655	10857.962490168717	1
0	20656	10858.692489184528	0
0	20660	10859.43938106545	1
0	20661	10859.55271744113	0
0	20670	10863.11695521559	1
0	20671	10863.240891215315	0
0	20710	10889.832597793387	1
0	20711	10889.929303121939	0
0	20730	10899.453681809947	1
0	20731	10899.948087361727	0
0	20740	10901.174961856179	1
0	20741	10901.855163007967	0
0	20750	10903.286118276129	1
0	20751	10904.344760827048	0
0	20782	10921.233693999187	1
0	20784	10921.470941745319	2
0	20785	10921.520410899144	1
0	20788	10922.359312047322	0
0	20792	10922.432129850385	1
0	20793	10923.510319049076	0
0	20802	10924.891636355412	1
0	20803	10925.47070696119	0
0	20900	10967.760076246668	1
0	20901	10968.369795554313	0
0	20925	10976.397227367306	1
0	20926	10977.027417948111	0
0	20935	10981.717746913262	1
0	20938	10982.349433379425	0
0	20945	10983.585579226893	1
0	20947	10984.050665663112	2
0	20948	10984.555501433918	1
0	20951	10985.734899881752	0
0	20965	10990.019673427896	1
0	20967	10990.132234564684	2
0	20968	10990.326417363466	1
0	20972	10990.778020975125	2
0	20973	10991.35798389179	1
0	20977	10991.553774929597	2
0	20979	10991.562674618629	3
0	20980	10992.215772650701	2
0	20984	10992.85077616046	3
0	20986	10992.896161972067	4
0	20987	10993.208932427534	3
0	20990	10994.182358470031	2
0	20993	10995.113743755904	1
0	20996	10996.156179544081	0
0	21065	11042.310767988533	1
0	21066	11043.016787790459	0
0	21075	11044.276207798006	1
0	21076	11045.060647386357	0
0	21092	11049.164722731082	1
0	21093	11049.308293885289	0
0	21097	11049.46267208969	1
0	21099	11049.59114126287	2
0	21100	11050.338252842443	1
0	21106	11051.207676360396	2
0	21107	11051.394395286979	1
0	21110	11052.341502152772	0
0	21117	11053.871245698672	1
0	21118	11054.452211270405	0
0	21124	11055.380158587101	1
0	21125	11055.640245116891	0
0	21170	11088.292146499322	1
0	21171	11089.24143932433	0
0	21175	11089.661736299553	1
0	21176	11090.088596970394	0
0	21195	11103.632643642468	1
0	21196	11104.542041346966	0
0	21225	11111.16272526453	1
0	21226	11111.172672164894	0
0	21265	11152.612440126046	1
0	21266	11152.882195687571	0
0	21270	11153.653122210874	1
0	21271	11153.719767898039	0
0	21305	11172.666014190926	1
0	21306	11173.562593085633	0
0	21315	11174.837865653563	1
0	21316	11175.519535313694	0
0	21320	11175.985229657876	1
0	21321	11176.716962705607	0
0	21345	11200.783531819485	1
0	21346	11201.171310356712	0
0	21350	11202.036355420957	1
0	21351	11202.228113210002	0
0	21355	11203.196465376942	1
0	21356	11203.407649765337	0
0	21360	11203.9625179855	1
0	21361	11204.31225659818	0
0	21365	11204.711376677423	1
0	21367	11204.840212085209	2
0	21368	11205.370643607793	1
0	21372	11205.79502450055	2
0	21373	11206.447799393894	1
0	21376	11207.422204391273	0
0	21387	11208.803590288565	1
0	21388	11209.723049385408	0
0	21392	11210.255298188122	1
0	21394	11210.376157847361	2
0	21395	11210.796671643974	1
0	21398	11211.888677602568	0
0	21402	11212.268844878267	1
0	21403	11212.735010840864	0
0	21407	11212.820706808262	1
0	21411	11213.175083534913	2
0	21412	11213.8477830536	1
0	21415	11214.824810340469	0
0	21419	11214.879433397603	1
0	21421	11215.873851724773	2
0	21422	11215.929228878887	1
0	21426	11216.09396751664	2
0	21428	11216.765920605162	3
0	21429	11216.883347228197	2
0	21433	11217.026125432904	3
0	21435	11217.801149799112	4
0	21436	11217.999063846683	3
0	21439	11219.065666750381	2
0	21442	11220.152874403568	1
0	21446	11220.374892584374	2
0	21447	11221.141420147596	1
0	21450	11222.003308851114	0
0	21454	11222.183320110402	1
0	21455	11223.119231798249	0
0	21462	11224.828045567608	1
0	21463	11225.1121759767	0
0	21492	11230.322926977759	1
0	21493	11231.04017362495	0
0	21497	11231.680322082166	1
0	21498	11231.884173800173	0
0	21510	11235.506980864076	1
0	21511	11236.225816673531	0
0	21530	11239.354739635873	1
0	21531	11240.05487317349	0
0	21565	11253.327018278698	1
0	21566	11253.589960416245	0
0	21600	11272.891491049146	1
0	21601	11273.038444674224	0
0	21605	11273.647936764704	1
0	21608	11274.179648881521	0
0	21612	11274.500610255817	1
0	21613	11275.374158443067	0
0	21655	11293.324078051032	1
0	21656	11294.08616320525	0
0	21725	11345.392239490203	1
0	21726	11346.099163078642	0
0	21755	11354.589062431404	1
0	21756	11354.899261331331	0
0	21775	11360.689337616025	1
0	21778	11361.488519645411	0
0	21782	11361.685204461385	1
0	21783	11362.544805528152	0
0	21790	11363.814785085562	1
0	21792	11363.84857186718	2
0	21794	11364.206229474278	3
0	21795	11364.795043185375	2
0	21800	11365.802003881264	1
0	21803	11366.64971906843	0
0	21807	11366.878207719381	1
0	21808	11367.762049158405	0
0	21815	11368.999483459236	1
0	21816	11370.034509534317	0
0	21820	11370.645436207822	1
0	21821	11370.874696485999	0
0	21962	11447.504677978264	1
0	21963	11447.750403460375	0
0	21969	11448.17708259675	1
0	21970	11448.797098215836	0
0	21974	11449.172099770538	1
0	21975	11449.889312715064	0
0	21979	11450.376915133627	1
0	21980	11450.945826712883	0
0	21987	11452.522094290694	1
0	21988	11452.847455790806	0
0	21994	11453.223400807163	1
0	21995	11453.751691889557	0
0	21999	11453.982939739891	1
0	22000	11454.769880797322	0
0	22004	11454.799587093214	1
0	22005	11455.917899027168	0
0	22012	11457.551235917183	1
0	22013	11457.931437394376	0
0	22045	11481.298170213914	1
0	22046	11481.390901254792	0
0	22060	11488.850069826821	1
0	22061	11489.494302477604	0
0	22065	11490.143566959559	1
0	22067	11490.431751415811	2
0	22068	11490.595268334458	1
0	22071	11491.435304283267	0
0	22100	11501.530012455421	1
0	22101	11501.885366813426	0
0	22105	11502.581875825485	1
0	22107	11502.679771749599	2
0	22108	11503.02987203296	1
0	22111	11504.1046680654	0
0	22115	11504.243622813677	1
0	22117	11504.38288408656	2
0	22118	11505.011784281542	1
0	22122	11505.400777556747	2
0	22123	11505.836998759916	1
0	22126	11506.887648056222	0
0	22130	11507.135351262733	1
0	22134	11507.491779037806	2
0	22135	11508.057858095186	1
0	22138	11509.123622650614	0
0	22142	11509.699787197235	1
0	22144	11510.132310411531	2
0	22145	11510.296196694819	1
0	22149	11510.536957762765	2
0	22152	11511.22893530322	1
0	22155	11512.173001649936	0
0	22159	11512.516797902044	1
0	22160	11513.037742553612	0
0	22164	11513.33283445493	1
0	22165	11514.090111740919	0
0	22172	11515.422968435964	1
0	22174	11515.492624713847	2
0	22175	11515.834796617327	1
0	22178	11516.656586378494	0
0	22185	11518.453443063344	1
0	22186	11518.844983248932	0
0	22190	11518.883320410487	1
0	22192	11518.964923702258	2
0	22198	11519.916336490693	3
0	22199	11520.005175122393	2
0	22202	11520.94123623302	1
0	22207	11521.937276218233	0
0	22214	11523.694544948648	1
0	22216	11523.821390720907	2
0	22217	11523.879915109796	1
0	22222	11524.919530284645	0
0	22226	11525.356912690221	1
0	22227	11525.954218883773	0
0	22234	11527.864574637199	1
0	22235	11528.172296849785	0
0	22241	11528.580154158481	1
0	22242	11529.055194631273	0
0	22249	11530.373238501544	1
0	22251	11530.641092134618	2
0	22252	11531.225174260753	1
0	22256	11531.667428197653	2
0	22258	11531.792388126756	3
0	22260	11532.005533884231	4
0	22261	11532.182355647403	3
0	22264	11533.205078131761	2
0	22267	11534.286801294386	1
0	22271	11534.939963934239	2
0	22272	11535.318574226144	1
0	22275	11536.40517101936	0
0	22295	11543.984347778459	1
0	22296	11544.87589114502	0
0	22305	11546.599256415041	1
0	22307	11546.704675738312	2
0	22308	11547.61396863637	1
0	22311	11548.716919389735	0
0	22315	11548.766299852768	1
0	22318	11549.625257312595	0
0	22330	11556.943991883469	1
0	22331	11557.527508839422	0
0	22360	11564.807092646759	1
0	22363	11565.469377967327	0
0	22425	11602.163162948798	1
0	22426	11602.182382785458	0
0	22435	11611.54436492566	1
0	22436	11611.656982146085	0
0	22440	11612.429927981423	1
0	22441	11612.845448934075	0
0	22465	11626.506911048846	1
0	22466	11626.535326985081	0
0	22495	11637.579915839847	1
0	22496	11638.12891846341	0
0	22505	11640.112975907899	1
0	22506	11640.133240068377	0
0	22515	11641.642280236906	1
0	22516	11642.168385825399	0
0	22530	11645.437678157619	1
0	22531	11645.920042670736	0
0	22570	11662.122300923339	1
0	22573	11662.931452073641	0
0	22577	11663.579113153699	1
0	22578	11664.051112069022	0
0	22675	11773.855569935588	1
0	22676	11774.668538058914	0
0	22685	11776.011149505941	1
0	22686	11776.54640331845	0
0	22695	11778.230173361607	1
0	22698	11778.836587834338	0
0	22702	11778.935451013381	1
0	22703	11779.939283339566	0
0	22707	11780.17157344259	1
0	22709	11780.6013371211	2
0	22711	11780.781986220829	3
0	22712	11780.806875623836	2
0	22716	11781.371169022833	3
0	22717	11781.700407538823	2
0	22720	11782.597463094703	1
0	22724	11783.127524329821	2
0	22727	11783.683114310707	1
0	22730	11784.709114314037	0
0	22734	11784.9241171976	1
0	22736	11785.436090444132	2
0	22737	11785.691320518943	1
0	22740	11786.658493328447	0
0	22744	11786.701067999631	1
0	22745	11787.60012333149	0
0	22749	11788.097785116455	1
0	22750	11788.660402781683	0
0	22805	11826.023160428517	1
0	22806	11826.977059474853	0
0	22810	11827.846151335667	1
0	22811	11827.895426645302	0
0	22815	11828.426965370828	1
0	22816	11828.754714037743	0
0	22827	11830.783801652727	1
0	22828	11831.237256262206	0
0	22910	11892.860752668309	1
0	22911	11893.170694050206	0
0	22965	11928.10079559665	1
0	22967	11928.205118807961	2
0	22968	11928.437621787515	1
0	22971	11929.519679851875	0
0	23005	11955.375928310851	1
0	23006	11956.094340917481	0
0	23010	11956.587389949645	1
0	23011	11957.095631628217	0
0	23015	11957.212346049837	1
0	23016	11957.99625677002	0
0	23072	11976.536664731134	1
0	23075	11976.965688356663	0
0	23090	11980.29789690911	1
0	23091	11980.996826417887	0
0	23100	11982.044671392829	1
0	23101	11982.669028580239	0
0	23190	12057.678711138315	1
0	23191	12058.384585621476	0
0	23205	12066.327617167995	1
0	23206	12066.992449669024	0
0	23210	12067.431139021826	1
0	23213	12068.063002056764	0
0	23217	12068.341171070207	1
0	23218	12068.988829909214	0
0	23222	12069.456119435709	1
0	23223	12069.907242408903	0
0	23280	12097.962656840333	1
0	23281	12098.164747320336	0
0	23305	12109.371870425866	1
0	23306	12110.010483306918	0
0	23315	12111.376550756736	1
0	23316	12111.975594465799	0
0	23365	12128.84676239717	1
0	23366	12129.210059752741	0
0	23390	12144.025070886917	1
0	23391	12144.241360056637	0
0	23420	12152.110599394368	1
0	23421	12152.245330786593	0
0	23430	12154.240057573512	1
0	23431	12154.883865900052	0
0	23467	12162.609108700179	1
0	23468	12163.283336231028	0
0	23475	12164.725632552839	1
0	23476	12165.080361488377	0
0	23487	12166.206542248026	1
0	23490	12167.184527231761	0
0	23497	12168.097068109985	1
0	23498	12168.890649118469	0
0	23510	12171.116887650214	1
0	23515	12171.974120475267	0
0	23529	12174.285622811305	1
0	23530	12174.926242105298	0
0	23537	12176.566837308266	1
0	23539	12177.060163809169	2
0	23540	12177.171399882258	1
0	23544	12177.947521873655	2
0	23545	12178.175892325313	1
0	23549	12178.865098941774	2
0	23551	12179.077645882471	3
0	23552	12179.352688058474	2
0	23556	12179.405415956306	3
0	23559	12180.433692902428	2
0	23563	12180.564426928904	3
0	23564	12181.565781140988	2
0	23567	12182.742960133692	1
0	23570	12183.74767066651	0
0	23574	12183.816411485816	1
0	23578	12184.290000425822	2
0	23579	12184.66143856748	1
0	23582	12185.688299061833	0
0	23589	12187.636591774424	1
0	23590	12187.700169992643	0
0	23597	12189.424654071864	1
0	23598	12189.538723775382	0
0	23602	12190.16387352947	1
0	23605	12190.575428154702	0
0	23609	12191.339039789517	1
0	23610	12191.551373193423	0
0	23617	12193.201092138403	1
0	23618	12193.457317395984	0
0	23622	12193.663170115435	1
0	23625	12194.479688232682	0
0	23629	12194.838058170925	1
0	23631	12195.177623215158	2
0	23632	12195.64048280391	1
0	23636	12196.103451045619	2
0	23637	12196.672032350405	1
0	23641	12197.397607830777	2
0	23642	12197.526917891773	1
0	23646	12197.906403838194	2
0	23648	12198.30170051347	3
0	23649	12198.632586226157	2
0	23652	12199.596020583353	1
0	23656	12200.172479721435	2
0	23657	12200.609660432405	1
0	23661	12200.612242538806	2
0	23662	12201.468504840239	1
0	23665	12202.319725264433	0
0	23669	12203.253613535598	1
0	23670	12203.437032569955	0
0	23674	12203.733009391796	1
0	23675	12204.558768358744	0
0	23679	12204.643651341805	1
0	23680	12205.671297719806	0
0	23687	12206.888110816321	1
0	23688	12208.010274487	0
0	23697	12209.137021818432	1
0	23700	12209.84934716142	0
0	23740	12235.511183383689	1
0	23741	12235.843077889822	0
0	23780	12256.247276819531	1
0	23783	12256.586371659091	0
0	23810	12272.334612988394	1
0	23811	12273.238977045356	0
0	23850	12292.387858001605	1
0	23852	12293.074428007851	2
0	23853	12293.17056568687	1
0	23857	12293.278297069305	2
0	23860	12293.994673152391	1
0	23863	12294.991476373684	0
0	23867	12295.733834606585	1
0	23869	12295.7633226229	2
0	23871	12295.894653078897	3
0	23872	12295.998426494591	2
0	23875	12297.100234466914	1
0	23879	12297.652342943617	2
0	23880	12297.952151307028	1
0	23884	12298.026608514053	2
0	23885	12298.84337270356	1
0	23888	12299.900526713983	0
0	23900	12302.293351354726	1
0	23905	12302.839443304886	0
0	23917	12305.234082776869	1
0	23918	12305.697066209496	0
0	23930	12308.364173177856	1
0	23931	12309.189673040207	0
0	23935	12309.390524070835	1
0	23939	12309.909622415677	2
0	23940	12310.278944187011	1
0	23944	12310.338808271551	2
0	23945	12311.242908989783	1
0	23949	12311.491389049402	2
0	23950	12312.099880160257	1
0	23954	12312.314666954643	2
0	23955	12313.281579027749	1
0	23959	12313.950931562924	2
0	23960	12314.157067376986	1
0	23963	12314.985942075826	0
0	23967	12315.193079088173	1
0	23968	12316.170557305921	0
0	23980	12321.206671404973	1
0	23981	12322.136941397575	0
0	24050	12357.42677683601	1
0	24051	12357.441036851233	0
0	24085	12379.327573624169	1
0	24086	12379.427472643303	0
0	24125	12403.468032843164	1
0	24126	12404.025336078722	0
0	24135	12405.972609448923	1
0	24136	12406.493556644171	0
0	24140	12407.188235390005	1
0	24141	12407.667166205924	0
0	24200	12442.244583015436	1
0	24201	12443.10770203631	0
0	24220	12448.937805263622	1
0	24221	12449.346277286642	0
0	24230	12451.250015993969	1
0	24231	12451.524146756979	0
0	24235	12451.904069317191	1
0	24236	12452.373616539484	0
0	24240	12452.450126992925	1
0	24241	12453.273745039648	0
0	24245	12453.703643753441	1
0	24246	12454.300139694365	0
0	24300	12475.054151128678	1
0	24303	12475.380435015651	0
0	24310	12476.971329988241	1
0	24311	12477.265084127913	0
0	24322	12479.875325211179	1
0	24323	12480.837070504217	0
0	24327	12481.218192955347	1
0	24328	12481.763262756369	0
0	24332	12482.376810211934	1
0	24333	12482.944146839171	0
0	24340	12484.530822930123	1
0	24341	12484.85478387374	0
0	24367	12489.744766057355	1
0	24370	12490.624260640883	0
0	24400	12507.806494746697	1
0	24401	12508.662573395494	0
0	24410	12510.908930455196	1
0	24411	12511.718482875362	0
0	24417	12512.619253597355	1
0	24418	12512.721899968296	0
0	24440	12520.846198790976	1
0	24441	12521.175835852323	0
0	24445	12521.491749356318	1
0	24447	12521.55423730594	2
0	24448	12522.032593630997	1
0	24451	12522.839672606157	0
0	24455	12523.291834092744	1
0	24456	12524.031165135464	0
0	24460	12524.609619420606	1
0	24461	12525.085155806503	0
0	24475	12528.884102237165	1
0	24476	12529.708506644557	0
0	24480	12529.797424663751	1
0	24481	12530.776628379098	0
0	24535	12546.785373826918	1
0	24536	12547.576446239569	0
0	24540	12547.893917340001	1
0	24541	12548.516800849897	0
0	24545	12549.050954328767	1
0	24546	12549.607967628551	0
0	24565	12554.521524623727	1
0	24566	12555.553061807938	0
0	24570	12556.179067688326	1
0	24571	12556.629007265475	0
0	24575	12557.103116924551	1
0	24576	12557.463291837313	0
0	24580	12557.66997556732	1
0	24581	12558.442511018497	0
0	24590	12559.85412133381	1
0	24591	12560.471051712579	0
0	24630	12581.22885725919	1
0	24631	12582.213131922842	0
0	24640	12584.028889818311	1
0	24641	12584.311727216173	0
0	24650	12585.408667673508	1
0	24651	12586.327758284829	0
0	24750	12649.998864470762	1
0	24751	12650.202917150466	0
0	24760	12653.521416764336	1
0	24762	12654.312237409219	2
0	24763	12654.345653530239	1
0	24770	12655.434670895553	0
0	24780	12657.620126606816	1
0	24782	12658.362322675154	2
0	24785	12658.704045990604	1
0	24790	12659.632553958735	0
0	24797	12661.308930721913	1
0	24798	12661.503107154584	0
0	24802	12661.85870393213	1
0	24803	12662.596482189773	0
0	24860	12696.063940823375	1
0	24861	12696.607947765505	0
0	24970	12764.234833840516	1
0	24971	12764.927250931522	0
0	24975	12765.027758071514	1
0	24976	12765.749808790458	0
0	24980	12765.989111770135	1
0	24981	12766.941251251025	0
0	25022	12799.327616159491	1
0	25023	12799.748619397087	0
0	25085	12826.62028974071	1
0	25087	12827.048692806453	2
0	25088	12827.354900954652	1
0	25091	12828.211116242304	0
0	25157	12866.665468040524	1
0	25158	12866.717269318282	0
0	25186	12875.408832842467	1
0	25187	12875.624260480229	0
0	25239	12886.234002883638	1
0	25240	12886.706346909231	0
0	25244	12887.587391847812	1
0	25245	12887.688213668107	0
0	25249	12887.928409227378	1
0	25250	12888.660664385925	0
0	25254	12889.147029333933	1
0	25255	12889.803697599	0
0	25262	12891.487012636408	1
0	25263	12891.671489914688	0
0	25270	12893.244018462021	1
0	25271	12893.758399176593	0
0	25280	12895.464068319174	1
0	25281	12895.60578456176	0
0	25345	12934.573689837935	1
0	25346	12935.607375505352	0
0	25370	12958.297845719129	1
0	25371	12958.377277095857	0
0	25375	12958.765368973681	1
0	25376	12959.50137612136	0
0	25385	12963.142188915059	1
0	25386	12963.375415083727	0
0	25405	12977.369762367739	1
0	25406	12977.609677128977	0
0	25470	13002.020958923936	1
0	25471	13002.8781479869	0
0	25520	13015.878467723396	1
0	25523	13016.819031601177	0
0	25635	13096.700677979184	1
0	25636	13096.966358368546	0
0	25650	13105.168095449144	1
0	25652	13105.648552441789	2
0	25653	13105.81112985987	1
0	25657	13106.362695339305	2
0	25660	13106.672452218773	1
0	25664	13107.073147728646	2
0	25666	13107.180546386194	3
0	25667	13107.473810215051	2
0	25671	13107.895465102069	3
0	25672	13108.591459674797	2
0	25675	13109.661226548477	1
0	25678	13110.712117196749	0
0	25682	13111.158296550957	1
0	25683	13111.864761409107	0
0	25692	13112.951221899116	1
0	25693	13113.838477749414	0
0	25700	13114.804266430431	1
0	25702	13114.838291909351	2
0	25704	13115.082245172816	3
0	25705	13115.478799892719	2
0	25708	13116.386021790038	1
0	25711	13117.310747025198	0
0	25725	13120.010689614993	1
0	25726	13120.511836964073	0
0	25735	13122.945536002866	1
0	25736	13123.528432948004	0
0	25750	13126.041614796484	1
0	25751	13126.713267523151	0
0	25760	13128.565683275197	1
0	25762	13129.217823406981	2
0	25763	13129.632349636858	1
0	25766	13130.771195224007	0
0	25770	13131.049420405276	1
0	25771	13131.670741391168	0
0	25775	13132.410441918964	1
0	25776	13132.72380351637	0
0	25780	13133.727169858324	1
0	25781	13133.758634106708	0
0	25785	13134.34553752068	1
0	25786	13134.790055982475	0
0	25790	13135.73585424202	1
0	25791	13135.794035066836	0
0	25795	13135.887502235731	1
0	25797	13135.936335558916	2
0	25798	13136.825123344534	1
0	25801	13137.919015736398	0
0	25805	13138.353468835016	1
0	25807	13138.848854308619	2
0	25808	13138.907943471414	1
0	25811	13139.975621779528	0
0	25815	13140.173995737094	1
0	25818	13140.843558310051	0
0	25835	13148.198072706294	1
0	25836	13148.267948748309	0
0	25845	13149.719355762589	1
0	25847	13150.519127221209	2
0	25848	13150.659174817764	1
0	25851	13151.687258672119	0
0	25855	13152.002214171715	1
0	25856	13152.558317811099	0
0	25860	13152.919871798931	1
0	25861	13153.664708267582	0
0	25865	13153.732467020292	1
0	25868	13154.68333499875	0
0	25912	13171.44369952645	1
0	25913	13171.699720209091	0
0	25917	13172.688454593015	1
0	25919	13172.70009162168	2
0	25920	13172.890499600674	1
0	25927	13173.816934974677	0
0	25937	13175.906640179592	1
0	25938	13176.889931232389	0
0	25947	13178.044863190934	1
0	25948	13178.838498960715	0
0	25965	13182.479559837076	1
0	25966	13183.118626692984	0
0	25995	13194.360811551973	1
0	25997	13194.402171463787	2
0	25998	13194.50501610448	1
0	26004	13195.344886531321	2
0	26005	13195.420295464037	1
0	26008	13196.247428343607	0
0	26020	13199.089718087366	1
0	26021	13199.368331503099	0
0	26055	13218.725916465494	1
0	26057	13219.047624295786	2
0	26058	13219.535414415305	1
0	26065	13220.665407234976	0
0	26069	13221.13756508491	1
0	26070	13221.726433567876	0
0	26074	13222.193989802414	1
0	26075	13222.751419144111	0
0	26079	13222.788464642898	1
0	26080	13223.873914847603	0
0	26084	13223.981128467607	1
0	26085	13224.953155817917	0
0	26089	13225.70939040913	1
0	26090	13226.115877150918	0
0	26097	13227.545414029783	1
0	26098	13228.047743843949	0
0	26165	13275.056831058892	1
0	26166	13275.85371403626	0
0	26195	13295.27826558887	1
0	26196	13295.525771673549	0
0	26210	13314.177313725059	1
0	26211	13314.241869428895	0
0	26220	13317.366852888886	1
0	26221	13317.896630956491	0
0	26300	13372.978946302517	1
0	26301	13373.458967752609	0
0	26305	13374.026782939965	1
0	26308	13374.529431971389	0
0	26312	13374.927244436104	1
0	26313	13375.626791529211	0
0	26320	13376.950552939605	1
0	26322	13377.289007235843	2
0	26323	13377.477420953329	1
0	26327	13378.069822834997	2
0	26328	13378.538027113158	1
0	26332	13378.602120080071	2
0	26333	13379.503934156004	1
0	26337	13380.171670284701	2
0	26338	13380.521810663066	1
0	26341	13381.674045244458	0
0	26345	13381.90607365318	1
0	26347	13382.454474238781	2
0	26348	13382.531876303016	1
0	26352	13382.823628068689	2
0	26353	13383.587577424052	1
0	26356	13384.401493904128	0
0	26360	13384.907046904272	1
0	26361	13385.31221602172	0
0	26395	13414.382053487711	1
0	26396	13415.491307987364	0
0	26402	13416.240782828221	1
0	26403	13416.532980068212	0
0	26407	13417.245375734609	1
0	26409	13417.365906488298	2
0	26410	13417.466671228127	1
0	26414	13417.635539014779	2
0	26415	13418.572161380292	1
0	26418	13419.654419761893	0
0	26525	13507.62392488452	1
0	26526	13507.890752085564	0
0	26595	13557.178516646699	1
0	26596	13557.602265143387	0
0	26695	13637.269426603587	1
0	26696	13637.442619518349	0
0	26740	13680.681925078781	1
0	26742	13680.955727240751	2
0	26743	13681.557965951821	1
0	26746	13682.668424565101	0
0	26760	13686.73479254793	1
0	26761	13687.285676788201	0
0	26775	13690.03021081106	1
0	26776	13690.435456384425	0
0	26795	13701.612275993611	1
0	26796	13702.277192436831	0
0	26800	13702.406067309992	1
0	26801	13703.353606055884	0
0	26810	13705.369752331866	1
0	26813	13705.646683870467	0
0	26820	13706.837668516778	1
0	26822	13707.528408644019	2
0	26823	13707.700479745051	1
0	26826	13708.723579519825	0
0	26835	13710.401111233372	1
0	26838	13711.262535021838	0
0	26842	13711.424342062289	1
0	26844	13711.888434189568	2
0	26845	13712.278256389044	1
0	26849	13713.088125556664	2
0	26850	13713.330047744617	1
0	26853	13714.338711906329	0
0	26857	13714.845059645146	1
0	26859	13715.392063977944	2
0	26860	13715.471642838616	1
0	26864	13716.298184839344	2
0	26865	13716.424712169647	1
0	26868	13717.526236679695	0
0	26875	13719.233826018694	1
0	26877	13719.274757167791	2
0	26878	13719.511458313475	1
0	26884	13720.592647117129	2
0	26885	13720.643012290737	1
0	26888	13721.588863072461	0
0	26892	13722.424186996535	1
0	26893	13722.698130271035	0
0	26900	13723.930231138128	1
0	26901	13724.488288321636	0
0	26965	13772.081631239725	1
0	26966	13772.115635106276	0
0	26970	13772.218319642126	1
0	26971	13772.992695703014	0
0	26985	13775.610148790227	1
0	26988	13775.788379447812	0
0	26995	13777.153761415693	1
0	26996	13777.758235515931	0
0	27020	13798.064825904328	1
0	27021	13798.157436636393	0
0	27045	13812.393509616469	1
0	27046	13813.451899798157	0
0	27090	13828.253861014879	1
0	27093	13828.873107525863	0
0	27140	13845.437993885746	1
0	27142	13845.824285820384	2
0	27143	13846.336831793247	1
0	27147	13846.498904394148	2
0	27148	13847.409373842797	1
0	27152	13847.711938186325	2
0	27153	13848.258365120052	1
0	27157	13848.410605476109	2
0	27158	13849.226145241654	1
0	27162	13849.362782449169	2
0	27163	13850.073809051572	1
0	27166	13851.139181409089	0
0	27172	13851.599690792397	1
0	27173	13852.119031223154	0
0	27180	13853.469807437438	1
0	27181	13854.364882402367	0
0	27270	13904.86512441476	1
0	27271	13905.492572763385	0
0	27275	13905.510248609835	1
0	27277	13906.56641745519	2
0	27278	13906.689622397264	1
0	27282	13907.392782867255	2
0	27283	13907.727617652164	1
0	27286	13908.589762407364	0
0	27290	13908.607508207307	1
0	27292	13908.62232489412	2
0	27293	13909.765188693078	1
0	27296	13910.756991987405	0
0	27315	13916.584533817045	1
0	27316	13917.278743414698	0
0	27325	13921.568224501207	1
0	27326	13921.704241106046	0
0	27340	13928.103552820286	1
0	27343	13928.482938490555	0
0	27347	13928.756905937147	1
0	27348	13929.487213138704	0
0	27352	13929.541656694047	1
0	27353	13930.576890211579	0
0	27365	13933.528595266592	1
0	27366	13933.802924256519	0
0	27380	13936.835319184289	1
0	27381	13936.900700533237	0
0	27570	14070.436304211925	1
0	27571	14070.62803464487	0
0	27582	14071.861891020624	1
0	27583	14072.626269077275	0
0	27595	14075.285885994951	1
0	27596	14075.611593424015	0
0	27615	14091.291661130115	1
0	27616	14091.411067897629	0
0	27625	14092.823172818932	1
0	27626	14093.254682187632	0
0	27650	14098.885448424017	1
0	27651	14099.150425179024	0
0	27675	14103.412449663087	1
0	27676	14103.915016068426	0
0	27685	14105.690822099875	1
0	27686	14105.746754349956	0
0	27692	14106.84548958207	1
0	27695	14106.886178588682	0
0	27699	14107.227674927883	1
0	27702	14107.758349757456	0
0	27712	14110.572829581787	1
0	27713	14110.968032122405	0
0	27765	14128.048287051809	1
0	27766	14128.143820378569	0
0	27820	14150.871000931816	1
0	27821	14151.707440962545	0
0	27825	14152.235693850945	1
0	27826	14152.877781252186	0
0	27855	14172.254739386619	1
0	27856	14172.275709329152	0
0	27865	14177.117283942894	1
0	27866	14177.572709526975	0
0	27880	14193.600104472278	1
0	27881	14193.814574874315	0
0	27967	14232.563757055688	1
0	27968	14233.032869453976	0
0	27985	14238.181278479197	1
0	27988	14238.784616958912	0
0	28005	14251.264624919662	1
0	28006	14251.481359551371	0
0	28010	14252.053218451996	1
0	28011	14252.39123589442	0
0	28075	14304.089894958743	1
0	28076	14304.293222312075	0
0	28080	14304.872663339432	1
0	28081	14305.29820233705	0
0	28105	14314.849352464092	1
0	28106	14315.732999361935	0
0	28150	14335.192314126009	1
0	28151	14335.654365042318	0
0	28160	14336.96922452041	1
0	28161	14337.750247154665	0
0	28172	14340.293721387669	1
0	28173	14340.606045701617	0
0	28260	14383.976470729677	1
0	28261	14384.445456673593	0
0	28265	14384.98924297584	1
0	28266	14385.617570746985	0
0	28290	14393.631089170282	1
0	28291	14394.032207881708	0
0	28300	14398.116656150105	1
0	28301	14398.187390441817	0
0	28305	14398.390205562079	1
0	28306	14399.220074015666	0
0	28334	14406.467390607131	1
0	28335	14407.265162683882	0
0	28342	14408.909816166904	1
0	28343	14409.204337214444	0
0	28350	14410.659899353489	1
0	28352	14410.872353332124	2
0	28353	14411.16593850008	1
0	28356	14412.353149705611	0
0	28365	14413.422380742946	1
0	28367	14414.015446267459	2
0	28368	14414.349836884017	1
0	28371	14415.198628778613	0
0	28400	14439.07889307466	1
0	28401	14439.711441830558	0
0	28410	14441.36137702304	1
0	28411	14441.741379803824	0
0	28420	14447.547412122603	1
0	28421	14447.96230676459	0
0	28540	14551.362266483967	1
0	28541	14552.218987738706	0
0	28550	14553.841382340541	1
0	28551	14554.264780438404	0
0	28575	14570.182662213213	1
0	28578	14570.473048037263	0
0	28587	14571.441690047762	1
0	28588	14572.193387908181	0
0	28595	14574.145401300996	1
0	28596	14574.193521310082	0
0	28615	14583.863160245861	1
0	28616	14584.602921934479	0
0	28620	14585.350987867343	1
0	28621	14585.666616606579	0
0	28642	14593.549377696894	1
0	28643	14594.151794435271	0
0	28660	14597.403629610553	1
0	28661	14597.942909482029	0
0	28675	14601.427883564423	1
0	28676	14601.949242889268	0
0	28725	14637.197122813032	1
0	28726	14637.255170426923	0
0	28770	14675.559108193361	1
0	28771	14675.807856813979	0
0	28780	14677.335762229037	1
0	28781	14678.091949173749	0
0	28800	14686.984825181809	1
0	28801	14687.702764457679	0
0	28810	14694.982381927102	1
0	28811	14695.787967172859	0
0	28820	14697.714918136839	1
0	28821	14697.937692750374	0
0	28825	14698.000548620123	1
0	28826	14698.833963868896	0
0	28885	14722.762867887713	1
0	28886	14722.763938364971	0
0	28930	14737.025258169668	1
0	28931	14738.092620672011	0
0	28970	14758.864967886628	1
0	28971	14758.957695376556	0
0	29040	14839.705921346927	1
0	29041	14840.709367742012	0
0	29050	14843.039675712072	1
0	29051	14843.738119911629	0
0	29055	14844.323877098229	1
0	29057	14844.562968675775	2
0	29058	14844.586570684652	1
0	29062	14845.100877910011	2
0	29063	14845.465660971723	1
0	29068	14846.602550310682	0
0	29077	14848.568043838844	1
0	29078	14848.586033420864	0
0	29110	14873.161472428072	1
0	29111	14873.246704486117	0
0	29185	14924.252771722885	1
0	29186	14924.881941663217	0
0	29227	14954.160354449063	1
0	29228	14954.279721810389	0
0	29232	14954.365956834032	1
0	29233	14955.297557320725	0
0	29290	14982.033514948614	1
0	29291	14982.558035649947	0
0	29360	15038.09870360423	1
0	29361	15038.361255708172	0
0	29370	15039.477152785175	1
0	29371	15040.298373172267	0
0	29435	15106.216676793574	1
0	29436	15106.399001675783	0
0	29455	15116.777728588098	1
0	29456	15117.567179941434	0
0	29495	15150.895776246363	1
0	29496	15151.443342323991	0
0	29560	15209.297507408735	1
0	29561	15209.469034624043	0
0	29570	15211.255706911106	1
0	29574	15211.904755515294	2
0	29575	15212.150561318897	1
0	29578	15213.01286139011	0
0	29582	15213.359045708469	1
0	29583	15214.166577685043	0
0	29620	15228.806646169473	1
0	29621	15229.453698050976	0
0	29630	15230.44461995999	1
0	29631	15231.516419017129	0
0	29642	15233.144506243156	1
0	29643	15233.603057644796	0
0	29650	15234.620046483403	1
0	29654	15235.352003263581	2
0	29655	15235.505972551555	1
0	29658	15236.644657069538	0
0	29662	15237.034102271477	1
0	29663	15237.466774342396	0
0	29667	15237.520241667825	1
0	29668	15238.336854062509	0
0	29675	15239.406324178368	1
0	29676	15240.479449179117	0
0	29682	15241.428823496614	1
0	29685	15241.558880785574	0
0	29689	15241.609591450571	1
0	29691	15242.449064564008	2
0	29692	15242.552043884807	1
0	29695	15243.706613629312	0
0	29702	15244.62508873093	1
0	29704	15245.250305141633	2
0	29705	15245.380115588476	1
0	29708	15246.461251715851	0
0	29715	15247.723077947235	1
0	29716	15248.669401103539	0
0	29730	15251.464453562418	1
0	29731	15252.368416656991	0
0	29755	15272.365285212951	1
0	29756	15273.350604557714	0
0	29760	15273.352139152565	1
0	29763	15274.49308083188	0
0	29767	15274.973314085459	1
0	29768	15275.431693449525	0
0	29780	15279.825341800453	1
0	29781	15280.034373123386	0
0	29790	15281.957586623111	1
0	29791	15282.140842062008	0
0	29795	15282.749947303443	1
0	29796	15283.155054221727	0
0	29810	15286.010775615354	1
0	29811	15286.549436236387	0
0	29820	15291.012459286632	1
0	29821	15291.181839402514	0
0	29840	15299.893785931929	1
0	29841	15300.414003586422	0
0	29860	15318.617130260216	1
0	29861	15318.925045366365	0
0	29890	15351.181039733207	1
0	29891	15351.291763610637	0
0	29900	15353.992404103257	1
0	29901	15354.82126617647	0
0	29905	15355.530262411181	1
0	29906	15355.946849058114	0
0	29910	15356.494781923634	1
0	29911	15356.962237703625	0
0	29925	15360.396822172836	1
0	29926	15361.288777299877	0
0	29935	15363.314622546674	1
0	29936	15363.880543552737	0
0	29955	15371.481803980424	1
0	29956	15372.099472480499	0
0	29960	15372.64227019185	1
0	29962	15372.968995547025	2
0	29963	15373.066439055697	1
0	29967	15373.077474425382	2
0	29969	15373.653359632802	3
0	29970	15374.24579997654	2
0	29973	15375.058266919897	1
0	29976	15376.148231415124	0
0	30000	15385.567303759718	1
0	30001	15386.524072165208	0
0	30015	15389.116098895494	1
0	30016	15389.710208100394	0
0	30040	15397.650528749663	1
0	30041	15398.129361964265	0
0	30090	15452.678973376814	1
0	30091	15452.79717807245	0
0	30105	15455.339956279394	1
0	30106	15456.198296336156	0
0	30110	15456.300983527958	1
0	30112	15456.823977154141	2
0	30113	15457.268195884839	1
0	30117	15457.729897757273	2
0	30118	15458.072128546682	1
0	30123	15459.129808991381	0
0	30127	15460.245925256052	1
0	30128	15460.249333446079	0
0	30132	15461.023963701622	1
0	30134	15461.039631036582	2
0	30135	15461.122335465045	1
0	30138	15462.144047838428	0
0	30142	15462.318114033253	1
0	30143	15462.990280875822	0
0	30205	15493.499586662224	1
0	30206	15494.299739160955	0
0	30220	15502.323677664604	1
0	30221	15502.984262849138	0
0	30230	15504.875401766753	1
0	30231	15505.359153798277	0
0	30260	15514.491069041979	1
0	30261	15514.979269188178	0
0	30340	15571.975744546337	1
0	30341	15572.463193577503	0
0	30345	15572.939876648551	1
0	30346	15573.488302016978	0
0	30370	15580.352976353329	1
0	30371	15580.996997616216	0
0	30390	15584.610783931399	1
0	30391	15585.386240717499	0
0	30395	15585.835142701524	1
0	30396	15586.45525099217	0
0	30400	15586.547719245931	1
0	30401	15587.257361543281	0
0	30425	15593.322704106131	1
0	30427	15593.635242658338	2
0	30428	15593.953827441253	1
0	30432	15594.28075953206	2
0	30433	15594.861660111372	1
0	30437	15595.429906170807	2
0	30438	15595.964764776037	1
0	30441	15596.939123726685	0
0	30450	15597.902238627929	1
0	30453	15598.756426146062	0
0	30457	15598.835504065968	1
0	30461	15599.617067322567	2
0	30462	15599.923247687792	1
0	30465	15600.89565944373	0
0	30469	15601.446846769419	1
0	30470	15601.854951552947	0
0	30505	15618.509781038616	1
0	30506	15618.761101313655	0
0	30525	15629.272770029074	1
0	30526	15630.058974986423	0
0	30580	15649.305993535036	1
0	30581	15649.594267342012	0
0	30590	15650.536655455086	1
0	30591	15651.441264125104	0
0	30605	15680.553764903887	1
0	30606	15681.463669244715	0
0	30670	15723.635606994122	1
0	30671	15723.935977465838	0
0	30680	15726.647872253529	1
0	30681	15727.266161197419	0
0	30715	15756.429437138767	1
0	30718	15757.06735185544	0
0	30725	15758.855038946098	1
0	30726	15758.925891727777	0
0	30765	15779.506570962811	1
0	30766	15780.206577672003	0
0	30800	15819.955843524568	1
0	30801	15820.111044621301	0
0	30840	15839.255355413562	1
0	30841	15840.090252303071	0
0	30930	15935.737234883196	1
0	30931	15936.208202973971	0
0	30940	15947.027088199432	1
0	30941	15948.172317131686	0
0	30980	15966.018131278274	1
0	30981	15966.560963445496	0
0	30990	15968.115601097395	1
0	30991	15968.756241167523	0
0	30995	15969.474308791829	1
0	30996	15969.869613412675	0
0	31000	15970.458401986759	1
0	31002	15970.513418443091	2
0	31004	15970.688695371631	3
0	31005	15970.813361505699	2
0	31009	15971.017720789351	3
0	31010	15971.761181339902	2
0	31014	15972.226879780241	3
0	31015	15972.820393656847	2
0	31018	15973.779407662806	1
0	31022	15973.977942616522	2
0	31023	15974.912502926868	1
0	31027	15975.702705479375	2
0	31028	15975.927003112902	1
0	31031	15976.948229355366	0
0	31035	15977.07410017466	1
0	31037	15977.941091373984	2
0	31038	15978.030842791592	1
0	31041	15978.98456027154	0
0	31070	16000.083270065605	1
0	31071	16000.332515960043	0
0	31095	16007.374952983081	1
0	31096	16008.040370353127	0
0	31100	16008.328952101895	1
0	31101	16008.84776963657	0
0	31105	16009.07527273501	1
0	31106	16009.989356128967	0
0	31200	16070.015727538747	1
0	31201	16070.260668036339	0
0	31255	16106.648191780619	1
0	31258	16107.159397021058	0
0	31265	16108.237547986468	1
0	31266	16109.225767229433	0
0	31295	16119.017356357771	1
0	31296	16119.812838093892	0
0	31305	16121.575425487413	1
0	31306	16122.050484149563	0
0	31320	16125.153540151119	1
0	31321	16125.373734240336	0
0	31325	16125.563873087258	1
0	31326	16126.237861952567	0
0	31330	16127.070132390984	1
0	31331	16127.30171051287	0
0	31335	16128.206363883662	1
0	31336	16128.28650562317	0
0	31400	16165.935569111874	1
0	31401	16166.576554667567	0
0	31410	16167.959726608282	1
0	31411	16168.60208218959	0
0	31415	16168.614302415074	1
0	31416	16169.746734472782	0
0	31435	16176.445622302184	1
0	31436	16176.678299971005	0
0	31440	16177.370089437994	1
0	31441	16177.823998720558	0
0	31455	16181.517528076054	1
0	31456	16182.019141691126	0
0	31460	16182.220479405542	1
0	31461	16182.986691970047	0
0	31475	16191.160431401641	1
0	31476	16191.697445984422	0
0	31487	16194.532274807496	1
0	31488	16194.640571475675	0
0	31492	16194.816654529047	1
0	31493	16195.74338880367	0
0	31497	16196.057488341227	1
0	31498	16196.93422755943	0
0	31530	16223.242738286273	1
0	31531	16223.82987956194	0
0	31575	16276.744246375498	1
0	31576	16277.296174866303	0
0	31630	16316.896042626596	1
0	31633	16317.659244778325	0
0	31637	16318.163714610201	1
0	31638	16318.756274345742	0
0	31642	16319.656960748829	1
0	31643	16319.721079629139	0
0	31745	16388.93432760294	1
0	31746	16389.253144205711	0
0	31760	16391.844712704726	1
0	31762	16392.147155474481	2
0	31763	16392.758770684494	1
0	31766	16393.828928346249	0
0	31790	16404.69736510135	1
0	31791	16405.481764614219	0
0	31827	16413.299410628359	1
0	31828	16413.587672272657	0
0	31837	16415.049080655793	1
0	31838	16415.381968872767	0
0	31850	16417.791185235703	1
0	31851	16418.111132002767	0
0	31857	16418.223114020181	1
0	31859	16418.395549297624	2
0	31860	16418.984931630879	1
0	31865	16419.872049177024	0
0	31869	16420.553174123527	1
0	31870	16420.682002585526	0
0	31877	16421.587668370754	1
0	31879	16422.051162297598	2
0	31880	16422.634851491037	1
0	31884	16422.975957386768	2
0	31887	16423.551930574752	1
0	31891	16424.426456715642	2
0	31892	16424.600947529781	1
0	31895	16425.640626865677	0
0	31902	16427.058872369705	1
0	31903	16427.585833476163	0
0	31915	16430.641808130008	1
0	31918	16431.420649092165	0
0	31924	16431.683667921958	1
0	31925	16432.381167349764	0
0	31960	16445.762506008191	1
0	31961	16446.485397270951	0
0	31965	16446.60205855505	1
0	31966	16447.469249613653	0
0	31970	16447.78491687108	1
0	31971	16448.650092991418	0
0	31980	16451.399257641527	1
0	31981	16451.799064433152	0
0	32005	16483.056537827511	1
0	32006	16483.583379307286	0
0	32030	16491.220644137945	1
0	32031	16491.352673465701	0
0	32045	16506.417882567219	1
0	32046	16506.597054098365	0
0	32070	16520.78308457641	1
0	32071	16521.018318591215	0
0	32090	16537.25020261063	1
0	32091	16537.91664365957	0
0	32097	16538.760815176074	1
0	32098	16538.808708423362	0
0	32102	16539.431055272402	1
0	32103	16539.894716572375	0
0	32110	16541.207487706292	1
0	32111	16541.952545449031	0
0	32130	16557.684101483043	1
0	32131	16558.500647341837	0
0	32170	16583.122275704116	1
0	32171	16583.169732191303	0
0	32175	16583.760135227459	1
0	32176	16584.148555168958	0
0	32225	16609.254956448339	1
0	32226	16609.888510717741	0
0	32230	16610.519645499787	1
0	32231	16610.723422643832	0
0	32260	16621.310377393512	1
0	32261	16621.420819501947	0
0	32280	16633.610003283285	1
0	32283	16634.547273806378	0
0	32300	16649.335447529458	1
0	32301	16649.753486848257	0
0	32325	16655.890909517639	1
0	32326	16656.12201462988	0
0	32370	16694.758727607564	1
0	32371	16694.897093740391	0
0	32375	16694.923477453823	1
0	32378	16696.072492000653	0
0	32382	16696.334100436901	1
0	32383	16696.916705073329	0
0	32392	16698.719070137255	1
0	32393	16698.97894012286	0
0	32397	16698.982739289446	1
0	32398	16699.97209808706	0
0	32425	16706.712367060684	1
0	32426	16706.731953820511	0
0	32435	16708.448444208836	1
0	32436	16708.700363207161	0
0	32445	16710.703857220706	1
0	32446	16710.902011674195	0
0	32455	16713.777276165929	1
0	32456	16714.061686292791	0
0	32470	16717.05201255369	1
0	32471	16717.748103444823	0
0	32485	16720.173636340638	1
0	32486	16720.837258710565	0
0	32495	16722.705526765154	1
0	32496	16723.106969614552	0
0	32500	16723.273378714147	1
0	32503	16724.245536702724	0
0	32519	16727.490397922968	1
0	32520	16727.672106608586	0
0	32552	16735.471452764813	1
0	32553	16735.671719642932	0
0	32570	16743.049799421141	1
0	32573	16743.414746260875	0
0	32582	16745.093416046664	1
0	32583	16745.414697145903	0
0	32595	16747.531952496714	1
0	32598	16748.205192938586	0
0	32605	16750.104460681367	1
0	32606	16750.269687015051	0
0	32650	16768.884540940382	1
0	32651	16769.232507799604	0
0	32665	16771.208965600341	1
0	32668	16771.946777113379	0
0	32685	16775.160690263783	1
0	32686	16776.096899810538	0
0	32690	16776.375826495414	1
0	32691	16777.151946873788	0
0	32702	16778.72135261905	1
0	32703	16779.060833739314	0
0	32725	16783.224678636947	1
0	32730	16783.685358198463	0
0	32742	16785.987262387745	1
0	32743	16786.85487376173	0
0	32752	16788.460722827812	1
0	32753	16788.589540815735	0
0	32760	16789.537337934581	1
0	32761	16790.318068243199	0
0	32770	16791.871331317069	1
0	32771	16792.135765855954	0
0	32800	16813.210659538154	1
0	32801	16814.053445328144	0
0	32805	16814.440312239346	1
0	32808	16815.045573674911	0
0	32850	16855.131431964471	1
0	32852	16855.720508201725	2
0	32853	16856.031045396793	1
0	32856	16856.892356639895	0
0	32860	16857.472729520644	1
0	32861	16857.988259548209	0
0	32865	16858.202048806901	1
0	32866	16859.094332181922	0
0	32920	16907.813454458723	1
0	32921	16908.77709213168	0
0	33000	16938.603394539871	1
0	33001	16939.422755440208	0
0	33052	16963.643848786755	1
0	33053	16963.704410905444	0
0	33057	16963.77466327391	1
0	33058	16964.538446679392	0
0	33095	16977.178153106592	1
0	33096	16977.542961235314	0
0	33125	17004.246391111014	1
0	33126	17004.760149316101	0
0	33165	17019.318187001346	1
0	33166	17020.033264985105	0
0	33187	17024.771593705485	1
0	33189	17025.195010651789	2
0	33190	17025.487690307484	1
0	33194	17026.580291428422	2
0	33195	17026.619783831858	1
0	33202	17027.663469773908	0
0	33206	17028.112734840588	1
0	33207	17028.844976821081	0
0	33216	17030.536866199369	1
0	33217	17030.986398571548	0
0	33223	17031.968812534771	1
0	33226	17032.133236590684	0
0	33230	17033.228537841523	1
0	33231	17033.300387220461	0
0	33243	17036.239914255422	1
0	33244	17036.298428376023	0
0	33251	17038.204661594895	1
0	33252	17038.274032007069	0
0	33264	17040.395237691929	1
0	33267	17041.356716648307	0
0	33305	17054.467426651138	1
0	33306	17054.940950701884	0
0	33330	17061.410105941846	1
0	33331	17061.999127477958	0
0	33335	17062.874820291068	1
0	33336	17063.150503919265	0
0	33340	17063.433712637954	1
0	33341	17064.326765369895	0
0	33370	17077.118582340137	1
0	33371	17077.371312660301	0
0	33382	17078.745135790733	1
0	33383	17079.076395177325	0
0	33387	17079.461171948049	1
0	33388	17079.984668648286	0
0	33392	17080.038566451251	1
0	33393	17081.151068842082	0
0	33400	17082.149974089077	1
0	33401	17082.901749677627	0
0	33445	17100.706109843473	1
0	33446	17101.429233426359	0
0	33585	17171.718481733283	1
0	33586	17171.825613255031	0
0	33650	17191.681622807352	1
0	33651	17191.709892001253	0
0	33695	17247.893208591141	1
0	33696	17248.727246754453	0
0	33742	17277.876638552757	1
0	33743	17278.376499314334	0
0	33747	17278.544262648188	1
0	33749	17278.826255952541	2
0	33750	17279.219020551357	1
0	33754	17279.987952272624	2
0	33755	17280.359957138735	1
0	33759	17281.207752367088	2
0	33760	17281.334149001732	1
0	33763	17282.524592345774	0
0	33767	17282.915706850554	1
0	33768	17283.472272760708	0
0	33772	17283.55469543934	1
0	33773	17284.605317904808	0
0	33862	17343.198596453597	1
0	33863	17343.478623024917	0
0	33872	17344.668422506412	1
0	33876	17345.385106923407	2
0	33877	17345.709010820633	1
0	33880	17346.721380967817	0
0	33889	17348.176446288439	1
0	33890	17348.711715410727	0
0	33894	17349.697099334986	1
0	33895	17349.880008197653	0
0	33899	17350.101725890105	1
0	33903	17350.778910025645	2
0	33904	17350.82465232339	1
0	33908	17350.989446691093	2
0	33909	17351.809687603342	1
0	33912	17352.875780742227	0
0	33919	17354.127116715184	1
0	33920	17354.812267580985	0
0	33929	17356.15726666606	1
0	33930	17356.489648610059	0
0	33975	17369.478927858024	1
0	33976	17369.57311129101	0
0	34000	17390.124651671039	1
0	34001	17391.164453857898	0
0	34015	17397.817337646064	1
0	34017	17397.925362057425	2
0	34019	17397.927216982773	3
0	34020	17398.187886800739	2
0	34024	17398.843377052836	3
0	34025	17399.278992574598	2
0	34029	17400.253713335926	3
0	34030	17400.413440444256	2
0	34034	17401.39414390041	3
0	34035	17401.397422868601	2
0	34039	17401.431899204996	3
0	34041	17401.447702598434	4
0	34043	17402.340358229989	5
0	34044	17402.551066418021	4
0	34051	17403.722425973072	3
0	34054	17404.720759264036	2
0	34058	17405.48532035338	3
0	34059	17405.856660477566	2
0	34062	17406.991401700145	1
0	34066	17407.039096881991	2
0	34067	17407.912911247397	1
0	34072	17409.095198726962	0
0	34078	17409.832133716743	1
0	34079	17409.914638891472	0
0	34086	17411.517912712663	1
0	34087	17411.887383885803	0
0	34137	17437.14256455425	1
0	34138	17437.433074404091	0
0	34145	17438.421417408849	1
0	34146	17439.33376978764	0
0	34150	17439.9136787133	1
0	34151	17440.479275950675	0
0	34157	17440.980715734176	1
0	34158	17441.376877423634	0
0	34162	17441.5259215045	1
0	34163	17442.392359240518	0
0	34167	17443.042210768212	1
0	34168	17443.480661121083	0
0	34175	17445.034117297453	1
0	34176	17445.714955503752	0
0	34185	17447.052024528224	1
0	34186	17447.850152057482	0
0	34190	17448.503949993635	1
0	34191	17448.884020555465	0
0	34195	17449.359564007278	1
0	34196	17449.693964040818	0
0	34317	17546.060052356015	1
0	34318	17546.283965209896	0
0	34390	17607.305412173303	1
0	34391	17607.322163278469	0
0	34410	17612.116734981708	1
0	34413	17612.790579357121	0
0	34417	17612.833808254124	1
0	34418	17613.888750707015	0
0	34425	17614.978621605835	1
0	34427	17615.46774870466	2
0	34428	17615.750580275181	1
0	34433	17616.697121027327	0
0	34437	17617.066923630366	1
0	34438	17617.516113020788	0
0	34445	17618.662242583278	1
0	34446	17619.556033882435	0
0	34460	17622.897739249632	1
0	34461	17623.735003143662	0
0	34465	17623.882291784098	1
0	34468	17624.537356510406	0
0	34477	17625.501082068588	1
0	34479	17626.377420429037	2
0	34480	17626.401424448399	1
0	34483	17627.30494586278	0
0	34575	17658.300018861014	1
0	34576	17658.846424228618	0
0	34622	17700.020349034494	1
0	34623	17700.107064237887	0
0	34627	17700.717924743045	1
0	34628	17701.051993677275	0
0	34695	17733.854073072167	1
0	34696	17734.396479131265	0
0	34725	17744.552401614122	1
0	34727	17744.671133772464	2
0	34728	17744.876373704998	1
0	34733	17745.872159882924	0
0	34737	17746.149057257087	1
0	34738	17746.827877657032	0
0	34742	17747.216091847153	1
0	34743	17747.927570295995	0
0	34775	17769.959123286327	1
0	34776	17770.071929796543	0
0	34790	17773.23439833292	1
0	34791	17773.902052708797	0
0	34800	17775.881492371191	1
0	34801	17775.998259797215	0
0	34845	17795.368677475077	1
0	34846	17796.240138453918	0
0	34857	17800.606419800127	1
0	34858	17801.327740300673	0
0	34900	17814.929539077772	1
0	34901	17815.328678936564	0
0	34920	17825.87291555211	1
0	34921	17826.004671166636	0
0	34925	17826.476677242706	1
0	34926	17827.026516591556	0
0	34955	17842.199000230951	1
0	34956	17842.951372014697	0
0	34975	17847.243603914766	1
0	34976	17847.461597084933	0
0	35080	17929.829037145396	1
0	35081	17930.613043995764	0
0	35135	17973.113216693035	1
0	35136	17973.17556964036	0
0	35170	17994.156726247301	1
0	35171	17994.483362317894	0
0	35175	17994.621146413146	1
0	35176	17995.37111125632	0
0	35195	18003.935627322081	1
0	35196	18004.147933488906	0
0	35200	18004.784489681155	1
0	35201	18005.203842306704	0
0	35205	18005.709010877325	1
0	35206	18006.332410665144	0
0	35215	18007.477710681111	1
0	35216	18008.47738020961	0
0	35267	18025.538442349471	1
0	35268	18025.969111097404	0
0	35310	18047.9535675426	1
0	35311	18048.579328881408	0
0	35315	18048.783093214983	1
0	35316	18049.535311661771	0
0	35350	18098.088216469128	1
0	35351	18098.234970394404	0
0	35360	18102.94116423521	1
0	35361	18103.685222763792	0
0	35380	18110.696351173538	1
0	35381	18111.252484856807	0
0	35390	18112.522845285741	1
0	35391	18112.938496902753	0
0	35395	18113.854284585584	1
0	35396	18113.966532232594	0
0	35430	18124.411792246511	1
0	35431	18124.729752271871	0
0	35435	18124.768234248707	1
0	35436	18125.546956205803	0
0	35447	18130.768077509005	1
0	35448	18130.881178848032	0
0	35455	18132.605726388439	1
0	35456	18133.125100650318	0
0	35480	18139.185259261076	1
0	35483	18140.193574850236	0
0	35487	18140.313794397374	1
0	35488	18141.115460318674	0
0	35500	18144.103149221245	1
0	35501	18144.723116025071	0
0	35512	18147.009904217782	1
0	35513	18147.200140397045	0
0	35550	18215.440168748717	1
0	35551	18215.537125581615	0
0	35555	18215.854760964808	1
0	35556	18216.713910583146	0
0	35575	18229.513232954263	1
0	35576	18230.578944113173	0
0	35670	18287.449034745611	1
0	35671	18287.77957617833	0
0	35700	18297.300463116104	1
0	35702	18297.736375998474	2
0	35703	18297.913885741076	1
0	35706	18298.973505745316	0
0	35710	18299.099984073942	1
0	35711	18299.775606640847	0
0	35725	18304.729891251841	1
0	35726	18305.329084808348	0
0	35730	18306.114851545561	1
0	35731	18306.282711277126	0
0	35735	18306.532161350195	1
0	35736	18307.148954533661	0
0	35740	18307.768268519642	1
0	35743	18307.962588007717	0
0	35750	18309.38152235935	1
0	35751	18310.186114203061	0
0	35765	18312.451791855703	1
0	35768	18313.455907734897	0
0	35772	18314.271035488069	1
0	35773	18314.569373025972	0
0	35790	18320.091213424072	1
0	35792	18320.14536880997	2
0	35793	18320.340790452837	1
0	35797	18321.201606180292	2
0	35798	18321.349902175303	1
0	35801	18322.538077103003	0
0	35810	18323.638046388518	1
0	35812	18324.210498452764	2
0	35813	18324.444191770959	1
0	35818	18325.390516031399	0
0	35822	18325.505463861049	1
0	35824	18325.754740658351	2
0	35825	18326.447197131492	1
0	35829	18326.598860914571	2
0	35830	18327.548203333426	1
0	35834	18327.953330928427	2
0	35835	18328.535336761228	1
0	35839	18328.983509687009	2
0	35841	18329.002059759841	3
0	35842	18329.342159366845	2
0	35846	18329.460014769364	3
0	35847	18330.30276847729	2
0	35850	18331.360186853497	1
0	35853	18332.297997652138	0
0	35860	18334.103569725321	1
0	35862	18334.301653527629	2
0	35863	18334.325512618902	1
0	35866	18335.499612492374	0
0	35910	18363.405936408471	1
0	35911	18363.751636328479	0
0	36010	18427.551294998302	1
0	36011	18427.59474905279	0
0	36020	18429.44102702942	1
0	36021	18429.753958759373	0
0	36100	18504.911297120061	1
0	36101	18504.966100461011	0
0	36120	18509.290204055312	1
0	36121	18509.500361307921	0
0	36125	18509.573131461275	1
0	36126	18510.413068533806	0
0	36155	18518.670073460866	1
0	36156	18519.169849544031	0
0	36170	18528.327225532493	1
0	36171	18528.348329485606	0
0	36195	18550.71523584736	1
0	36196	18550.886123444836	0
0	36200	18550.938816855175	1
0	36201	18551.99396769651	0
0	36210	18553.319442142836	1
0	36212	18553.431712575594	2
0	36213	18553.946286966882	1
0	36216	18555.076128261022	0
0	36222	18555.629650819272	1
0	36223	18556.071727403018	0
0	36245	18563.717752860294	1
0	36246	18563.775887553101	0
0	36315	18599.702932943774	1
0	36316	18600.260621306419	0
0	36337	18604.604450929407	1
0	36338	18604.828210104749	0
0	36342	18604.986606937316	1
0	36344	18605.502479976976	2
0	36345	18605.83120158634	1
0	36348	18606.927146064423	0
0	36352	18607.073365708206	1
0	36353	18607.864274051812	0
0	36357	18607.905800208452	1
0	36358	18608.666018106908	0
0	36362	18608.946215551106	1
0	36363	18609.505442262654	0
0	36375	18612.161253020118	1
0	36376	18612.813741956041	0
0	36395	18620.105004700805	1
0	36396	18620.680771021048	0
0	36435	18644.734796078003	1
0	36437	18645.267517266279	2
0	36438	18645.271144603538	1
0	36442	18645.660560891199	2
0	36443	18646.326333949501	1
0	36447	18646.949029649318	2
0	36448	18647.409801512184	1
0	36452	18648.07231384061	2
0	36455	18648.528881830974	1
0	36459	18648.954040348155	2
0	36461	18649.066555690435	3
0	36462	18649.493912893692	2
0	36465	18650.510397569248	1
0	36470	18651.598974112579	0
0	36474	18652.156443564917	1
0	36475	18652.469575507072	0
0	36479	18652.785399584098	1
0	36480	18653.300431608287	0
0	36487	18654.832439051776	1
0	36488	18655.433858078783	0
0	36510	18680.825992362131	1
0	36511	18680.995216419875	0
0	36590	18718.861918988089	1
0	36591	18719.923510233019	0
0	36607	18722.270598195406	1
0	36608	18723.270957239346	0
0	36615	18724.406679287669	1
0	36616	18725.46176454304	0
0	36680	18782.558014636025	1
0	36681	18783.492272877097	0
0	36760	18835.588300228084	1
0	36761	18835.882414092237	0
0	36765	18836.160276041122	1
0	36766	18836.928503570167	0
0	36860	18928.167534097287	1
0	36862	18928.386599484601	2
0	36863	18929.188631865701	1
0	36866	18930.386275894514	0
0	36877	18931.859126689259	1
0	36878	18932.434859514369	0
0	36885	18933.512339711532	1
0	36886	18934.295213863107	0
0	36900	18937.461767568264	1
0	36903	18938.457958046355	0
0	36915	18940.349888008625	1
0	36916	18941.168864062436	0
0	36980	18984.752738467524	1
0	36981	18984.966772522379	0
0	37007	18999.972568544089	1
0	37008	19000.402204310656	0
0	37017	19001.654210754368	1
0	37018	19002.297508107633	0
0	37057	19012.638847357494	1
0	37058	19012.899550225355	0
0	37065	19014.304012625136	1
0	37066	19014.933767442827	0
0	37070	19015.338400508746	1
0	37073	19016.022028933049	0
0	37080	19017.386585060384	1
0	37081	19018.066158503436	0
0	37100	19028.275031223574	1
0	37103	19028.848786700589	0
0	37107	19029.429672792088	1
0	37108	19029.847738104293	0
0	37112	19030.304121600038	1
0	37114	19030.552486572983	2
0	37115	19030.984749551935	1
0	37118	19032.167726995775	0
0	37125	19033.683894352564	1
0	37126	19034.274994263591	0
0	37145	19039.501534432256	1
0	37146	19039.805750065176	0
0	37150	19040.390302877976	1
0	37151	19040.956473208564	0
0	37155	19041.675193365146	1
0	37156	19041.778841285566	0
0	37160	19042.311891760656	1
0	37161	19042.673690807605	0
0	37245	19122.728577757471	1
0	37246	19123.553771719079	0
0	37262	19126.801430350353	1
0	37263	19126.862681161671	0
0	37267	19127.120096747695	1
0	37268	19127.884927086311	0
0	37275	19129.435175417335	1
0	37276	19129.951660165063	0
0	37310	19147.122543174901	1
0	37311	19147.565259399925	0
0	37315	19147.976894753273	1
0	37316	19148.648931480952	0
0	37355	19167.602881092098	1
0	37356	19168.061939028757	0
0	37375	19173.955109853273	1
0	37376	19174.378778783315	0
0	37500	19234.123787300408	1
0	37501	19234.349437759946	0
0	37525	19282.01911440656	1
0	37528	19282.913588385252	0
0	37537	19284.424924879113	1
0	37538	19284.941629580842	0
0	37547	19286.085880932348	1
0	37548	19286.931385823959	0
0	37557	19288.026236814584	1
0	37560	19289.044142521047	0
0	37570	19291.522206625292	1
0	37571	19292.511185710752	0
0	37582	19294.723385542544	1
0	37583	19294.773718157378	0
0	37592	19296.598377248357	1
0	37593	19296.892082472206	0
0	37600	19298.240994666883	1
0	37601	19299.180546369371	0
0	37745	19384.771359089705	1
0	37746	19385.377749738041	0
0	37755	19387.975340105526	1
0	37756	19388.45186787852	0
0	37860	19477.487311920844	1
0	37861	19478.068799506917	0
0	37870	19479.142982061991	1
0	37871	19479.967331883914	0
0	37886	19481.775034659596	1
0	37887	19481.936528969134	0
0	37897	19483.819698795535	1
0	37900	19484.771252218399	0
0	37907	19486.215336072211	1
0	37909	19486.301504535686	2
0	37910	19486.809079122029	1
0	37915	19487.927696446001	0
0	37925	19490.131295641047	1
0	37926	19490.621741566013	0
0	38117	19650.754646175864	1
0	38118	19651.58566433161	0
0	38145	19663.997408174314	1
0	38146	19664.254268838971	0
0	38215	19705.768124250854	1
0	38216	19706.002552504222	0
0	38310	19779.469692440203	1
0	38313	19780.085665820832	0
0	38345	19792.611993333274	1
0	38347	19793.596807931798	2
0	38348	19793.625317760147	1
0	38351	19794.712162947524	0
0	38355	19795.155848267801	1
0	38356	19795.780481765289	0
0	38410	19813.216409213031	1
0	38412	19813.770519660038	2
0	38413	19814.284774199105	1
0	38416	19815.450935078296	0
0	38430	19820.314230404214	1
0	38431	19820.612013140096	0
0	38437	19821.279960673427	1
0	38438	19821.620567062459	0
0	38445	19823.173761783085	1
0	38446	19823.640205712764	0
0	38460	19831.061952794586	1
0	38461	19831.803855530254	0
0	38477	19838.714492047381	1
0	38478	19838.955491628557	0
0	38490	19841.833776179118	1
0	38491	19841.977844949499	0
0	38515	19848.428196862366	1
0	38516	19849.260159765118	0
0	38565	19894.224445179544	1
0	38566	19894.508933664851	0
0	38655	19960.559037311681	1
0	38656	19960.998902660616	0
0	38665	19962.55220728169	1
0	38667	19962.680683984495	2
0	38668	19963.104873649411	1
0	38671	19964.28466734384	0
0	38680	19965.504831503735	1
0	38682	19966.219397579193	2
0	38683	19966.529037696824	1
0	38686	19967.335917329558	0
0	38705	19974.785999749569	1
0	38706	19975.047262000223	0
0	38725	19979.499026019142	1
0	38728	19980.124325297606	0
0	38732	19980.174998448051	1
0	38733	19981.18749175679	0
0	38739	19982.056267500968	1
0	38740	19982.22222655315	0
0	38749	19983.533062823393	1
0	38750	19984.435326728523	0
0	38775	19991.489263163884	1
0	38776	19992.431832283606	0
0	38795	20011.554631557275	1
0	38796	20011.587773832306	0
0	38805	20012.965538336444	1
0	38806	20013.580005905866	0
0	38835	20036.326113243764	1
0	38836	20036.947000975731	0
0	38845	20039.17411593096	1
0	38846	20039.464377688582	0
0	38905	20077.561422879266	1
0	38906	20077.821482162929	0
0	38950	20100.828900212045	1
0	38951	20101.327585262338	0
0	38970	20114.296892314115	1
0	38971	20115.316570139725	0
0	39015	20151.969497292183	1
0	39016	20152.035424998952	0
0	39035	20157.950598460072	1
0	39036	20158.295958865939	0
0	39045	20159.514355268955	1
0	39046	20160.618882404586	0
0	39100	20198.100367981699	1
0	39103	20198.670819559186	0
0	39110	20200.102964582672	1
0	39111	20200.610143417823	0
0	39140	20222.689816863055	1
0	39141	20223.254091309045	0
0	39145	20223.909586516885	1
0	39147	20223.985259538034	2
0	39148	20224.061345490661	1
0	39152	20225.128745287742	2
0	39153	20225.19510976303	1
0	39156	20226.35332558801	0
0	39160	20226.86656669714	1
0	39161	20227.2685153182	0
0	39175	20229.637482020746	1
0	39176	20230.476102184344	0
0	39180	20230.535716684065	1
0	39182	20230.9472708758	2
0	39184	20231.038705760534	3
0	39185	20231.608128106154	2
0	39188	20232.484181232031	1
0	39191	20233.379276259828	0
0	39205	20238.20380230391	1
0	39207	20238.304101635236	2
0	39208	20238.912285340119	1
0	39211	20239.864760654986	0
0	39215	20240.573535676169	1
0	39216	20241.064698109225	0
0	39220	20241.476452150497	1
0	39222	20241.672724914385	2
0	39223	20241.989463567928	1
0	39226	20242.866935204816	0
0	39265	20260.62042688635	1
0	39266	20261.105809386367	0
0	39330	20329.175424581907	1
0	39331	20329.545123700204	0
0	39340	20331.482179287018	1
0	39341	20332.193858181608	0
0	39350	20333.356213602939	1
0	39351	20334.232439528142	0
0	39360	20336.146650987723	1
0	39362	20336.542199036214	2
0	39363	20336.925000187056	1
0	39367	20337.700504093077	2
0	39368	20337.935710445559	1
0	39372	20338.738485434674	2
0	39373	20338.914032631135	1
0	39376	20340.06563530122	0
0	39380	20340.065891838652	1
0	39382	20340.472611741022	2
0	39384	20340.666406278296	3
0	39385	20341.056434308971	2
0	39388	20342.00783005464	1
0	39392	20342.612232836755	2
0	39393	20342.856505685999	1
0	39397	20343.164189096844	2
0	39398	20343.949784106809	1
0	39401	20345.104152957863	0
0	39405	20345.244581350704	1
0	39406	20346.245133240475	0
0	39410	20347.254101555065	1
0	39411	20347.398382570828	0
0	39415	20347.43939104665	1
0	39416	20348.316883734102	0
0	39427	20350.365473763618	1
0	39428	20350.978231991084	0
0	39435	20351.931466428788	1
0	39436	20352.917916640641	0
0	39500	20370.907373560229	1
0	39503	20371.675274622848	0
0	39507	20371.976936883119	1
0	39510	20372.629870084801	0
0	39514	20373.486015192779	1
0	39515	20373.767383874801	0
0	39585	20417.388841913302	1
0	39586	20418.289384893341	0
0	39615	20424.761012860218	1
0	39616	20425.637732068436	0
0	39650	20434.51114308279	1
0	39651	20435.448932609634	0
0	39655	20436.145721803882	1
0	39660	20436.591629610231	0
0	39667	20438.45611886266	1
0	39668	20438.605246786515	0
0	39685	20442.824186783334	1
0	39686	20443.342238387887	0
0	39700	20445.650504540959	1
0	39701	20446.424451518543	0
0	39710	20448.438318654217	1
0	39711	20449.051388636446	0
0	39800	20499.740780062043	1
0	39801	20500.15248000881	0
0	39815	20505.234854321221	1
0	39816	20506.018930519589	0
0	39825	20512.416337747116	1
0	39826	20513.028112176777	0
0	39840	20516.920725911485	1
0	39841	20517.397164260002	0
0	39850	20518.539012396662	1
0	39851	20519.578848987689	0
0	39915	20561.154710648462	1
0	39917	20561.202507682205	2
0	39918	20561.429190738586	1
0	39921	20562.419845005584	0
0	39927	20562.829463130137	1
0	39929	20563.14095328294	2
0	39930	20563.355391994671	1
0	39934	20563.895864274853	2
0	39935	20564.238800680445	1
0	39939	20564.596295050975	2
0	39940	20565.200349035294	1
0	39943	20566.221028962632	0
0	39950	20567.311044427042	1
0	39952	20567.528970977185	2
0	39954	20567.541720026874	3
0	39955	20568.239700422895	2
0	39960	20569.043534660891	1
0	39963	20569.958710632839	0
0	39970	20571.346403206224	1
0	39972	20571.851387826318	2
0	39973	20572.198692621191	1
0	39977	20572.355477563974	2
0	39978	20573.198599822999	1
0	39983	20574.219601517257	0
0	39987	20574.374029427111	1
0	39989	20574.973098126827	2
0	39990	20575.331469419778	1
0	39994	20575.694295601602	2
0	39997	20576.498221885779	1
0	40000	20577.445769996748	0
0	40030	20599.547354483739	1
0	40031	20600.352365563573	0
0	40035	20600.66626739484	1
0	40036	20601.477499005986	0
0	40105	20641.797282143794	1
0	40106	20642.528972545124	0
0	40120	20650.649246377021	1
0	40122	20650.689452092913	2
0	40123	20651.191147943758	1
0	40126	20652.16119156497	0
0	40130	20652.546269415737	1
0	40131	20653.081068058949	0
0	40180	20679.432080066336	1
0	40181	20680.33933424903	0
0	40200	20691.239768966352	1
0	40202	20691.413159183058	2
0	40203	20692.135358244212	1
0	40207	20692.484810773655	2
0	40208	20693.213097693616	1
0	40211	20694.024396394597	0
0	40215	20694.352504445631	1
0	40216	20695.131454534767	0
0	40240	20701.598101071895	1
0	40241	20701.937187594167	0
0	40250	20703.396571462581	1
0	40251	20704.328685538151	0
0	40255	20704.954269911996	1
0	40256	20705.28301466271	0
0	40260	20705.538009782028	1
0	40261	20706.455932282151	0
0	40275	20709.826743965414	1
0	40276	20710.889778471	0
0	40320	20749.332296975619	1
0	40322	20749.793112234217	2
0	40323	20750.166427735296	1
0	40326	20751.20862164233	0
0	40330	20752.044824223105	1
0	40331	20752.097470665035	0
0	40360	20771.353053947959	1
0	40362	20771.408417798833	2
0	40363	20771.51839303924	1
0	40368	20772.416866538862	0
0	40380	20774.776861628931	1
0	40382	20775.019333400958	2
0	40383	20775.580235351129	1
0	40388	20776.714248852125	0
0	40392	20776.825959093981	1
0	40393	20777.596335942457	0
0	40470	20815.480437099815	1
0	40471	20816.511651444285	0
0	40477	20817.524956772492	1
0	40478	20817.614494958835	0
0	40600	20880.18944781637	1
0	40601	20880.36290568203	0
0	40620	20884.903866782565	1
0	40621	20885.072189967832	0
0	40682	20936.93999744155	1
0	40683	20936.942417173292	0
0	40690	20938.161781060984	1
0	40692	20938.423136753748	2
0	40694	20938.594513694268	3
0	40695	20938.856202165428	2
0	40700	20939.900956340245	1
0	40704	20940.880793752398	2
0	40705	20940.900694235432	1
0	40708	20942.089990155417	0
0	40715	20943.179435693778	1
0	40717	20943.714380589596	2
0	40718	20943.982853855211	1
0	40721	20944.795213554166	0
0	40725	20944.932722224804	1
0	40726	20945.642888843473	0
0	40740	20948.550463820254	1
0	40742	20948.553256655638	2
0	40743	20949.525467971426	1
0	40746	20950.342532901459	0
0	40750	20950.355629335141	1
0	40753	20951.484377684344	0
0	40880	21057.20743202635	1
0	40881	21058.138629284619	0
0	40905	21071.507992660512	1
0	40906	21071.676665595547	0
0	40915	21072.915168381596	1
0	40916	21073.648283671738	0
0	40920	21074.308984637597	1
0	40921	21074.777802508009	0
0	40930	21082.258318480946	1
0	40931	21082.383325410349	0
0	40962	21094.740376998281	1
0	40963	21094.880566874674	0
0	40995	21102.827539615175	1
0	40996	21103.286957372027	0
0	41030	21123.638785119667	1
0	41031	21123.719026304296	0
0	41050	21127.267254399856	1
0	41052	21127.517280420335	2
0	41053	21128.000694788337	1
0	41056	21128.851077372205	0
0	41070	21139.455623103705	1
0	41071	21139.789273830558	0
0	41077	21140.695065314343	1
0	41078	21140.752873654532	0
0	41085	21142.5382217442	1
0	41086	21142.898106546289	0
0	41120	21168.755318479322	1
0	41121	21169.373683217315	0
0	41130	21171.305015609446	1
0	41131	21171.769398131497	0
0	41135	21172.369644284903	1
0	41136	21172.636782889157	0
0	41140	21172.853002010159	1
0	41141	21173.579912498868	0
0	41145	21173.887399640013	1
0	41146	21174.474531348138	0
0	41150	21175.053466519008	1
0	41151	21175.50089554274	0
0	41155	21176.189748901938	1
0	41156	21176.333516367241	0
0	41175	21186.515317082555	1
0	41176	21187.427908457434	0
0	41185	21188.749850226418	1
0	41186	21189.30218713264	0
0	41192	21189.726190219457	1
0	41195	21190.453279914791	0
0	41199	21190.641387138753	1
0	41200	21191.426876560962	0
0	41204	21191.632921583046	1
0	41205	21192.426522919247	0
0	41209	21192.751985973347	1
0	41210	21193.625698309941	0
0	41214	21194.053114929793	1
0	41215	21194.788413658822	0
0	41219	21195.234585505443	1
0	41220	21195.673790843217	0
0	41229	21197.748395027057	1
0	41230	21197.751072621895	0
0	41305	21231.758178419058	1
0	41306	21232.104752024153	0
0	41315	21233.011560987218	1
0	41317	21233.199087190314	2
0	41318	21233.972807992792	1
0	41323	21235.075119349996	0
0	41327	21235.100136188262	1
0	41330	21235.875546636509	0
0	41340	21238.130019048164	1
0	41343	21239.14668236932	0
0	41352	21240.582143498774	1
0	41355	21241.293995429093	0
0	41362	21242.274411860667	1
0	41364	21242.686649087184	2
0	41365	21243.036490445009	1
0	41368	21244.152892700008	0
0	41385	21247.89970081084	1
0	41386	21249.017858021429	0
0	41415	21259.345526186263	1
0	41416	21259.415945870736	0
0	41425	21262.255676649503	1
0	41426	21262.725585446597	0
0	41440	21266.133207700392	1
0	41442	21266.248634641004	2
0	41443	21266.721191919946	1
0	41446	21267.709183924903	0
0	41465	21273.045177653886	1
0	41466	21273.338590823449	0
0	41470	21274.202650331299	1
0	41471	21274.481009380203	0
0	41485	21289.201970830386	1
0	41486	21289.689271270605	0
0	41535	21310.512193332754	1
0	41538	21311.588482018709	0
0	41542	21312.215223266514	1
0	41543	21312.685974966883	0
0	41550	21313.755283981954	1
0	41551	21314.47235519817	0
0	41565	21325.811996754834	1
0	41566	21326.480328949783	0
0	41590	21333.068787775566	1
0	41591	21333.354201416139	0
0	41595	21333.501206348358	1
0	41596	21334.170509635032	0
0	41620	21349.088998948921	1
0	41621	21349.317851683421	0
0	41627	21349.435088116043	1
0	41630	21350.427353527227	0
0	41642	21352.79128766288	1
0	41643	21353.315500815881	0
0	41650	21354.897545560754	1
0	41651	21354.97028975684	0
0	41655	21355.822582127294	1
0	41656	21355.969871354213	0
0	41675	21361.27859974836	1
0	41676	21362.126393205963	0
0	41690	21367.416167505118	1
0	41691	21367.449596799222	0
0	41695	21367.466319480943	1
0	41696	21368.419212057033	0
0	41720	21378.021261828002	1
0	41721	21378.514682486853	0
0	41775	21418.448509908247	1
0	41776	21419.044726548384	0
0	41815	21457.031089008708	1
0	41816	21457.284005835188	0
0	41852	21495.006726316772	1
0	41853	21495.021722493346	0
0	41865	21497.937371671541	1
0	41866	21498.512419014791	0
0	41875	21500.718470037922	1
0	41876	21501.764711756262	0
0	41880	21502.162420899309	1
0	41882	21502.190472925291	2
0	41883	21502.94625588991	1
0	41886	21503.761145399141	0
0	41890	21503.86684453815	1
0	41892	21504.260794920973	2
0	41893	21504.762857658605	1
0	41897	21505.790385067601	2
0	41899	21505.830486943939	3
0	41900	21505.841960070285	2
0	41903	21506.676144335329	1
0	41906	21507.796901751127	0
0	41910	21508.114227196027	1
0	41911	21508.654693620842	0
0	41920	21512.137145086343	1
0	41921	21512.923220064058	0
0	41960	21562.61606655467	1
0	41961	21563.460782749057	0
0	41965	21563.72587640831	1
0	41966	21564.493641201537	0
0	42005	21576.352352998864	1
0	42006	21576.425127773617	0
0	42075	21626.872998389408	1
0	42076	21626.892288185804	0
0	42085	21628.244475224017	1
0	42086	21628.839467578529	0
0	42105	21635.88053232461	1
0	42106	21636.556509555547	0
0	42125	21640.750291724406	1
0	42126	21641.698482786614	0
0	42134	21641.859275938377	1
0	42135	21642.84373201796	0
0	42142	21644.529975758919	1
0	42143	21645.090631782479	0
0	42165	21651.358483368078	1
0	42166	21652.229103151808	0
0	42175	21653.586065680416	1
0	42176	21654.025512295781	0
0	42187	21655.178766424309	1
0	42188	21656.193096410769	0
0	42195	21657.335129211547	1
0	42198	21658.105987171929	0
0	42205	21659.694284096183	1
0	42206	21659.998781280227	0
0	42215	21661.494305807847	1
0	42216	21662.070429534938	0
0	42225	21663.284153988258	1
0	42226	21664.110491665825	0
0	42240	21669.813635136015	1
0	42243	21670.776227151842	0
0	42320	21744.589623237204	1
0	42321	21745.636946937542	0
0	42332	21747.799385857339	1
0	42333	21747.848473681889	0
0	42342	21749.035139528031	1
0	42343	21750.150959550503	0
0	42352	21751.727992028394	1
0	42353	21751.981327041711	0
0	42380	21769.030831785311	1
0	42382	21769.117837529904	2
0	42383	21769.310580598129	1
0	42386	21770.136490380516	0
0	42440	21799.799221542621	1
0	42441	21800.741952219048	0
0	42445	21801.271986542267	1
0	42446	21801.578903603369	0
0	42485	21816.352247320052	1
0	42486	21817.159230640504	0
0	42490	21817.207000041069	1
0	42491	21818.020438919935	0
0	42495	21818.875457103418	1
0	42496	21819.10281169207	0
0	42525	21855.918291100434	1
0	42526	21856.320783878982	0
0	42530	21856.366745002121	1
0	42531	21857.453494079996	0
0	42535	21857.59836602555	1
0	42536	21858.437840119869	0
0	42540	21858.79067614459	1
0	42543	21859.537953637008	0
0	42555	21861.783665574875	1
0	42557	21862.027510603734	2
0	42560	21862.558944531836	1
0	42565	21863.423868139208	0
0	42605	21877.093232246658	1
0	42606	21877.152994324858	0
0	42630	21894.78734102442	1
0	42631	21895.422580601923	0
0	42665	21924.846973701434	1
0	42666	21924.861787222579	0
0	42675	21926.761419556452	1
0	42676	21927.70211581971	0
0	42772	21987.159492516783	1
0	42775	21987.71737516679	0
0	42815	22013.068491060071	1
0	42816	22013.531075106193	0
0	42820	22013.831648767099	1
0	42821	22014.668963355482	0
0	42825	22015.594496837184	1
0	42826	22015.660810640924	0
0	42830	22016.271261057957	1
0	42831	22016.836463275649	0
0	42835	22016.904577207745	1
0	42836	22017.719366865144	0
0	42840	22017.865582129725	1
0	42841	22018.835917273541	0
0	42850	22021.219942554553	1
0	42851	22021.864316253441	0
0	42855	22022.186152520002	1
0	42856	22022.673298036943	0
0	42867	22024.340855314311	1
0	42868	22024.99441121022	0
0	42872	22025.728202282362	1
0	42873	22026.108963244565	0
0	42915	22046.94258231068	1
0	42916	22047.534969101935	0
0	42955	22061.334106629305	1
0	42956	22061.835525248559	0
0	42960	22062.274789596551	1
0	42961	22062.785261863364	0
0	42965	22063.283210307347	1
0	42966	22063.973352679225	0
0	43000	22093.410092062332	1
0	43001	22093.967855168582	0
0	43005	22094.692691504189	1
0	43006	22095.025047902186	0
0	43010	22095.757619467419	1
0	43011	22095.919389353395	0
0	43025	22098.411339225953	1
0	43026	22099.208917517791	0
0	43035	22100.823448833076	1
0	43036	22101.093435890804	0
0	43050	22103.504820250582	1
0	43051	22104.310264204647	0
0	43125	22149.40946549165	1
0	43126	22150.00546687457	0
0	43130	22150.880470957721	1
0	43131	22150.946308866211	0
0	43135	22151.104368808551	1
0	43138	22152.115117653155	0
0	43145	22154.001513429633	1
0	43146	22154.475885629629	0
0	43170	22188.027284915546	1
0	43171	22188.966047750395	0
0	43210	22202.09363983031	1
0	43211	22202.710880677987	0
0	43230	22213.398393136205	1
0	43231	22213.711257503368	0
0	43235	22214.344391874404	1
0	43236	22214.658271929249	0
0	43250	22217.968835032116	1
0	43251	22218.186674109686	0
0	43255	22218.804415310973	1
0	43257	22218.918066997489	2
0	43258	22219.101501199163	1
0	43261	22220.012245212335	0
0	43285	22227.897974776837	1
0	43286	22227.921732042098	0
0	43385	22294.046281586569	1
0	43386	22294.587623547103	0
0	43410	22301.782334039803	1
0	43411	22302.732379523956	0
0	43435	22311.357330997231	1
0	43436	22312.341871462189	0
0	43445	22314.87697011544	1
0	43446	22315.147132311057	0
0	43475	22325.443853553051	1
0	43476	22326.482863792373	0
0	43482	22326.517131606219	1
0	43483	22327.652446658133	0
0	43487	22327.915769544897	1
0	43488	22328.73885343556	0
0	43492	22329.592430513789	1
0	43493	22329.84240546717	0
0	43605	22409.476472219396	1
0	43606	22409.485723428684	0
0	43650	22451.236481746108	1
0	43651	22452.02765603953	0
0	43655	22452.02871900212	1
0	43657	22452.935075467277	2
0	43658	22453.027890559313	1
0	43662	22453.480252183831	2
0	43663	22454.192692283847	1
0	43667	22454.387740221095	2
0	43669	22454.817376453303	3
0	43670	22455.337861634631	2
0	43673	22456.498043905039	1
0	43677	22457.065454161941	2
0	43678	22457.549603949048	1
0	43681	22458.44850161814	0
0	43685	22458.551599040522	1
0	43686	22459.487870153998	0
0	43690	22460.279064099141	1
0	43691	22460.347523502287	0
0	43695	22461.139547824116	1
0	43696	22461.373237479598	0
0	43747	22498.434842406483	1
0	43748	22498.545659996759	0
0	43810	22520.182585008437	1
0	43811	22520.75316558605	0
0	43815	22521.443866955818	1
0	43816	22521.818013126812	0
0	43820	22522.143476543283	1
0	43821	22522.679464425369	0
0	43840	22529.448068354841	1
0	43841	22530.466175138835	0
0	43910	22581.986162456557	1
0	43911	22582.905242039747	0
0	43960	22626.22712036435	1
0	43961	22627.160423809722	0
0	43975	22630.493074074306	1
0	43976	22631.405853197396	0
[...]
7	58297	29783.266384001506	5.671207405558
7	58300	29784.204016453085	0.937632451579
7	58350	29807.140143933403	0.831898800191
7	58375	29820.309732075358	2.922342412559
7	58380	29837.606749344702	1.078488893155
7	58415	29865.152031488683	0.948296092078
7	58425	29874.407486987007	0.862212943099
7	58495	29916.634695662379	2.036298324077
7	58572	29950.330428043955	0.940321238711
7	58592	29954.356551941959	6.840719314908
7	58622	29963.84747799832	3.316948004377
7	58672	29976.363069779251	10.089796492496
7	58717	29985.506334764708	1.125699102413
8	19243	10134.968505855929	1
8	19245	10134.976805158509	0
8	19263	10139.100722636748	1
8	19265	10139.456359125597	0
8	19997	10456.396160116756	1
8	19999	10456.673938118068	0
8	20330	10633.650484226895	1
8	20331	10634.457199162303	0
8	20345	10637.464554684667	1
8	20346	10638.867148047915	0
8	20645	10855.42546584042	1
8	20646	10856.710588114374	0
8	20650	10857.58961078398	1
8	20651	10857.847889225739	0
8	20942	10983.374693606226	1
8	20944	10983.585579226893	0
8	21310	11174.385470934526	1
8	21311	11174.495700508224	0
8	21377	11207.422204391273	1
8	21380	11208.363420992798	2
8	21381	11208.570227817381	1
8	21386	11208.803590288565	0
8	21389	11209.723049385408	1
8	21391	11210.255298188122	0
8	21399	11211.888677602568	1
8	21404	11212.735010840864	2
8	21406	11212.820706808262	1
8	21416	11214.824810340469	2
8	21418	11214.879433397603	1
8	21420	11215.873851724773	0
8	21423	11215.929228878887	1
8	21427	11216.765920605162	0
8	21787	11363.59738458183	1
8	21791	11363.84857186718	0
8	21812	11368.935823932405	1
8	21814	11368.999483459236	0
8	22127	11506.887648056222	1
8	22129	11507.135351262733	0
8	22136	11508.057858095186	1
8	22139	11509.123622650614	2
8	22141	11509.699787197235	1
8	22143	11510.132310411531	0
8	22156	11512.173001649936	1
8	22158	11512.516797902044	0
8	22161	11513.037742553612	1
8	22163	11513.33283445493	0
8	22166	11514.090111740919	1
8	22171	11515.422968435964	0
8	22203	11520.94123623302	1
8	22208	11521.937276218233	2
8	22211	11522.827650893626	3
8	22213	11523.694544948648	2
8	22215	11523.821390720907	1
8	22223	11524.919530284645	2
8	22228	11525.954218883773	3
8	22231	11527.025206347609	4
8	22233	11527.864574637199	3
8	22240	11528.580154158481	2
8	22243	11529.055194631273	3
8	22248	11530.373238501544	2
8	22250	11530.641092134618	1
8	22255	11531.667428197653	0
8	22820	11829.618731233556	1
8	22821	11830.294295159016	0
8	23614	12192.633662435702	1
8	23616	12193.201092138403	0
8	23864	12294.991476373684	1
8	23868	12295.7633226229	0
8	23956	12313.281579027749	1
8	23958	12313.950931562924	0
8	23972	12317.136408928648	1
8	23976	12321.020157671453	0
8	24462	12525.085155806503	1
8	24465	12526.072447885013	2
8	24471	12528.799738412483	1
8	24474	12528.884102237165	0
8	24550	12550.427692173248	1
8	24551	12551.715487827738	0
8	24555	12552.846520721638	1
8	24556	12552.962529133657	0
8	24560	12553.792505187193	1
8	24561	12554.421511347164	0
8	24577	12557.463291837313	1
8	24579	12557.66997556732	0
8	24774	12656.406838110584	1
8	24779	12657.620126606816	0
8	25689	13112.696845745704	1
8	25691	13112.951221899116	0
8	25697	13114.674024028647	1
8	25699	13114.804266430431	0
8	25717	13118.151090013086	1
8	25724	13120.010689614993	0
8	25730	13121.553599791503	1
8	25734	13122.945536002866	0
8	25740	13124.634934438347	1
8	25741	13124.723134155579	0
8	25747	13125.53920262764	1
8	25749	13126.041614796484	0
8	25755	13127.833327948775	1
8	25759	13128.565683275197	0
8	25777	13132.72380351637	1
8	25779	13133.727169858324	0
8	26215	13315.101328143991	1
8	26216	13316.80106620088	0
8	26317	13376.669563455268	1
8	26319	13376.950552939605	0
8	26339	13380.521810663066	1
8	26344	13381.90607365318	0
8	26830	13709.682443460753	1
8	26831	13710.130859062273	0
8	26846	13712.278256389044	1
8	26848	13713.088125556664	0
8	26854	13714.338711906329	1
8	26856	13714.845059645146	0
8	26861	13715.471642838616	1
8	26863	13716.298184839344	0
8	26869	13717.526236679695	1
8	26874	13719.233826018694	0
8	27287	13908.589762407364	1
8	27289	13908.607508207307	0
8	27310	13915.963033053538	1
8	27311	13916.290947873263	0
8	27320	13918.220153742308	1
8	27321	13920.855239700658	0
8	27335	13924.560410588234	1
8	27336	13927.517805128943	0
8	27780	14136.09205645297	1
8	27781	14136.162357550554	0
8	28362	14413.237438450239	1
8	28364	14413.422380742946	0
8	28405	14440.581385247794	1
8	28406	14440.901965757957	0
8	29699	15244.558135294077	1
8	29701	15244.62508873093	0
8	29785	15281.084548870103	1
8	29786	15281.224263043847	0
8	29797	15283.155054221727	1
8	29801	15284.144554123689	0
8	29805	15285.200790438649	1
8	29809	15286.010775615354	0
8	29815	15287.531926589487	1
8	29816	15290.172209093096	0
8	30010	15388.788085306572	1
8	30011	15388.845236544252	0
8	30407	15588.08242406725	1
8	30411	15588.932202815507	0
8	30445	15597.756711228986	1
8	30456	15598.835504065968	0
8	30675	15724.841216030709	1
8	30676	15726.367578994292	0
8	30975	15964.019686698479	1
8	30976	15965.361218655914	0
8	31032	15976.948229355366	1
8	31034	15977.07410017466	0
8	31205	16071.336798285597	1
8	31206	16071.401474933916	0
8	31445	16178.913286270374	1
8	31446	16180.161908120933	0
8	31450	16180.970432891968	1
8	31451	16181.134783340473	0
8	31750	16390.348952948558	1
8	31755	16391.499742850337	2
8	31756	16391.721855683687	1
8	31759	16391.844712704726	0
8	31866	16419.872049177024	1
8	31868	16420.553174123527	0
8	31871	16420.682002585526	1
8	31878	16422.051162297598	0
8	32389	16697.982959695632	1
8	32391	16698.719070137255	0
8	32507	16725.277846199686	1
8	32511	16726.778746606527	0
8	33170	17021.093395575957	1
8	33171	17021.794063659568	0
8	33175	17022.811409709786	1
8	33181	17024.458053215039	0
8	33203	17027.663469773908	1
8	33205	17028.112734840588	0
8	33213	17030.031425385834	1
8	33215	17030.536866199369	0
8	34026	17399.278992574598	1
8	34028	17400.253713335926	0
8	34031	17400.413440444256	1
8	34033	17401.39414390041	0
8	34036	17401.397422868601	1
8	34038	17401.431899204996	0
8	34422	17614.700969920057	1
8	34424	17614.978621605835	0
8	34474	17625.418745157981	1
8	34476	17625.501082068588	0
8	35630	18261.621786699332	1
8	35631	18261.920125269713	0
8	35707	18298.973505745316	1
8	35709	18299.099984073942	0
8	35712	18299.775606640847	1
8	35715	18300.94974906384	2
8	35716	18301.763265506689	1
8	35721	18304.295683374876	0
8	35777	18315.530188983999	1
8	35789	18320.091213424072	0
8	35805	18323.560974780592	1
8	35809	18323.638046388518	0
8	35836	18328.535336761228	1
8	35838	18328.983509687009	0
8	35857	18333.233943675975	1
8	35859	18334.103569725321	0
8	36367	18610.509793278881	1
8	36371	18611.846683976468	0
8	36855	18927.909454429396	1
8	36856	18928.105255915078	0
8	38662	19961.936220937975	1
8	38664	19962.55220728169	0
8	38717	19977.213007061524	1
8	38721	19979.028743535393	0
8	39162	20227.2685153182	1
8	39165	20228.37760687064	2
8	39171	20229.508226171069	1
8	39174	20229.637482020746	0
8	39192	20233.379276259828	1
8	39196	20234.82552471654	0
8	39200	20235.929075237824	1
8	39201	20237.883971064079	0
8	39212	20239.864760654986	1
8	39214	20240.573535676169	0
8	39217	20241.064698109225	1
8	39219	20241.476452150497	0
8	39335	20330.544894278946	1
8	39347	20333.092668357042	2
8	39349	20333.356213602939	1
8	39355	20335.038550245778	2
8	39356	20336.085494460584	1
8	39359	20336.146650987723	0
8	39377	20340.06563530122	1
8	39379	20340.065891838652	0
8	39389	20342.00783005464	1
8	39391	20342.612232836755	0
8	39420	20349.368953447557	1
8	39421	20349.89721959727	0
8	39705	20447.23810044948	1
8	39706	20448.10129490749	0
8	39964	20569.958710632839	1
8	39967	20571.009530477219	2
8	39969	20571.346403206224	1
8	39971	20571.851387826318	0
8	40117	20650.191833978691	1
8	40119	20650.649246377021	0
8	40195	20691.030110353775	1
8	40196	20691.152995921796	0
8	40712	20943.167286080606	1
8	40714	20943.179435693778	0
8	40735	20947.60321030015	1
8	40739	20948.550463820254	0
8	40885	21059.122939926318	1
8	40886	21059.903168167704	0
8	40910	21072.49434569236	1
8	40911	21072.836388549266	0
8	41037	21124.806351506225	1
8	41049	21127.267254399856	0
8	41182	21188.46016105813	1
8	41184	21188.749850226418	0
8	41420	21260.236755221085	1
8	41421	21261.884309817755	0
8	41430	21263.632027946875	1
8	41431	21264.260474279822	0
8	41435	21265.268824526222	1
8	41436	21265.701314082627	0
8	41685	21365.366472937586	1
8	41686	21366.425496237596	0
8	41857	21496.009647493183	1
8	41861	21497.318214187952	0
8	41870	21499.355327215506	1
8	41874	21500.718470037922	0
8	41877	21501.764711756262	1
8	41879	21502.162420899309	0
8	41887	21503.761145399141	1
8	41889	21503.86684453815	0
8	41894	21504.762857658605	1
8	41896	21505.790385067601	0
8	42435	21799.763570306154	1
8	42436	21799.784768266232	0
8	42845	22019.674878939153	1
8	42846	22020.973374817318	0
8	43015	22096.820672915113	1
8	43016	22097.10643754571	0
8	43415	22303.815346298006	1
8	43416	22304.463871983407	0
8	43440	22313.398384500839	1
8	43441	22314.118480845861	0
8	43645	22450.839904052672	1
8	43646	22451.058772697141	0
8	43835	22527.603855277923	1
8	43836	22529.31626299664	0
8	44589	23018.431358895177	1
8	44596	23021.094866799513	0
8	45160	23296.642365214274	1
8	45161	23297.271576651501	0
8	45197	23304.162604653778	1
8	45201	23305.395259148005	0
8	45839	23636.345818065521	1
8	45841	23637.236272686898	0
8	46052	23728.814991508438	1
8	46054	23729.609668619466	0
8	46192	23814.39725861355	1
8	46194	23815.485618032936	0
8	46490	23970.248935258859	1
8	46491	23970.333551498092	0
8	47000	24343.79694116327	1
8	47001	24344.056539841681	0
8	47010	24345.893220726806	1
8	47011	24347.292197949335	0
8	47110	24403.493499700622	1
8	47116	24405.279418880467	0
8	47120	24406.457759661575	1
8	47121	24407.303597856432	0
8	47365	24545.287113610285	1
8	47366	24545.362132056296	0
8	47716	24708.79901766855	1
8	47718	24709.414696537138	0
8	47812	24738.31369764616	1
8	47814	24738.340903401426	0
8	47915	24765.754509535569	1
8	47921	24766.97990019927	0
8	48317	24925.473481622844	1
8	48319	24926.120139547093	0
8	48322	24926.373229106369	1
8	48324	24927.020751279838	0
8	48329	24927.263887946534	1
8	48331	24927.276023067183	0
8	48610	25087.77966345514	1
8	48611	25088.213239289335	0
8	48630	25093.180994988153	1
8	48631	25093.262055934007	0
8	49340	25473.832736659434	1
8	49341	25475.616172906971	0
8	49345	25476.440180719113	1
8	49346	25477.820405578939	0
8	49350	25478.910050887475	1
8	49351	25478.978769860673	0
8	49430	25533.981258754058	1
8	49431	25534.777427060661	0
8	49440	25537.877508169063	1
8	49441	25539.570622442737	0
8	49565	25601.083297328021	1
8	49566	25602.894849235291	0
8	50040	25831.237414362449	1
8	50041	25832.231023813928	0
8	50087	25851.529332468152	1
8	50089	25851.741348093856	0
8	50432	25995.018999551527	1
8	50434	25995.148898084405	0
8	50515	26044.686449759437	1
8	50516	26045.405595723765	0
8	50790	26165.360027268208	1
8	50791	26166.533410084694	0
8	50930	26220.001177665949	1
8	50931	26220.603653915252	0
8	51295	26420.258392049804	1
8	51296	26420.360937476002	0
8	51302	26421.179278960295	1
8	51304	26421.693923578571	0
8	51397	26476.421238400615	1
8	51399	26476.855062506173	0
8	51420	26481.505744254696	1
8	51421	26481.588998688181	0
8	51458	26487.807039377448	1
8	51460	26487.889011850821	0
8	51496	26496.115837565793	1
8	51498	26496.208120623978	0
8	51687	26596.848789870176	1
8	51689	26596.915617181967	0
8	51772	26619.897839672006	1
8	51774	26620.236373517543	0
8	51777	26620.796043713372	1
8	51781	26622.142903986819	0
8	51857	26637.406789375882	1
8	51861	26639.629652376752	0
8	51945	26684.529914318636	1
8	51946	26685.192973393627	0
8	51950	26686.188165199809	1
8	51951	26686.698131577229	0
8	51990	26698.830711119162	1
8	51991	26698.895902986864	0
8	52110	26774.92142416371	1
8	52111	26774.970176040615	0
8	52115	26775.908981356259	1
8	52116	26776.756387456859	0
8	52137	26781.915382562724	1
8	52141	26784.084711768021	0
8	52510	27061.776411746743	1
8	52511	27062.315077964767	0
8	52577	27084.72774717889	1
8	52579	27084.908270892677	0
8	52975	27243.416935270109	1
8	52976	27243.648176059357	0
8	53200	27352.849317735905	1
8	53201	27353.901840109566	0
8	53205	27354.840904526787	1
8	53210	27356.410088246871	2
8	53211	27356.500548238231	1
8	53217	27357.653949050436	2
8	53221	27358.740396001656	1
8	53226	27358.992618308415	0
8	53229	27359.800429895893	1
8	53231	27359.93794264078	0
8	53452	27483.634052664916	1
8	53463	27484.876634596288	0
8	54042	27845.961485486667	1
8	54044	27845.972396989938	0
8	54472	28062.915160993966	1
8	54474	28063.676525520615	0
8	54489	28066.004127534213	1
8	54499	28069.470654696258	0
8	54510	28071.51975942223	1
8	54514	28071.742347701673	0
8	54847	28203.463583887067	1
8	54851	28203.810640305226	0
8	54862	28206.274584061166	1
8	54865	28207.433617957102	2
8	54866	28208.184719240273	1
8	54870	28209.022641285768	2
8	54871	28210.200954265592	1
8	54874	28210.341320626997	0
8	55470	28493.38989089474	1
8	55475	28494.573455874451	2
8	55476	28495.453544307499	1
8	55479	28495.821196410861	0
8	55492	28498.530333524755	1
8	55496	28499.968025469769	0
8	56444	28874.268258683311	1
8	56446	28874.459897053277	0
8	56449	28875.086706824063	1
8	56454	28875.91790798262	2
8	56456	28876.00590413023	1
8	56466	28879.357292211093	0
8	56470	28880.199437551517	1
8	56471	28880.485835035607	0
8	56837	29061.464816486082	1
8	56841	29063.235775679483	0
8	56849	29064.243507699802	1
8	56851	29065.118357074506	0
8	56854	29065.1218124567	1
8	56856	29065.564493264949	0
8	56861	29066.290758419636	1
8	56863	29067.062501833563	0
8	56871	29068.334630394302	1
8	56873	29069.078849647165	0
8	57102	29195.296322728133	1
8	57106	29196.439434391806	0
8	57115	29198.625461913912	1
8	57116	29198.665449842543	0
8	57161	29228.436067903158	1
8	57163	29229.038873408878	0
8	57537	29421.645277322596	1
8	57539	29421.816367999147	0
8	57687	29504.29783905127	1
8	57689	29504.320776059636	0
8	58057	29702.845210901193	1
8	58059	29703.123384914325	0
8	58062	29703.724580328364	1
8	58064	29704.289479230794	0
8	58067	29704.843724530201	1
8	58069	29705.001307404071	0
8	58247	29761.968366736859	1
8	58249	29762.818820717445	0
8	58455	29903.395485473922	1
8	58456	29905.491575496523	0
8	58460	29906.329443553714	1
8	58461	29906.559353595756	0
8	58465	29907.610198479209	1
8	58466	29908.29110522235	0
8	58545	29944.753617206462	1
8	58546	29945.045825876032	0
8	58694	29980.308566269476	1
8	58696	29981.32298771838	0
8	58699	29981.394128182635	1
8	58701	29982.229718981026	0
8	58704	29982.552750609175	1
8	58706	29982.9287966827	0
8	58709	29983.540537208051	1
8	58712	29984.380635662295	2
8	58714	29984.84062754299	1
8	58720	29986.662755736254	2
8	58724	29987.757471945738	1
8	58726	29987.769348986602	0
8	58731	29988.156291514685	1
8	58736	29989.48634586393	0
8	58739	29990.208012007786	1
8	58741	29990.234421272753	0
9	20700	10886.043302271891	1
9	20701	10886.973784038997	0
9	21479	11228.057276730268	1
9	21481	11228.316151668909	0
9	21505	11233.989759585384	1
9	21514	11237.045631891235	0
9	21895	11417.999964115245	1
9	21896	11419.637779112601	0
9	21900	11420.810991888189	1
9	21901	11420.829889419594	0
9	23067	11976.094491026456	1
9	23069	11976.21502698098	0
9	23445	12159.381675087059	1
9	23449	12159.775171897874	0
9	24615	12578.565190820131	1
9	24616	12579.137664511134	0
9	25505	13013.125597066937	1
9	25509	13013.862637047683	0
9	26112	13231.01427747336	1
9	26114	13231.27166576906	0
9	26500	13478.079653444163	1
9	26501	13478.165879375864	0
9	27652	14099.150425179024	1
9	27656	14099.929845371442	0
9	27745	14118.352583497956	1
9	27746	14120.446287753475	0
9	28030	14257.625359161069	1
9	28031	14257.67593045357	0
9	31852	16418.111132002767	1
9	31854	16418.115489691956	0
9	31910	16429.665355134713	1
9	31911	16430.431667353758	0
9	32220	16606.266705434394	1
9	32221	16608.891723524789	0
9	32227	16609.888510717741	1
9	32234	16610.821962722638	0
9	32532	16730.518054875756	1
9	32546	16734.637384907825	0
9	32645	16766.335115722652	1
9	32646	16768.141417976973	0
9	32652	16769.232507799604	1
9	32654	16769.732964233581	0
9	32717	16781.873583172738	1
9	32719	16782.317382508455	0
9	32722	16782.756025361653	1
9	32726	16783.580953276668	0
9	32940	16916.291792966469	1
9	32944	16917.131578157075	0
9	32957	16919.698419622031	1
9	32960	16920.73550235301	2
9	32961	16921.022521574208	1
9	32965	16921.964247446758	2
9	32966	16923.518494812745	1
9	32969	16923.546488870719	0
9	33480	17115.844801028386	1
9	33481	17116.882738947262	0
9	33510	17126.218764914773	1
9	33511	17126.885683625905	0
9	33825	17334.329043283833	1
9	33826	17334.841414500761	0
9	34105	17416.611330112471	1
9	34106	17418.428926564551	0
9	34495	17630.073942322584	1
9	34496	17630.286079028132	0
9	35240	18019.432766858646	1
9	35241	18020.229622795894	0
9	35250	18022.030170861162	1
9	35254	18023.213974452552	0
9	38147	19664.254268838971	1
9	38161	19668.652502857696	0
9	39470	20363.106598894116	1
9	39471	20366.312272163437	0
9	39475	20367.163302987491	1
9	39476	20367.181119409611	0
9	39617	20425.637732068436	1
9	39631	20431.345521398424	0
9	39645	20434.411367738223	1
9	39646	20434.422139177678	0
9	39652	20435.448932609634	1
9	39656	20436.455073232579	0
9	39750	20477.977659360541	1
9	39751	20478.517366317878	0
9	40515	20850.204925673949	1
9	40516	20852.191577939499	0
9	40520	20853.342450418319	1
9	40521	20853.359943405911	0
9	40527	20854.501024802494	1
9	40536	20858.257475397161	0
9	40542	20859.611370331484	1
9	40544	20859.76970021019	0
9	43580	22387.175098571119	1
9	43581	22387.908163563881	0
9	43780	22510.441932716106	1
9	43781	22511.821568257126	0
9	44677	23040.496241557087	1
9	44680	23041.478210385564	2
9	44681	23041.744516583378	1
9	44685	23042.617928710426	2
9	44689	23042.838310059702	1
9	44695	23044.486283719801	2
9	44699	23044.910602745908	1
9	44701	23044.943897903313	0
9	44707	23046.464437558351	1
9	44711	23046.800510899936	0
9	45010	23198.710084283261	1
9	45011	23199.552469956311	0
9	45017	23200.629208201165	1
9	45026	23204.385554442978	0
9	45365	23362.291122946583	1
9	45366	23364.125055431409	0
9	45792	23619.818167866908	1
9	45794	23620.144508188563	0
9	45800	23621.579726355478	1
9	45801	23622.476045299578	0
9	45910	23663.47745686549	1
9	45911	23665.832520191399	0
9	45962	23696.444636184054	1
9	45971	23699.642831780232	0
9	49065	25315.934756107946	1
9	49066	25316.093638608351	0
9	49075	25318.417711938477	1
9	49076	25320.918636203725	0
9	49467	25559.904571150002	1
9	49470	25560.899960750845	2
9	49471	25561.63957183907	1
9	49477	25562.562968143133	2
9	49479	25563.542508532352	1
9	49484	25563.672142221467	0
9	49880	25731.452206985929	1
9	49881	25731.591785516691	0
9	49885	25732.426983365238	1
9	49886	25732.832037752057	0
9	50377	25963.70968597316	1
9	50379	25963.837451710421	0
9	51722	26605.524236792477	1
9	51724	26605.924678805449	0
9	52547	27078.649945387098	1
9	52551	27079.84277073431	0
9	52615	27092.724595178731	1
9	52616	27092.781887214548	0
9	52850	27198.599578500722	1
9	52851	27198.788715124618	0
9	53890	27776.539256817333	1
9	53891	27776.557816205236	0
9	53895	27777.595324335868	1
9	53896	27779.987905432465	0
9	54335	27988.855246929657	1
9	54336	27989.387032496474	0
9	54960	28236.668073833111	1
9	54961	28237.012903661228	0
9	54965	28237.981315029546	1
9	54966	28238.903338762265	0
9	54997	28263.610569578033	1
9	55000	28264.559438515171	2
9	55001	28264.681155192149	1
9	55004	28264.880789823918	0
9	55375	28446.70294472024	1
9	55376	28446.963809611856	0
9	56260	28823.51380488182	1
9	56265	28824.666776590795	2
9	56266	28826.539982113945	1
9	56269	28826.689735389912	0
9	56352	28855.772317912794	1
9	56354	28856.248854967844	0
9	56375	28860.768151299554	1
9	56381	28861.674416634277	0
9	56389	28863.207632522398	1
9	56391	28863.478548491072	0
9	57265	29280.118591989114	1
9	57266	29281.331873093699	0
9	57275	29283.254044437935	1
9	57276	29284.511692999733	0
9	57280	29285.626666022894	1
9	57281	29285.721543471962	0
9	57830	29585.033836713173	1
9	57831	29586.912599730058	0
9	57835	29588.044754405352	1
9	57836	29588.933099164568	0
9	57845	29591.021178615313	1
9	57846	29591.067647330896	0
9	57855	29592.928269482464	1
9	57856	29593.170907364304	0
9	57860	29594.175018643199	1
9	57864	29595.225906443038	0

