version 2
run Second_exit_2-2-20191017-13:43:45-1906
attr configname Second_exit_2
attr datetime 20191017-13:43:45
attr experiment Second_exit_2
attr inifile omnetpp.ini
attr iterationvars ""
attr iterationvarsf ""
attr measurement ""
attr network ResponseTimeNetwork
attr processid 1906
attr repetition 2
attr replication #2
attr resultdir results
attr runnumber 2
attr seedset 2
param **.Source.interArrivalTime exponential(5s)
param **.jobPriority bernoulli(0.6)
param **.PS.serviceTimeU1 "uniform(0.8s, 1.2s)"
param **.PS.serviceTimeU2 "uniform(1.8s, 2.2s)"
param **.SS1.serviceTime exponential(1s)
param **.SS2.serviceTime exponential(1.2s)
param **.PS.exitProbability bernoulli(0.2)

vector 0 ResponseTimeNetwork.SS1 queueLength:vector ETV
attr interpolationmode sample-hold
attr title "queue length, vector"
vector 1 ResponseTimeNetwork.SS2 queueLength:vector ETV
attr interpolationmode sample-hold
attr title "queue length, vector"
vector 2 ResponseTimeNetwork.QueueU1 queueLength:vector ETV
attr interpolationmode sample-hold
attr title "queue length, vector"
vector 3 ResponseTimeNetwork.QueueU2 queueLength:vector ETV
attr interpolationmode sample-hold
attr title "queue length, vector"
vector 4 ResponseTimeNetwork.sink lifeTimeU1:vector ETV
attr interpolationmode none
attr title "lifetime of arrived jobs U1, vector"
attr unit s
vector 5 ResponseTimeNetwork.sink lifeTime:vector ETV
attr interpolationmode none
attr title "lifetime of arrived jobs, vector"
attr unit s
vector 6 ResponseTimeNetwork.sink lifeTimeU2:vector ETV
attr interpolationmode none
attr title "lifetime of arrived jobs U2, vector"
attr unit s
0	0	0	0
0	700	576.735785698564	1
0	701	577.179046612543	0
0	5002	4034.559909069572	1
0	5006	4036.999751753657	0
0	7095	5599.76394947055	1
0	7099	5600.780016057302	0
0	10355	8221.029043858495	1
0	10356	8223.616035228135	0
0	11190	8908.430391479516	1
0	11191	8908.531546802434	0
0	11830	9338.205284658216	1
0	11831	9339.783827492821	0
0	16135	12677.630222290532	1
0	16136	12678.376503878521	0
0	16140	12679.311080810303	1
0	16141	12680.17442674699	0
0	19130	14964.848543291258	1
0	19131	14965.18495615424	0
0	24135	19059.117806975088	1
0	24136	19059.498838268904	0
0	24510	19312.019846298549	1
0	24511	19314.542125187098	0
0	28407	22153.204089237249	1
0	28409	22153.75215868194	0
0	30090	23393.763894958898	1
0	30091	23394.341076399064	0
0	30099	23395.314591245404	1
0	30101	23395.828668244434	0
0	30560	23741.914664784134	1
0	30566	23745.791297877323	0
0	30932	24068.79255432741	1
0	30934	24069.020469451129	0
1	0	0	0
1	932	732.011104567742	1
1	934	732.658870191162	0
1	1915	1569.817050784628	1
1	1916	1570.00564860155	0
1	2750	2196.191808397104	1
1	2751	2196.835567580144	0
1	8320	6621.146283599546	1
1	8321	6621.783146376426	0
1	9670	7645.322528791917	1
1	9671	7647.567556713898	0
1	11380	8981.685253794336	1
1	11381	8983.769118296029	0
1	12625	9919.856585350221	1
1	12629	9920.814787524567	0
1	14755	11590.969785792567	1
1	14759	11591.616823711465	0
1	16394	12816.063044370904	1
1	16404	12823.615685179421	0
1	21340	16782.430511637227	1
1	21341	16783.355333593986	0
1	22497	17708.582553218043	1
1	22501	17711.455196366702	0
1	23605	18658.24455955981	1
1	23609	18660.154081495345	0
1	23904	18877.703674591514	1
1	23911	18880.101333195885	0
1	25860	20283.291216987945	1
1	25861	20283.361723219262	0
2	0	0	0
2	320	318.659295134623	1
2	321	318.982972582	0
2	337	321.318710823348	1
2	338	321.975312993806	0
2	342	322.528587002109	1
2	343	322.884848141614	0
2	355	326.500795996476	1
2	356	326.718461291546	0
2	365	327.83069094691	1
2	366	328.708354611395	0
2	400	346.138529192693	1
2	402	346.61211804821	2
2	403	346.696615932866	1
2	406	347.67662662173	0
2	410	347.707465542491	1
2	413	348.827133203562	0
2	419	348.842754406378	1
2	420	349.800088843688	0
2	427	351.686316349468	1
2	428	352.027654657591	0
2	455	362.822090805119	1
2	456	363.144911204116	0
2	460	363.698918147912	1
2	461	364.284296005243	0
2	560	500.728920310775	1
2	561	501.097710008843	0
2	565	501.236129505667	1
2	566	502.010054005047	0
2	605	523.737856419095	1
2	606	524.489645201604	0
2	610	525.035664027327	1
2	611	525.349839787449	0
2	620	527.778559422794	1
2	621	528.512548596173	0
2	705	577.357383243487	1
2	706	578.202626929742	0
2	720	582.84875356466	1
2	721	583.375887234051	0
2	785	613.915346878241	1
2	786	614.634898403445	0
2	845	663.142107929435	1
2	846	663.87704422945	0
2	850	664.121885410718	1
2	851	664.899788297395	0
2	865	668.49888343955	1
2	866	668.501096136093	0
2	875	671.513830914768	1
2	876	671.997037664385	0
2	1015	806.382474760853	1
2	1016	806.575389862121	0
2	1040	821.932969107275	1
2	1041	822.586037640194	0
2	1075	850.392620287401	1
2	1076	850.588392000864	0
2	1085	858.600752831266	1
2	1086	858.976558199647	0
2	1090	859.359134999778	1
2	1091	859.812017923902	0
2	1200	931.522992560259	1
2	1201	931.660869720472	0
2	1245	983.666944670117	1
2	1246	984.457606724369	0
2	1265	990.418846029018	1
2	1266	991.102854160883	0
2	1280	1000.397856972731	1
2	1281	1000.492763494877	0
2	1340	1056.703872920124	1
2	1341	1056.88164183386	0
2	1350	1064.97054144098	1
2	1351	1065.000978707965	0
2	1370	1072.019453263618	1
2	1371	1072.935586301815	0
2	1375	1073.347519290191	1
2	1376	1073.847317203246	0
2	1390	1080.010064944085	1
2	1391	1080.151105242659	0
2	1455	1122.001687711117	1
2	1456	1122.255789531555	0
2	1480	1163.611681819411	1
2	1481	1163.762752882013	0
2	1485	1164.088002622698	1
2	1486	1164.792717678839	0
2	1490	1164.965696744667	1
2	1491	1165.770590406092	0
2	1650	1352.501088532396	1
2	1651	1352.945858926572	0
2	1735	1415.160090435931	1
2	1738	1415.912080641901	0
2	1830	1525.936892802266	1
2	1831	1526.620861471455	0
2	1837	1527.537995163072	1
2	1838	1527.759904067229	0
2	1842	1528.039957356716	1
2	1844	1528.287510248676	2
2	1845	1528.642738727211	1
2	1848	1529.507662565923	0
2	1880	1557.84271013223	1
2	1881	1557.917281952558	0
2	1890	1559.459003111449	1
2	1891	1560.195345455806	0
2	1895	1560.417307801316	1
2	1896	1561.235105485588	0
2	1925	1571.578826242483	1
2	1927	1572.225036679385	2
2	1928	1572.252863662999	1
2	1931	1573.356869073894	0
2	1945	1589.784939033982	1
2	1946	1590.68197187786	0
2	1960	1598.508796238966	1
2	1961	1598.516089670586	0
2	2105	1708.200161970848	1
2	2106	1708.228000537828	0
2	2135	1732.817221157116	1
2	2138	1733.588429382415	0
2	2145	1735.198410433736	1
2	2146	1735.384445876414	0
2	2177	1776.737177072852	1
2	2178	1777.022991168543	0
2	2245	1826.965984772177	1
2	2246	1827.226622979831	0
2	2265	1832.288283733654	1
2	2266	1833.133282507413	0
2	2270	1833.308079191987	1
2	2271	1834.134145170745	0
2	2290	1845.242480242238	1
2	2291	1846.130124233519	0
2	2295	1846.547722280359	1
2	2296	1847.220084900824	0
2	2305	1848.639256567692	1
2	2306	1849.516712179564	0
2	2335	1866.665839942967	1
2	2336	1867.301957416559	0
2	2340	1867.336695842116	1
2	2341	1868.371294584522	0
2	2355	1871.344174033947	1
2	2356	1871.422516150039	0
2	2370	1876.207567593692	1
2	2371	1876.401876530446	0
2	2390	1918.658293790689	1
2	2391	1918.975161433721	0
2	2415	1929.088174592048	1
2	2416	1929.204839398303	0
2	2435	1963.596257107344	1
2	2436	1963.645565591511	0
2	2460	1980.291262054876	1
2	2461	1980.43227734743	0
2	2485	2000.174488791133	1
2	2486	2000.455135193218	0
2	2575	2073.297943311673	1
2	2576	2073.999273415334	0
2	2580	2074.298348065761	1
2	2582	2074.72449121687	2
2	2583	2074.871305386308	1
2	2586	2075.693678762629	0
2	2590	2076.349476036822	1
2	2591	2076.563293293822	0
2	2630	2100.154240196476	1
2	2631	2100.355328130566	0
2	2660	2112.212724747163	1
2	2661	2112.593859909347	0
2	2670	2135.435428062332	1
2	2671	2135.609478218174	0
2	2765	2204.838348277579	1
2	2766	2205.46412049845	0
2	2800	2222.8315093399	1
2	2802	2222.963994797148	2
2	2803	2223.440019711438	1
2	2806	2224.526921480573	0
2	2815	2225.520892830676	1
2	2818	2226.446184615098	0
2	2830	2236.223294811888	1
2	2831	2236.610489491919	0
2	2870	2265.865651003616	1
2	2871	2266.585470799278	0
2	2935	2323.396459092423	1
2	2936	2323.909228365245	0
2	2970	2375.090175655729	1
2	2971	2375.921115490132	0
2	2990	2382.352842173098	1
2	2993	2383.30310013764	0
2	3060	2473.267064753316	1
2	3061	2473.688491873326	0
2	3082	2480.130611123486	1
2	3083	2480.874425961279	0
2	3120	2525.487485813442	1
2	3123	2526.004633660309	0
2	3165	2574.731036014596	1
2	3166	2575.674906052333	0
2	3175	2576.895031508342	1
2	3176	2577.776214475706	0
2	3235	2623.495128191137	1
2	3236	2624.231781934306	0
2	3300	2703.553171392346	1
2	3301	2703.964623766497	0
2	3385	2757.887895274949	1
2	3386	2757.942030756622	0
2	3395	2762.774995825621	1
2	3396	2763.026669352047	0
2	3415	2775.57326750883	1
2	3416	2776.035605607677	0
2	3430	2791.59344130475	1
2	3431	2791.850439363116	0
2	3477	2832.348090185954	1
2	3478	2832.569492494409	0
2	3482	2832.657315875448	1
2	3484	2832.795168849128	2
2	3485	2833.651965707355	1
2	3488	2834.621266382002	0
2	3495	2836.260931534508	1
2	3496	2836.376963035577	0
2	3545	2893.399847045223	1
2	3546	2893.583721001145	0
2	3575	2912.657997256025	1
2	3576	2912.660490165892	0
2	3585	2920.40615288512	1
2	3586	2920.662722893264	0
2	3605	2935.248112363293	1
2	3610	2936.170066388729	0
2	3614	2936.960991139105	1
2	3615	2937.134895229745	0
2	3622	2938.245460560145	1
2	3623	2939.255519567649	0
2	3640	2942.988313722243	1
2	3641	2943.543393572131	0
2	3710	3002.066441337335	1
2	3711	3002.693878265766	0
2	3715	3003.565739002673	1
2	3716	3003.866265933791	0
2	3745	3033.291615318151	1
2	3746	3033.325671418015	0
2	3760	3035.982067729232	1
2	3761	3036.413300744821	0
2	3795	3054.228316192967	1
2	3798	3054.650398050872	0
2	3802	3055.564292558208	1
2	3803	3055.731916782045	0
2	3835	3077.231952147448	1
2	3837	3077.398352169169	2
2	3838	3078.036756273531	1
2	3841	3079.032643198114	0
2	3865	3100.111270363284	1
2	3866	3100.979605717219	0
2	3900	3123.022811438488	1
2	3902	3123.680492098925	2
2	3903	3124.000375882649	1
2	3906	3125.1873654091	0
2	3910	3125.558893247971	1
2	3912	3125.632622675362	2
2	3913	3126.229526823407	1
2	3916	3127.374219241759	0
2	3970	3164.642317294857	1
2	3971	3165.587769388829	0
2	3975	3166.414486417328	1
2	3976	3166.490510782928	0
2	4020	3202.201792881321	1
2	4022	3202.257188240138	2
2	4023	3203.108398718193	1
2	4026	3204.006208844755	0
2	4070	3229.730782444285	1
2	4071	3230.586223914021	0
2	4105	3241.262885818278	1
2	4107	3242.062365112849	2
2	4108	3242.093384160706	1
2	4111	3243.149827642691	0
2	4115	3244.070741548981	1
2	4116	3244.223875271202	0
2	4295	3430.900872773746	1
2	4296	3431.906593309291	0
2	4305	3434.33346873216	1
2	4306	3434.948505652466	0
2	4450	3555.171677768335	1
2	4452	3555.191662329178	2
2	4453	3555.704307541121	1
2	4456	3556.720546713527	0
2	4460	3556.977512256868	1
2	4461	3557.712272427659	0
2	4485	3566.551148750785	1
2	4486	3567.535353203208	0
2	4490	3567.600266329973	1
2	4491	3568.381207467799	0
2	4495	3568.54869258773	1
2	4496	3569.490750419904	0
2	4540	3617.16801060239	1
2	4541	3617.589075093544	0
2	4545	3618.487762427724	1
2	4546	3618.522575163296	0
2	4590	3666.409734764421	1
2	4591	3667.419298274917	0
2	4597	3668.489554986555	1
2	4598	3668.593664435492	0
2	4605	3670.299412768123	1
2	4606	3670.744834615578	0
2	4665	3721.957240671914	1
2	4666	3722.825204864541	0
2	4705	3779.460183545058	1
2	4706	3780.341879283788	0
2	4750	3820.190837936648	1
2	4751	3821.04542823699	0
2	4805	3868.210430319836	1
2	4806	3868.695287399562	0
2	4900	3942.889339331478	1
2	4901	3942.91445405161	0
2	4910	3947.766823464687	1
2	4911	3948.601750973065	0
2	4915	3949.309544416084	1
2	4916	3949.616215187789	0
2	4990	4031.763470706355	1
2	4991	4032.582196230382	0
2	4995	4033.029789468113	1
2	4996	4033.62687384592	0
2	5000	4034.2823241403	1
2	5001	4034.559909069572	0
2	5010	4037.11829589888	1
2	5011	4038.028008612542	0
2	5050	4069.905342774156	1
2	5051	4070.453866933701	0
2	5060	4072.012955034543	1
2	5061	4072.403463888676	0
2	5075	4074.715342789167	1
2	5077	4074.759233257333	2
2	5080	4075.508595304351	1
2	5083	4076.353939217489	0
2	5120	4087.017478593745	1
2	5121	4087.678930157725	0
2	5145	4098.641737898361	1
2	5146	4099.167791065939	0
2	5160	4118.213767433829	1
2	5161	4118.364511507786	0
2	5185	4136.476892549565	1
2	5186	4136.702497374652	0
2	5200	4140.057455710637	1
2	5201	4140.29942006232	0
2	5205	4140.350087886712	1
2	5206	4141.239229299461	0
2	5220	4166.68153922744	1
2	5221	4166.808805859746	0
2	5235	4177.536675686428	1
2	5236	4178.291030887434	0
2	5245	4185.994128053155	1
2	5246	4186.65503226563	0
2	5305	4252.754732059821	1
2	5306	4252.998506375842	0
2	5445	4329.821070139751	1
2	5446	4330.128349584262	0
2	5575	4428.506160823857	1
2	5577	4428.670635180618	2
2	5578	4428.803660110433	1
2	5581	4429.910622593344	0
2	5585	4430.1600382442	1
2	5586	4430.909129747239	0
2	5590	4430.972699683801	1
2	5591	4431.884694137194	0
2	5595	4432.053144213529	1
2	5596	4432.913464943089	0
2	5730	4517.63778203629	1
2	5731	4517.973902868269	0
2	5735	4518.172193985457	1
2	5736	4519.142457568714	0
2	5750	4524.598501818359	1
2	5751	4525.501215394491	0
2	5840	4599.404183022386	1
2	5841	4600.236360282207	0
2	5850	4602.13489003628	1
2	5851	4602.35406402631	0
2	5875	4623.665376759177	1
2	5876	4624.413983123646	0
2	5880	4625.139745041744	1
2	5881	4625.376580287319	0
2	5885	4625.490578710456	1
2	5886	4626.294084446773	0
2	5895	4627.919594583436	1
2	5896	4628.545632227034	0
2	5965	4717.896403742751	1
2	5966	4718.19418942511	0
2	5970	4718.325314197932	1
2	5971	4719.20121964367	0
2	5980	4720.954723709267	1
2	5981	4721.248803029134	0
2	6000	4729.072915429832	1
2	6001	4729.182387986689	0
2	6010	4731.561189187982	1
2	6013	4732.228317201796	0
2	6017	4732.725313540634	1
2	6018	4733.401919973276	0
2	6060	4762.941238999336	1
2	6061	4763.264709149981	0
2	6065	4763.936428614243	1
2	6066	4764.278327958873	0
2	6100	4789.879271408064	1
2	6101	4790.691651555151	0
2	6150	4827.805116746829	1
2	6152	4828.261328290722	2
2	6153	4828.724244576251	1
2	6157	4828.823477788018	2
2	6158	4829.741823625123	1
2	6162	4829.772914711127	2
2	6163	4830.737625902543	1
2	6168	4831.609755302245	0
2	6172	4831.925596279078	1
2	6173	4832.586045682734	0
2	6185	4835.637685422152	1
2	6186	4835.941585446158	0
2	6195	4841.199985612184	1
2	6196	4841.206926924522	0
2	6200	4841.649367369902	1
2	6201	4842.032148481506	0
2	6230	4861.770174557954	1
2	6231	4862.538201344641	0
2	6295	4919.854507031774	1
2	6296	4920.250108886189	0
2	6300	4921.080525855466	1
2	6301	4921.186927035875	0
2	6320	4933.371650775406	1
2	6321	4933.575027332539	0
2	6330	4934.95109619598	1
2	6331	4935.789905787359	0
2	6400	5021.247729602907	1
2	6401	5021.640789102722	0
2	6460	5046.253709473177	1
2	6461	5047.034358068894	0
2	6500	5079.529385124828	1
2	6501	5080.064444927433	0
2	6550	5135.590311881262	1
2	6551	5136.561798436735	0
2	6595	5153.047641502288	1
2	6596	5153.75368847193	0
2	6600	5153.895637097706	1
2	6602	5154.67462907003	2
2	6603	5154.684133069569	1
2	6608	5155.871315346824	0
2	6635	5181.446393272376	1
2	6636	5182.177017368912	0
2	6640	5182.616530972226	1
2	6641	5183.094637627504	0
2	6730	5279.09926566699	1
2	6731	5279.702045762134	0
2	6770	5318.336574492142	1
2	6771	5319.133146402222	0
2	6790	5328.868620924988	1
2	6793	5329.39208966915	0
2	6845	5381.718840168681	1
2	6846	5381.95531973834	0
2	6850	5382.403602330947	1
2	6851	5383.106294992704	0
2	6855	5383.70290814719	1
2	6857	5383.952923708243	2
2	6858	5384.104115433943	1
2	6861	5385.060417803422	0
2	6890	5402.102934269393	1
2	6891	5402.504917125194	0
2	6975	5495.456286775735	1
2	6977	5495.939109568008	2
2	6978	5496.058178936701	1
2	6982	5496.078726541609	2
2	6983	5497.057023359846	1
2	6986	5498.244565011386	0
2	7030	5534.582814541347	1
2	7031	5535.333530034337	0
2	7085	5596.841956548203	1
2	7087	5596.89742223	2
2	7088	5597.779965781469	1
2	7091	5598.874017874945	0
2	7100	5600.780016057302	1
2	7101	5601.020181399014	0
2	7105	5601.51669206558	1
2	7106	5601.999361685746	0
2	7180	5634.818969592892	1
2	7181	5635.92231643174	0
2	7190	5637.379547552216	1
2	7191	5638.488343241836	0
2	7200	5640.693317779915	1
2	7201	5640.809965054479	0
2	7245	5674.547482603132	1
2	7246	5674.921566915084	0
2	7260	5680.202869469125	1
2	7261	5680.858654160442	0
2	7317	5717.174947835394	1
2	7318	5717.19929752728	0
2	7322	5717.595499000482	1
2	7323	5718.071750927121	0
2	7340	5740.749280021553	1
2	7341	5741.73548792093	0
2	7345	5741.878993687324	1
2	7346	5742.902448121877	0
2	7350	5743.604581835044	1
2	7351	5743.717173876566	0
2	7410	5840.564623563044	1
2	7411	5840.965370515162	0
2	7430	5847.181970213106	1
2	7432	5847.689714535055	2
2	7433	5847.743599981379	1
2	7436	5848.93948204362	0
2	7455	5864.374420985694	1
2	7456	5864.8914228584	0
2	7520	5939.05047201747	1
2	7521	5940.050211035751	0
2	7530	5941.731204653492	1
2	7531	5942.150493748777	0
2	7580	5959.530194232164	1
2	7581	5960.438330509969	0
2	7595	5965.365571208359	1
2	7597	5965.771406158034	2
2	7598	5966.275046511534	1
2	7601	5967.142114321961	0
2	7645	5986.093855150233	1
2	7646	5986.591448617205	0
2	7650	5987.454240764512	1
2	7651	5987.508012338392	0
2	7660	5989.039880930759	1
2	7661	5990.048603087861	0
2	7777	6114.471858672983	1
2	7778	6114.549360585889	0
2	7825	6173.266857125948	1
2	7826	6174.306933325347	0
2	7845	6195.306573793837	1
2	7846	6195.442060496221	0
2	7940	6315.097028122715	1
2	7941	6315.406917723142	0
2	7950	6320.28547868011	1
2	7951	6320.413537140999	0
2	7957	6320.727839287145	1
2	7958	6321.300275472615	0
2	7970	6329.971718130091	1
2	7971	6330.992413945815	0
2	8020	6381.218912024403	1
2	8021	6381.997640252942	0
2	8025	6382.131061391536	1
2	8027	6382.815859640884	2
2	8028	6382.897758757872	1
2	8031	6383.932928872751	0
2	8090	6440.18714992437	1
2	8093	6440.558557709416	0
2	8115	6448.713276169699	1
2	8116	6449.223233620321	0
2	8140	6467.535002636592	1
2	8141	6467.60007940089	0
2	8215	6535.612680499381	1
2	8216	6535.949118761035	0
2	8410	6721.240213809357	1
2	8411	6722.274446285194	0
2	8415	6722.832135007462	1
2	8416	6723.123500187652	0
2	8420	6723.416535065751	1
2	8423	6724.236778683452	0
2	8430	6725.46657811986	1
2	8431	6726.27581453794	0
2	8485	6770.461433711517	1
2	8486	6771.076148892583	0
2	8525	6792.860364312216	1
2	8526	6793.331216930632	0
2	8635	6881.493161597714	1
2	8636	6882.102211492557	0
2	8650	6886.225446032098	1
2	8651	6886.709514227517	0
2	8672	6893.062839726852	1
2	8673	6893.432808791914	0
2	8705	6918.47551710813	1
2	8706	6919.007596993584	0
2	8730	6934.150466249629	1
2	8731	6934.52089704021	0
2	8785	6978.704481910794	1
2	8788	6979.364623114169	0
2	8935	7107.932770633009	1
2	8936	7108.416849229516	0
2	8965	7127.200634773345	1
2	8966	7128.34387908353	0
2	8985	7133.154013153396	1
2	8986	7134.25431417114	0
2	9005	7139.361895544733	1
2	9006	7140.155229839468	0
2	9022	7143.158106916925	1
2	9023	7143.190828544207	0
2	9030	7144.58547622073	1
2	9031	7145.376481658433	0
2	9055	7174.14273274934	1
2	9056	7174.350689623157	0
2	9140	7254.379796188449	1
2	9141	7254.927023572758	0
2	9170	7266.158854864818	1
2	9171	7266.626230078608	0
2	9185	7279.623063431849	1
2	9186	7280.39382988038	0
2	9190	7281.407608951212	1
2	9191	7281.493262894736	0
2	9215	7297.908626406882	1
2	9216	7298.355145813191	0
2	9220	7298.95332695127	1
2	9221	7299.537801380494	0
2	9235	7307.300309943448	1
2	9236	7307.757067356386	0
2	9260	7330.781532972028	1
2	9261	7330.827533403863	0
2	9295	7357.298585460247	1
2	9296	7358.178395626138	0
2	9312	7374.302828297329	1
2	9313	7374.567542787094	0
2	9355	7425.42260078469	1
2	9356	7426.283664129701	0
2	9370	7443.744623334852	1
2	9371	7443.887335742499	0
2	9375	7443.977664428349	1
2	9376	7444.757289955533	0
2	9385	7449.392267667634	1
2	9386	7449.704648628185	0
2	9400	7453.693685062534	1
2	9401	7454.511918717632	0
2	9425	7470.751515460722	1
2	9427	7471.356888862625	2
2	9428	7471.610144337321	1
2	9432	7471.814500196652	2
2	9433	7472.610139575096	1
2	9436	7473.454679059943	0
2	9455	7495.397602901607	1
2	9456	7495.927767158065	0
2	9510	7544.762895123967	1
2	9511	7545.384599836124	0
2	9520	7547.121965495141	1
2	9521	7547.891980667218	0
2	9580	7606.738126034646	1
2	9581	7606.909092942845	0
2	9585	7606.953769499393	1
2	9588	7607.832943253159	0
2	9592	7607.839427963751	1
2	9593	7608.691825267706	0
2	9605	7611.603469349091	1
2	9606	7612.690919264928	0
2	9640	7632.949181363535	1
2	9641	7632.984032408823	0
2	9692	7660.370001141541	1
2	9693	7660.782070093069	0
2	9705	7663.126311407206	1
2	9706	7663.699400246263	0
2	9720	7668.18306611254	1
2	9721	7668.335941509513	0
2	9740	7676.37061698132	1
2	9741	7676.904523571766	0
2	9745	7677.542125724455	1
2	9747	7677.895567518109	2
2	9748	7677.924878025706	1
2	9751	7679.05892834207	0
2	9795	7717.455978258697	1
2	9796	7717.573067047344	0
2	9870	7786.071093990662	1
2	9871	7786.697442404317	0
2	9875	7787.511538526117	1
2	9876	7787.840221568799	0
2	9925	7857.780566034209	1
2	9926	7857.913228930858	0
2	10035	7960.001255633128	1
2	10036	7960.792936612917	0
2	10040	7961.295131666067	1
2	10041	7961.9507441865	0
2	10050	7968.510618160044	1
2	10051	7968.996621197537	0
2	10060	7971.565412117467	1
2	10061	7971.86897167867	0
2	10180	8090.785350027789	1
2	10181	8091.093487691333	0
2	10230	8130.027302977795	1
2	10231	8130.45534848215	0
2	10245	8139.85581192053	1
2	10246	8140.471734607012	0
2	10340	8215.776726657937	1
2	10341	8216.737543785686	0
2	10345	8216.829428743271	1
2	10346	8217.566824494137	0
2	10360	8224.105329729481	1
2	10361	8224.48378857114	0
2	10380	8245.415632505224	1
2	10381	8246.18507075272	0
2	10420	8281.531335822433	1
2	10421	8282.066992436875	0
2	10425	8282.371474735817	1
2	10426	8283.080718115218	0
2	10430	8283.279595806495	1
2	10431	8284.137129676495	0
2	10455	8294.337193535297	1
2	10458	8295.155403270824	0
2	10467	8296.79792941559	1
2	10468	8297.295449694498	0
2	10645	8461.636951005882	1
2	10646	8462.411157784958	0
2	10672	8470.865060609215	1
2	10673	8471.599321091728	0
2	10700	8528.822283489954	1
2	10701	8529.768241390276	0
2	10750	8554.195827260551	1
2	10751	8554.932161250019	0
2	10755	8555.706810549736	1
2	10756	8555.772178392911	0
2	10760	8555.787749210499	1
2	10761	8556.94619393857	0
2	10855	8635.317233220645	1
2	10856	8635.809090408363	0
2	10900	8651.182446917432	1
2	10901	8651.484106543125	0
2	10965	8706.495647196728	1
2	10967	8706.841939032092	2
2	10968	8707.110138316205	1
2	10972	8707.451477436602	2
2	10975	8708.197986825494	1
2	10978	8709.175622674761	0
2	10990	8714.230226109703	1
2	10991	8714.989665146935	0
2	11000	8718.602796172759	1
2	11001	8718.767134850721	0
2	11030	8735.704520572192	1
2	11031	8736.736225769216	0
2	11040	8748.875254570244	1
2	11041	8749.629428910916	0
2	11045	8749.945356929527	1
2	11046	8750.788065537703	0
2	11180	8905.429249566751	1
2	11181	8906.251723000923	0
2	11197	8909.463153398665	1
2	11198	8909.608022859308	0
2	11220	8922.014622497346	1
2	11221	8922.877450729409	0
2	11257	8938.241995454957	1
2	11258	8938.435966291295	0
2	11262	8938.83526731384	1
2	11263	8939.394284125713	0
2	11275	8948.198680030348	1
2	11276	8949.096833106118	0
2	11307	8965.92428313511	1
2	11308	8966.095353160983	0
2	11317	8967.252296775648	1
2	11319	8967.478060238616	2
2	11320	8968.334784563722	1
2	11323	8969.319597404355	0
2	11327	8969.741108832083	1
2	11328	8970.306566752864	0
2	11332	8970.534348723715	1
2	11333	8971.341578361949	0
2	11357	8976.556539204348	1
2	11358	8976.61797455217	0
2	11364	8977.104297106735	1
2	11365	8977.612937570394	0
2	11420	9007.681244526235	1
2	11421	9008.632615686633	0
2	11485	9068.171417296239	1
2	11486	9068.295874540454	0
2	11490	9068.410422236748	1
2	11491	9069.453001398726	0
2	11495	9069.699641935427	1
2	11496	9070.489438069372	0
2	11500	9071.254387772498	1
2	11501	9071.63415565057	0
2	11525	9113.137726969162	1
2	11526	9113.687873350608	0
2	11540	9125.652022994261	1
2	11541	9125.893063462807	0
2	11545	9126.166265466574	1
2	11546	9127.049084020967	0
2	11595	9169.994037688377	1
2	11596	9170.168864818261	0
2	11610	9177.723428891255	1
2	11611	9177.874421855382	0
2	11655	9216.060523400753	1
2	11656	9217.057529597744	0
2	11665	9218.748693305013	1
2	11666	9219.432541545319	0
2	11825	9337.019285511719	1
2	11826	9337.318027771033	0
2	11845	9345.360697351751	1
2	11847	9345.524471427512	2
2	11848	9345.602902404917	1
2	11851	9346.608373707579	0
2	11985	9454.696759666783	1
2	11986	9454.81569266171	0
2	11995	9459.01517160946	1
2	11996	9459.065306355111	0
2	12005	9461.041025724193	1
2	12006	9461.26876142859	0
2	12015	9462.58193137692	1
2	12017	9462.630988470391	2
2	12018	9463.313704601572	1
2	12021	9464.458347497777	0
2	12065	9492.064484305901	1
2	12066	9492.420574049799	0
2	12075	9493.933932674202	1
2	12076	9494.679246318402	0
2	12082	9495.01464041849	1
2	12083	9495.789511704693	0
2	12100	9506.991488252841	1
2	12101	9507.234845350047	0
2	12110	9508.676155157962	1
2	12111	9509.332961279203	0
2	12125	9519.252160329279	1
2	12126	9519.551387159927	0
2	12175	9559.235144533422	1
2	12177	9559.681987371035	2
2	12178	9560.342153972045	1
2	12181	9561.183888739005	0
2	12210	9570.390114512286	1
2	12212	9570.915422977832	2
2	12213	9571.081246366397	1
2	12216	9572.057353386701	0
2	12270	9641.091604576209	1
2	12271	9641.175960604234	0
2	12315	9695.524819266506	1
2	12316	9696.358984678893	0
2	12390	9750.888522784356	1
2	12391	9751.049080688055	0
2	12397	9751.308666011972	1
2	12398	9752.00434048466	0
2	12402	9752.398009705938	1
2	12403	9752.873365858212	0
2	12430	9766.037401457083	1
2	12432	9766.12192986698	2
2	12433	9766.610264956267	1
2	12436	9767.785250988943	0
2	12470	9794.276179495812	1
2	12472	9794.618969909229	2
2	12473	9795.131445186982	1
2	12476	9796.109850672005	0
2	12505	9815.78229217403	1
2	12508	9816.468182216918	0
2	12515	9817.694760970785	1
2	12516	9818.680565548835	0
2	12520	9818.79535286644	1
2	12521	9819.772021791579	0
2	12665	9935.086533030481	1
2	12666	9935.868518391997	0
2	12690	9945.057331737116	1
2	12691	9945.30554920906	0
2	12745	10001.207703573951	1
2	12746	10001.803511639331	0
2	12765	10014.220607828583	1
2	12766	10015.0417559351	0
2	12795	10037.833099270465	1
2	12796	10038.017261674799	0
2	12800	10038.108539631552	1
2	12802	10038.569379479016	2
2	12803	10039.117960264146	1
2	12806	10040.014820907902	0
2	12820	10048.838499442248	1
2	12821	10049.474374536288	0
2	12825	10049.881352077228	1
2	12826	10050.400010678128	0
2	12985	10196.339341508146	1
2	12986	10197.236457095154	0
2	13035	10247.307252119081	1
2	13036	10248.210179396319	0
2	13042	10248.371314993121	1
2	13043	10249.098816629006	0
2	13047	10249.129497900477	1
2	13048	10249.977921211413	0
2	13052	10250.439323134619	1
2	13053	10250.94855784529	0
2	13115	10300.603627175139	1
2	13116	10300.753554465831	0
2	13120	10301.092458217011	1
2	13121	10301.569649467733	0
2	13140	10311.796707649932	1
2	13143	10312.370930085698	0
2	13240	10383.953064482438	1
2	13241	10384.702621180731	0
2	13280	10406.590887944655	1
2	13281	10407.310950757269	0
2	13350	10468.392525335799	1
2	13351	10468.838091357215	0
2	13375	10481.023184268549	1
2	13376	10481.119100038953	0
2	13415	10497.947500350157	1
2	13416	10498.162314210469	0
2	13425	10500.560680790672	1
2	13426	10500.983310348524	0
2	13555	10668.921047677279	1
2	13556	10669.04933613218	0
2	13610	10735.086037013315	1
2	13611	10736.087009142658	0
2	13695	10825.297427020714	1
2	13696	10825.909692948666	0
2	13700	10826.250455104188	1
2	13701	10826.836482502595	0
2	13705	10827.265524860689	1
2	13706	10827.906123733316	0
2	13730	10857.692957310493	1
2	13731	10858.178801608425	0
2	13785	10901.030802980144	1
2	13786	10901.432539736968	0
2	13795	10902.930785193239	1
2	13796	10903.535846268267	0
2	13805	10907.646037759212	1
2	13806	10908.153161074811	0
2	13835	10924.950686156046	1
2	13836	10925.282410337054	0
2	13840	10926.024109279866	1
2	13843	10926.144225504738	0
2	13897	10950.361520804268	1
2	13898	10950.690437720838	0
2	13905	10951.736855059476	1
2	13906	10952.617660660977	0
2	13915	10954.710936240764	1
2	13916	10955.029071900147	0
2	13930	10962.64441592403	1
2	13931	10962.919502446589	0
2	13945	10975.448391907666	1
2	13946	10976.472133325586	0
2	13995	11020.952673474082	1
2	13996	11021.460896181535	0
2	14010	11029.343024066611	1
2	14011	11029.738337416675	0
2	14015	11029.749563338446	1
2	14017	11030.67135102703	2
2	14018	11030.672091002118	1
2	14021	11031.73329323531	0
2	14040	11043.38256275061	1
2	14041	11043.972198240771	0
2	14045	11044.358090094928	1
2	14046	11045.12476617157	0
2	14055	11046.133571480978	1
2	14056	11046.900533158179	0
2	14135	11118.157967586353	1
2	14136	11119.138597817082	0
2	14225	11235.171619276848	1
2	14226	11235.472237829137	0
2	14232	11236.01635140785	1
2	14233	11236.648216767161	0
2	14260	11245.226828277676	1
2	14261	11246.025043548337	0
2	14380	11387.611945985554	1
2	14381	11387.834281205675	0
2	14475	11453.646880284209	1
2	14476	11454.460830990458	0
2	14480	11454.472072149484	1
2	14481	11455.317310929252	0
2	14520	11473.06624015262	1
2	14521	11474.083756596602	0
2	14530	11479.071276704868	1
2	14531	11479.992047468015	0
2	14545	11505.102459311783	1
2	14546	11505.137946889146	0
2	14610	11539.317884290503	1
2	14611	11540.262210535006	0
2	14625	11544.625728076203	1
2	14626	11545.479011083582	0
2	14655	11551.945860785804	1
2	14656	11552.379272626773	0
2	14720	11582.973901289802	1
2	14721	11583.40981791289	0
2	14730	11585.39552926483	1
2	14731	11586.12942745043	0
2	14742	11587.540089763106	1
2	14745	11588.022945795395	0
2	14770	11593.479025124765	1
2	14771	11594.44565124649	0
2	14780	11596.320635905678	1
2	14781	11596.577151692261	0
2	14809	11617.160791554226	1
2	14810	11617.696693227746	0
2	14817	11619.087607745866	1
2	14818	11619.613016788781	0
2	14822	11619.943201244307	1
2	14823	11620.609936949916	0
2	14827	11620.790725957761	1
2	14828	11621.693662586555	0
2	14850	11630.942889146309	1
2	14851	11631.318928252543	0
2	14870	11657.233709009	1
2	14871	11658.018432773219	0
2	14945	11746.674865886089	1
2	14946	11747.539014600646	0
2	14995	11841.388982777028	1
2	14996	11841.411541058979	0
2	15015	11851.894803308683	1
2	15016	11852.006122254285	0
2	15020	11852.022504058931	1
2	15021	11853.125433173946	0
2	15070	11904.907069922895	1
2	15071	11905.694962339904	0
2	15122	11942.239039263227	1
2	15123	11942.422090380478	0
2	15185	11990.090468316111	1
2	15188	11991.060299403368	0
2	15195	11992.15196173982	1
2	15196	11992.850646261925	0
2	15200	11993.059504203652	1
2	15201	11993.652827414645	0
2	15215	12000.972006294082	1
2	15216	12001.251779262631	0
2	15275	12061.899363144268	1
2	15276	12062.694224047074	0
2	15315	12086.958309000901	1
2	15316	12087.103348940867	0
2	15320	12087.182992139451	1
2	15321	12088.120197045873	0
2	15335	12113.76684024405	1
2	15336	12114.76769675599	0
2	15345	12115.939410291685	1
2	15346	12116.683616256415	0
2	15440	12181.846139114719	1
2	15441	12182.595256156962	0
2	15450	12186.484924691689	1
2	15451	12186.619349572363	0
2	15455	12187.372480266558	1
2	15456	12187.74768519534	0
2	15465	12190.355687457276	1
2	15466	12190.462602826721	0
2	15470	12190.671082935999	1
2	15471	12191.423210799928	0
2	15480	12194.307043038491	1
2	15481	12194.526464537474	0
2	15490	12196.490676747751	1
2	15491	12196.904722650414	0
2	15510	12211.010112123073	1
2	15511	12211.781225485291	0
2	15520	12214.3712418953	1
2	15521	12214.984075355139	0
2	15560	12266.541960910906	1
2	15562	12267.28725534866	2
2	15563	12267.648360021983	1
2	15568	12268.672225745686	0
2	15572	12268.842430980059	1
2	15573	12269.615736935299	0
2	15585	12276.483826349815	1
2	15586	12276.799486808364	0
2	15635	12337.165804336558	1
2	15636	12337.713315345553	0
2	15722	12434.394335177234	1
2	15723	12434.695634065652	0
2	15735	12440.887335190243	1
2	15736	12441.067556273019	0
2	15745	12443.898388370635	1
2	15746	12443.993572733272	0
2	15790	12458.651693316055	1
2	15791	12459.531255114553	0
2	15885	12538.122854131282	1
2	15886	12538.196577698558	0
2	15910	12549.326888414269	1
2	15911	12549.595654825557	0
2	15915	12550.610989194049	1
2	15916	12550.772108611435	0
2	15920	12551.164444207684	1
2	15921	12551.579909611464	0
2	15932	12553.573190929194	1
2	15933	12553.889381778901	0
2	15937	12553.973870847442	1
2	15938	12554.70854873863	0
2	15995	12599.247437469948	1
2	15996	12599.801500530238	0
2	16015	12613.52281609219	1
2	16016	12614.120256429241	0
2	16030	12628.083380533255	1
2	16031	12628.699332835347	0
2	16060	12657.490290264235	1
2	16061	12658.077326129196	0
2	16075	12664.73495463277	1
2	16076	12665.288698720524	0
2	16087	12667.085274766707	1
2	16088	12667.472316514013	0
2	16092	12668.124301130617	1
2	16094	12668.463263335311	2
2	16095	12668.546880109852	1
2	16098	12669.693466755619	0
2	16105	12670.735278815474	1
2	16106	12671.609815416263	0
2	16110	12671.920941572677	1
2	16111	12672.554593619296	0
2	16115	12672.872050593609	1
2	16117	12673.036238406143	2
2	16118	12673.6037468596	1
2	16121	12674.488865541351	0
2	16125	12675.072858539116	1
2	16126	12675.369757710175	0
2	16130	12675.603099646973	1
2	16131	12676.542094830574	0
2	16195	12701.424338586998	1
2	16196	12701.952343361939	0
2	16200	12702.112010565657	1
2	16201	12703.132131691578	0
2	16215	12706.62407830565	1
2	16216	12707.279595585782	0
2	16220	12708.079888602358	1
2	16221	12708.330270171128	0
2	16240	12720.615591674187	1
2	16241	12720.75525992237	0
2	16275	12742.465100476328	1
2	16276	12742.842450401826	0
2	16295	12751.662582911313	1
2	16297	12752.211483724745	2
2	16298	12752.336467133364	1
2	16302	12753.238836112156	2
2	16303	12753.347706252331	1
2	16306	12754.427749790432	0
2	16320	12760.63519931938	1
2	16321	12760.925790984336	0
2	16355	12800.611527003209	1
2	16356	12801.041887763571	0
2	16365	12809.748647468903	1
2	16367	12809.779812426888	2
2	16368	12810.209374626684	1
2	16371	12811.177171172625	0
2	16390	12815.94273509035	1
2	16392	12815.962442462163	2
2	16393	12816.063044370904	1
2	16396	12817.220324356116	0
2	16520	12965.334571506535	1
2	16521	12966.067661018729	0
2	16535	12972.91363781709	1
2	16536	12973.304779548394	0
2	16550	12976.681705935665	1
2	16553	12977.241389342204	0
2	16600	12998.511740640473	1
2	16601	12998.998315885047	0
2	16605	12999.367940933717	1
2	16606	13000.161787672936	0
2	16610	13000.72198568805	1
2	16611	13000.986556295807	0
2	16615	13001.221800541983	1
2	16617	13001.332415153204	2
2	16618	13002.013500797598	1
2	16621	13003.106044770813	0
2	16625	13003.466821770823	1
2	16626	13004.146095570958	0
2	16685	13027.946743635754	1
2	16686	13028.162161128287	0
2	16815	13150.879606340202	1
2	16816	13150.996691758372	0
2	16850	13192.866817648389	1
2	16851	13193.673644895845	0
2	16905	13237.84083206679	1
2	16906	13238.118829312741	0
2	16955	13276.525894687645	1
2	16956	13277.565296028174	0
2	16972	13282.466411639728	1
2	16973	13283.109437438168	0
2	17025	13341.698106351551	1
2	17026	13342.566695938115	0
2	17055	13354.667063160837	1
2	17056	13355.55811982	0
2	17085	13377.087991563355	1
2	17086	13377.310289408106	0
2	17150	13430.032393758199	1
2	17151	13430.655220794987	0
2	17155	13431.279073996314	1
2	17156	13431.663527415816	0
2	17222	13473.664632756801	1
2	17223	13474.424371839573	0
2	17240	13481.215425565839	1
2	17241	13481.261752723012	0
2	17245	13481.46761066127	1
2	17246	13482.376263681002	0
2	17250	13482.904910179275	1
2	17251	13483.207479780022	0
2	17295	13501.635778943135	1
2	17296	13502.017662731396	0
2	17310	13505.392141455189	1
2	17311	13505.726556278997	0
2	17352	13545.268244116968	1
2	17353	13545.427960801977	0
2	17360	13546.417055595588	1
2	17361	13547.193519976656	0
2	17455	13611.380833573259	1
2	17457	13612.22899207775	2
2	17458	13612.253834115343	1
2	17463	13613.227010724043	0
2	17467	13613.400998359188	1
2	17468	13614.171278953367	0
2	17477	13615.488311049727	1
2	17478	13616.382514544577	0
2	17505	13638.722990314525	1
2	17506	13639.28164372994	0
2	17510	13639.591221292622	1
2	17511	13640.480171326179	0
2	17605	13740.023825305901	1
2	17608	13740.651995749502	0
2	17615	13742.168372133208	1
2	17616	13742.650104962857	0
2	17700	13875.043682386268	1
2	17701	13875.538150313437	0
2	17705	13876.282516290549	1
2	17706	13876.670953257229	0
2	17715	13878.541090503783	1
2	17716	13878.585120722499	0
2	17760	13907.36514820767	1
2	17761	13907.962321695063	0
2	17775	13916.53897741541	1
2	17776	13917.263151906952	0
2	17780	13918.147446507293	1
2	17781	13918.459776482135	0
2	17825	13940.323682075008	1
2	17826	13940.962556610708	0
2	17915	14021.438613785648	1
2	17916	14022.359682398065	0
2	17935	14029.908801548846	1
2	17936	14030.347920523035	0
2	17940	14030.447461002857	1
2	17941	14031.424550906951	0
2	17945	14031.872894279863	1
2	17948	14032.620125129363	0
2	17960	14035.437440609667	1
2	17961	14036.114073992405	0
2	17980	14061.289775732134	1
2	17981	14061.999770079972	0
2	18020	14091.101674822947	1
2	18021	14091.32559315363	0
2	18030	14092.848719870149	1
2	18031	14093.890368153646	0
2	18110	14174.473678515576	1
2	18112	14175.391239973285	2
2	18113	14175.476776696579	1
2	18116	14176.533233036776	0
2	18120	14176.745919185014	1
2	18121	14177.381130838976	0
2	18125	14178.287870059227	1
2	18126	14178.345491500781	0
2	18165	14196.008723049298	1
2	18166	14196.715884677781	0
2	18200	14217.832496073754	1
2	18201	14218.474397703842	0
2	18215	14224.204315441422	1
2	18216	14224.639928099256	0
2	18240	14233.54712279147	1
2	18241	14233.965596840656	0
2	18245	14234.343525007634	1
2	18246	14235.148902383013	0
2	18255	14240.045541406336	1
2	18256	14240.065232768961	0
2	18260	14240.672053226423	1
2	18261	14240.889591847946	0
2	18310	14284.820297163703	1
2	18311	14285.660002716717	0
2	18315	14285.705434592491	1
2	18316	14286.805510749754	0
2	18355	14327.177841184348	1
2	18358	14328.082926620651	0
2	18445	14405.806890185386	1
2	18446	14406.293283824912	0
2	18515	14465.186026204171	1
2	18517	14466.176335591883	2
2	18518	14466.326446159648	1
2	18521	14467.284561097527	0
2	18545	14492.432677410873	1
2	18546	14492.564239697819	0
2	18655	14574.373273757865	1
2	18656	14574.566953068493	0
2	18700	14632.92798604425	1
2	18701	14633.018200418785	0
2	18805	14736.970051222845	1
2	18806	14737.364393238037	0
2	18810	14737.874114747046	1
2	18811	14738.464698848466	0
2	18837	14754.998228722263	1
2	18838	14755.314792342627	0
2	18845	14756.445062635854	1
2	18846	14757.399701107064	0
2	18860	14760.594639640932	1
2	18861	14760.724281553881	0
2	18872	14761.719068738607	1
2	18873	14762.768049094503	0
2	18895	14776.80469800027	1
2	18898	14777.698993080754	0
2	18920	14825.411276479675	1
2	18921	14825.832306866427	0
2	18955	14847.57086198471	1
2	18956	14848.256088925184	0
2	18990	14862.910203317798	1
2	18991	14863.107456473015	0
2	18995	14863.498343854178	1
2	18998	14864.189767832622	0
2	19020	14891.924464065207	1
2	19021	14892.490490018406	0
2	19027	14892.829938713975	1
2	19028	14893.552329046202	0
2	19060	14905.441726274495	1
2	19061	14906.015719434173	0
2	19070	14913.07511740306	1
2	19071	14913.710585151356	0
2	19125	14963.277927792267	1
2	19126	14963.926301961949	0
2	19135	14965.269764952165	1
2	19136	14966.253983775725	0
2	19210	15037.664982060479	1
2	19211	15037.867140358805	0
2	19250	15082.579371774068	1
2	19251	15082.91373412065	0
2	19305	15120.07732604136	1
2	19306	15120.778475379209	0
2	19395	15191.407948983125	1
2	19396	15192.359926541047	0
2	19420	15214.521077128935	1
2	19421	15215.373736504926	0
2	19435	15221.639290251321	1
2	19436	15222.061136207519	0
2	19440	15223.09807142288	1
2	19441	15223.213119365157	0
2	19510	15312.193819602621	1
2	19511	15312.396693919479	0
2	19525	15326.040920333219	1
2	19526	15326.613206087741	0
2	19565	15372.226876787261	1
2	19567	15372.552158289221	2
2	19568	15372.612762329462	1
2	19571	15373.475175359393	0
2	19575	15373.968221009815	1
2	19576	15374.372364529888	0
2	19585	15376.183114619218	1
2	19586	15376.372961803749	0
2	19625	15399.930299496934	1
2	19626	15400.924303710455	0
2	19670	15438.379906794512	1
2	19671	15438.790985436508	0
2	19680	15440.501188523896	1
2	19681	15441.486162327104	0
2	19755	15507.648218588274	1
2	19756	15507.985148340784	0
2	19775	15522.248579380388	1
2	19776	15522.906738712695	0
2	19785	15525.20919322722	1
2	19786	15525.548165027862	0
2	19820	15558.986975281022	1
2	19821	15559.29624970842	0
2	19900	15665.439999458273	1
2	19901	15666.159955643284	0
2	19925	15673.576984152161	1
2	19926	15674.35615814269	0
2	19965	15721.81400694881	1
2	19966	15722.691296454761	0
2	20090	15840.960858647459	1
2	20091	15841.743718757822	0
2	20095	15841.838784992604	1
2	20096	15842.702933800842	0
2	20100	15843.047712075967	1
2	20101	15843.866584120754	0
2	20105	15844.654608653911	1
2	20106	15844.807127123855	0
2	20115	15846.105670626843	1
2	20116	15847.15098686413	0
2	20120	15847.194872376933	1
2	20121	15848.031190752043	0
2	20170	15899.784319123499	1
2	20171	15899.998831227618	0
2	20175	15900.515115482394	1
2	20176	15901.14662357607	0
2	20180	15901.152488960094	1
2	20181	15902.015585177681	0
2	20300	15961.164411546893	1
2	20301	15962.167829129595	0
2	20320	15971.603093269659	1
2	20321	15972.562287873231	0
2	20445	16064.016760847591	1
2	20446	16064.477503593153	0
2	20535	16135.43431568205	1
2	20536	16135.446033741971	0
2	20560	16147.695893769168	1
2	20561	16148.343817752354	0
2	20610	16182.851413220757	1
2	20611	16183.496443017575	0
2	20665	16252.874661075366	1
2	20666	16253.033065573319	0
2	20680	16260.570931240959	1
2	20681	16261.086560963972	0
2	20685	16261.584150559379	1
2	20686	16261.969189329112	0
2	20805	16389.062163052506	1
2	20806	16389.399175723374	0
2	20810	16389.980171381528	1
2	20811	16390.592277829547	0
2	20815	16391.727724876553	1
2	20816	16391.757041515794	0
2	20820	16392.612036197456	1
2	20822	16392.616997713744	2
2	20823	16392.759143495944	1
2	20826	16393.892048065004	0
2	20855	16409.406516725567	1
2	20856	16410.020986703423	0
2	20905	16444.136857149685	1
2	20906	16444.161462258455	0
2	21005	16542.552380788726	1
2	21006	16543.425438399938	0
2	21035	16572.213470893924	1
2	21036	16572.462423636682	0
2	21040	16572.524325061214	1
2	21042	16572.783534180126	2
2	21043	16573.411511990066	1
2	21046	16574.610195831872	0
2	21100	16601.691222313731	1
2	21101	16602.080952016344	0
2	21145	16633.184493383596	1
2	21146	16633.192482866293	0
2	21215	16680.763648101889	1
2	21216	16681.297213536873	0
2	21225	16693.75859331624	1
2	21226	16693.836280073632	0
2	21270	16733.154621853249	1
2	21271	16733.161641266252	0
2	21285	16736.749780494035	1
2	21286	16737.034934349386	0
2	21330	16779.700918279587	1
2	21333	16780.815040191737	0
2	21385	16825.78987697126	1
2	21386	16826.173372224146	0
2	21405	16842.090853425617	1
2	21407	16842.581625108623	2
2	21408	16842.630576770182	1
2	21411	16843.588882223598	0
2	21420	16846.183510057931	1
2	21421	16846.820919837443	0
2	21475	16873.694396862962	1
2	21476	16873.863979260925	0
2	21610	17026.591936573151	1
2	21611	17027.203188409558	0
2	21637	17040.9738766375	1
2	21638	17041.785296523352	0
2	21655	17046.827190743781	1
2	21656	17046.954500734328	0
2	21660	17047.572175961938	1
2	21661	17047.896079386758	0
2	21740	17120.092697529877	1
2	21741	17121.080696151827	0
2	21775	17138.77340647279	1
2	21776	17139.497726909947	0
2	21795	17144.681695435459	1
2	21796	17145.414574344748	0
2	21845	17202.194006122508	1
2	21846	17202.640883479846	0
2	21875	17238.0476823114	1
2	21877	17238.546971086659	2
2	21878	17238.689517764059	1
2	21881	17239.862459757608	0
2	21885	17240.475860615381	1
2	21886	17240.707556789239	0
2	21890	17240.988629069466	1
2	21891	17241.602620540616	0
2	21897	17241.842547877096	1
2	21898	17242.729064571076	0
2	21925	17266.939015960367	1
2	21928	17267.892929622559	0
2	22010	17311.207504802533	1
2	22011	17311.253884664891	0
2	22030	17320.815207224952	1
2	22032	17320.922541345756	2
2	22033	17321.403782334417	1
2	22036	17322.282672277424	0
2	22140	17431.289890128267	1
2	22141	17431.492760615693	0
2	22180	17467.378822763852	1
2	22182	17467.417467548079	2
2	22183	17468.329053173362	1
2	22186	17469.457327680438	0
2	22195	17471.168204539133	1
2	22196	17471.451082771606	0
2	22210	17493.824166442409	1
2	22211	17494.551174464998	0
2	22230	17506.796342941614	1
2	22231	17507.881178540496	0
2	22265	17547.250485282993	1
2	22266	17547.754938025232	0
2	22375	17626.823814889232	1
2	22376	17627.574234815989	0
2	22410	17668.739276962557	1
2	22411	17669.62605342886	0
2	22450	17691.996175474826	1
2	22453	17693.074131433325	0
2	22530	17722.996945255962	1
2	22531	17723.072573103587	0
2	22700	17899.330268022149	1
2	22701	17900.049986376923	0
2	22790	17977.335926902186	1
2	22791	17977.86311947163	0
2	22820	18008.093256825836	1
2	22821	18008.164896441278	0
2	22930	18116.012580408943	1
2	22931	18116.776986095039	0
2	23005	18196.382074341046	1
2	23006	18196.862633683729	0
2	23015	18200.385013403799	1
2	23016	18201.270542079175	0
2	23100	18329.680919615008	1
2	23101	18330.743366730925	0
2	23120	18339.654731717274	1
2	23121	18340.133495782378	0
2	23140	18347.437557799987	1
2	23141	18348.278128811355	0
2	23255	18445.882676598496	1
2	23256	18446.774321456854	0
2	23265	18448.926524916633	1
2	23266	18449.651023670137	0
2	23290	18469.079558305126	1
2	23291	18469.305787963331	0
2	23370	18551.982506106581	1
2	23371	18552.336012434753	0
2	23395	18576.515258292144	1
2	23396	18576.560939460735	0
2	23420	18583.089695125217	1
2	23423	18583.882105646305	0
2	23427	18583.970100666479	1
2	23428	18585.054332638182	0
2	23435	18586.076490026622	1
2	23436	18586.83138020404	0
2	23487	18613.196428657657	1
2	23488	18613.248498054444	0
2	23525	18624.984673115073	1
2	23528	18625.365954297463	0
2	23555	18646.647828102044	1
2	23558	18647.338502970148	0
2	23562	18647.913305915463	1
2	23563	18648.46099656019	0
2	23570	18649.89499175398	1
2	23571	18650.439196423717	0
2	23587	18653.983476089167	1
2	23588	18654.147533177656	0
2	23612	18660.943159024942	1
2	23613	18660.973569144561	0
2	23645	18668.805250622847	1
2	23646	18669.15366814907	0
2	23735	18766.34570295761	1
2	23736	18766.793653253187	0
2	23755	18778.075259264883	1
2	23756	18778.746555463012	0
2	23765	18789.415644154912	1
2	23769	18790.001976281273	2
2	23770	18790.131499430974	1
2	23773	18791.04684191632	0
2	23800	18798.407981317873	1
2	23801	18798.89439942782	0
2	23825	18811.40381537464	1
2	23826	18812.132646648238	0
2	23965	18928.653615823221	1
2	23966	18928.822794641222	0
2	23997	18949.832512245106	1
2	23998	18950.022509365971	0
2	24005	18951.569100527418	1
2	24007	18952.089375584032	2
2	24008	18952.12779435569	1
2	24011	18952.983783068392	0
2	24015	18953.050984681857	1
2	24017	18953.858723831901	2
2	24020	18954.137422971684	1
2	24023	18955.107514428325	0
2	24027	18955.201224415646	1
2	24028	18955.91026967743	0
2	24035	18957.437292218506	1
2	24036	18958.097619435541	0
2	24075	19016.414791217838	1
2	24076	19017.380581006912	0
2	24130	19057.158932246717	1
2	24131	19058.105081433906	0
2	24155	19075.928180375306	1
2	24156	19076.175978379667	0
2	24160	19077.139027403716	1
2	24161	19077.25021993161	0
2	24165	19078.037592089422	1
2	24166	19078.248347572673	0
2	24190	19087.981489791645	1
2	24191	19088.426193371534	0
2	24195	19089.391935101699	1
2	24196	19089.590493360839	0
2	24240	19112.613039434196	1
2	24241	19112.941261871037	0
2	24255	19117.942003766519	1
2	24256	19118.089297497792	0
2	24275	19143.524979059459	1
2	24276	19143.897218683371	0
2	24290	19157.56479930086	1
2	24291	19158.345839670966	0
2	24315	19172.234119219124	1
2	24316	19172.97141074693	0
2	24345	19200.837016135881	1
2	24346	19201.702190932057	0
2	24360	19206.883703315762	1
2	24361	19207.388097192205	0
2	24425	19271.376540700136	1
2	24426	19272.433835448268	0
2	24430	19273.234485134576	1
2	24433	19273.554683976843	0
2	24437	19274.398099317566	1
2	24438	19274.509160349182	0
2	24480	19300.027037975961	1
2	24481	19300.274687744061	0
2	24505	19310.782212716605	1
2	24506	19311.187813276149	0
2	24515	19315.318585205426	1
2	24516	19315.378966211836	0
2	24535	19334.935120835159	1
2	24536	19335.26352537573	0
2	24575	19346.343098496712	1
2	24576	19346.860502996038	0
2	24585	19348.224137804786	1
2	24586	19349.050762676097	0
2	24602	19354.622491719892	1
2	24603	19355.003222059073	0
2	24612	19357.083168980706	1
2	24613	19357.316334957803	0
2	24650	19376.033970027252	1
2	24651	19377.026800063278	0
2	24725	19481.881785533628	1
2	24726	19482.627785831983	0
2	24810	19544.122884450036	1
2	24811	19544.366335708142	0
2	24840	19564.454508266525	1
2	24841	19564.76537331971	0
2	24865	19580.247433154832	1
2	24866	19580.993099609285	0
2	24890	19605.664209940367	1
2	24891	19605.899619256723	0
2	24930	19628.450097388194	1
2	24931	19628.554070376271	0
2	24960	19665.873679742685	1
2	24961	19666.084074353744	0
2	24970	19677.727962173893	1
2	24971	19678.477050528111	0
2	24975	19678.95226328923	1
2	24976	19679.519924891735	0
2	24985	19681.56692937184	1
2	24986	19682.058774887847	0
2	24990	19682.631001918421	1
2	24991	19683.027783973405	0
2	25015	19695.461214609881	1
2	25016	19696.228989633767	0
2	25065	19712.987626479007	1
2	25066	19713.487378265094	0
2	25080	19720.661935547142	1
2	25081	19721.490566566575	0
2	25190	19799.824543276662	1
2	25191	19799.854081389322	0
2	25200	19803.341946365322	1
2	25201	19804.037184421884	0
2	25205	19804.18005629032	1
2	25206	19805.003706072157	0
2	25320	19907.736556819081	1
2	25321	19908.005733865161	0
2	25465	20027.085940781879	1
2	25466	20027.543522273566	0
2	25485	20043.824118059753	1
2	25486	20044.498820601784	0
2	25575	20098.37927983081	1
2	25576	20098.836103429962	0
2	25620	20133.382867196003	1
2	25621	20133.818602968288	0
2	25665	20147.255329991165	1
2	25666	20147.495113219073	0
2	25680	20152.231339931142	1
2	25681	20153.100577382531	0
2	25700	20168.888170760572	1
2	25701	20168.951301493929	0
2	25720	20177.884965333285	1
2	25721	20178.048096762274	0
2	25775	20207.955280386958	1
2	25776	20207.97826197178	0
2	25800	20216.265148809354	1
2	25801	20216.949583153959	0
2	25815	20235.339001535765	1
2	25816	20236.25996038049	0
2	25910	20328.008941428811	1
2	25911	20328.737800094218	0
2	25990	20380.734582971268	1
2	25991	20381.088049003952	0
2	26030	20415.346711747658	1
2	26031	20415.76321514043	0
2	26040	20419.558779639565	1
2	26041	20420.282057790532	0
2	26050	20421.692077411455	1
2	26051	20422.196418638508	0
2	26055	20422.795648891054	1
2	26057	20423.08079759416	2
2	26058	20423.382737466487	1
2	26065	20424.433645877409	0
2	26120	20445.824475102085	1
2	26123	20446.489424849245	0
2	26127	20446.593916244159	1
2	26128	20447.417830933853	0
2	26185	20468.75901707016	1
2	26186	20469.048936565384	0
2	26330	20602.253413736208	1
2	26331	20602.761226379795	0
2	26365	20647.82883873355	1
2	26366	20648.146475112592	0
2	26370	20648.692534420937	1
2	26371	20649.03626753815	0
2	26385	20668.383336689111	1
2	26386	20669.073527340565	0
2	26410	20683.852121712642	1
2	26411	20683.898728445715	0
2	26425	20695.551013080287	1
2	26426	20695.869641956455	0
2	26462	20718.602010313162	1
2	26463	20719.455049775282	0
2	26495	20745.570571866775	1
2	26496	20746.225787874177	0
2	26500	20746.991221640641	1
2	26501	20747.137292459194	0
2	26525	20764.91526871436	1
2	26528	20765.86298198557	0
2	26532	20766.229979118669	1
2	26533	20766.841762972777	0
2	26570	20786.923836334877	1
2	26573	20787.185170951385	0
2	26630	20818.380053946068	1
2	26631	20818.721850869195	0
2	26690	20891.802225179957	1
2	26691	20892.200629946242	0
2	26695	20892.812367688333	1
2	26696	20893.161937957561	0
2	26705	20895.438561676011	1
2	26706	20895.713823609513	0
2	26715	20898.659231974706	1
2	26716	20899.32282859551	0
2	26725	20902.070701557887	1
2	26726	20902.754674339368	0
2	26745	20913.986606968353	1
2	26746	20915.074268572802	0
2	26775	20924.222779151141	1
2	26776	20925.032326974507	0
2	26782	20925.904912101803	1
2	26783	20926.215714270688	0
2	26790	20927.579492448441	1
2	26791	20928.232263491183	0
2	26860	20969.565791797073	1
2	26861	20969.974341107016	0
2	26870	20971.313045208881	1
2	26871	20972.228326830031	0
2	26890	20977.842678452925	1
2	26892	20977.94501927786	2
2	26893	20977.957956328943	1
2	26897	20978.731163660132	2
2	26898	20978.997090439453	1
2	26901	20980.155910745497	0
2	26905	20980.713566242631	1
2	26906	20980.957253200888	0
2	26965	21035.521809075779	1
2	26966	21035.560540842824	0
2	27010	21074.899624103002	1
2	27011	21076.082919523686	0
2	27020	21077.401982130654	1
2	27021	21078.261551599132	0
2	27220	21245.619240322261	1
2	27221	21246.232644803222	0
2	27320	21328.285183087387	1
2	27321	21328.987909019658	0
2	27335	21335.551302365978	1
2	27336	21336.167400062522	0
2	27385	21360.057039459532	1
2	27386	21360.646146122529	0
2	27545	21490.34830451904	1
2	27546	21491.100443356883	0
2	27565	21508.217933251238	1
2	27566	21508.913675154051	0
2	27585	21518.455629957065	1
2	27586	21518.708516467419	0
2	27725	21624.836080184374	1
2	27726	21624.926449377086	0
2	27735	21626.497807090941	1
2	27736	21626.992237540086	0
2	27740	21627.113166568138	1
2	27741	21628.151548903932	0
2	27825	21685.892188234078	1
2	27826	21686.908609668714	0
2	27895	21739.436334373109	1
2	27896	21740.434644239291	0
2	27960	21797.901469994262	1
2	27961	21798.462094495785	0
2	27965	21799.298549507591	1
2	27966	21799.644843861707	0
2	27975	21811.434893153722	1
2	27976	21811.986815069808	0
2	28005	21830.166824310303	1
2	28006	21830.694142911997	0
2	28075	21887.709629565604	1
2	28076	21888.136508364899	0
2	28110	21919.457864304668	1
2	28111	21920.119820146675	0
2	28155	21953.185215467315	1
2	28156	21953.684738784673	0
2	28170	21962.100947624491	1
2	28171	21962.464047439895	0
2	28210	21999.399920268986	1
2	28211	21999.624515249736	0
2	28265	22049.089532214084	1
2	28266	22049.142412747747	0
2	28277	22051.810801596428	1
2	28278	22051.980649625244	0
2	28300	22077.300204589359	1
2	28301	22078.354806478212	0
2	28305	22078.383986852642	1
2	28306	22079.310359625968	0
2	28325	22095.912543356855	1
2	28326	22096.371876144688	0
2	28335	22097.596380302477	1
2	28337	22097.808383139951	2
2	28338	22098.289448055872	1
2	28341	22099.274933283557	0
2	28345	22099.595355974845	1
2	28346	22100.301640980472	0
2	28365	22106.225968181885	1
2	28366	22106.285279879946	0
2	28380	22126.153417369109	1
2	28381	22126.561667675564	0
2	28395	22150.806453258757	1
2	28396	22151.168406156416	0
2	28400	22151.442954973381	1
2	28401	22152.250204942341	0
2	28405	22153.175723301121	1
2	28406	22153.204089237249	0
2	28410	22153.75215868194	1
2	28411	22154.204378609324	0
2	28420	22155.718945926848	1
2	28421	22156.098231602668	0
2	28425	22156.198590573155	1
2	28426	22157.175230905342	0
2	28495	22243.198123954575	1
2	28496	22244.008238377189	0
2	28505	22249.659020279766	1
2	28506	22249.660948252612	0
2	28515	22251.480490744543	1
2	28516	22252.199489073175	0
2	28560	22295.25381469777	1
2	28561	22295.290015633683	0
2	28645	22380.257673642829	1
2	28646	22380.498765886879	0
2	28685	22417.629264390455	1
2	28686	22417.832366011754	0
2	28692	22418.614124031641	1
2	28693	22418.662704626561	0
2	28700	22420.353781108504	1
2	28701	22420.700620574967	0
2	28710	22422.703828443374	1
2	28711	22423.629097932105	0
2	28715	22424.280137075412	1
2	28716	22424.786217888624	0
2	28720	22425.306917262534	1
2	28722	22425.383157414212	2
2	28723	22425.684679658983	1
2	28727	22425.811573486312	2
2	28728	22426.60394126204	1
2	28733	22427.466701370191	0
2	28737	22428.308635316677	1
2	28738	22428.61082307351	0
2	28745	22429.987362400684	1
2	28746	22430.822176794235	0
2	28807	22462.114130808322	1
2	28808	22462.598665300053	0
2	28845	22484.500130288983	1
2	28846	22484.812458687659	0
2	28870	22507.204616313078	1
2	28871	22507.627298679229	0
2	28885	22511.728288880614	1
2	28886	22511.949455462382	0
2	28890	22512.579645160306	1
2	28892	22512.790365257151	2
2	28893	22513.142480501332	1
2	28898	22514.210720000215	0
2	28975	22571.803493769874	1
2	28976	22572.294333248004	0
2	28985	22573.705230958003	1
2	28986	22574.330571350055	0
2	28995	22580.571163101279	1
2	28998	22581.258116658045	0
2	29040	22607.972998935133	1
2	29041	22608.170150761456	0
2	29045	22608.891922484153	1
2	29046	22609.051003517826	0
2	29175	22711.143483930956	1
2	29176	22711.269896978411	0
2	29220	22725.886531829398	1
2	29221	22726.200434078437	0
2	29310	22808.192262655348	1
2	29311	22808.757951196364	0
2	29315	22809.294747368348	1
2	29316	22809.890522335085	0
2	29345	22850.033261289127	1
2	29346	22850.982431852576	0
2	29375	22866.501978020607	1
2	29376	22867.052754916157	0
2	29385	22869.521249143623	1
2	29386	22870.125020254643	0
2	29430	22915.719683813489	1
2	29431	22916.433279707678	0
2	29450	22950.319240642351	1
2	29451	22950.89052405816	0
2	29495	22977.953205025766	1
2	29496	22978.542423286307	0
2	29515	23005.275231471376	1
2	29516	23005.471280033061	0
2	29520	23005.484661337868	1
2	29521	23006.603660694802	0
2	29565	23037.073722011144	1
2	29566	23037.24808153262	0
2	29570	23037.637294642816	1
2	29571	23038.269601116177	0
2	29605	23052.145519600834	1
2	29608	23053.052056604353	0
2	29625	23057.092163290857	1
2	29626	23058.024949549753	0
2	29735	23165.993757911899	1
2	29736	23166.677309504065	0
2	29770	23204.850278584634	1
2	29771	23204.949137400599	0
2	29795	23219.055507129503	1
2	29796	23219.34164050636	0
2	29800	23220.317312946973	1
2	29801	23220.332759082551	0
2	29905	23283.492647301704	1
2	29906	23283.583336262056	0
2	29915	23285.65981633873	1
2	29916	23285.83084362105	0
2	29930	23295.195274850889	1
2	29931	23295.3153722632	0
2	29935	23295.634152515737	1
2	29936	23296.229964090537	0
2	29965	23311.487944984002	1
2	29966	23311.954962580858	0
2	29985	23321.156782667882	1
2	29986	23321.622788437128	0
2	29995	23324.147225531899	1
2	29996	23324.559723432591	0
2	30085	23392.400062519179	1
2	30086	23392.696037332445	0
2	30102	23395.828668244434	1
2	30103	23396.230688687185	0
2	30107	23396.505839555571	1
2	30108	23397.30639976445	0
2	30165	23435.853199246586	1
2	30167	23436.24035731696	2
2	30168	23436.852804082082	1
2	30172	23437.147245621135	2
2	30173	23437.729911435125	1
2	30176	23438.686567397238	0
2	30220	23474.594789322731	1
2	30221	23475.171655360943	0
2	30235	23479.674572559851	1
2	30236	23480.551223625796	0
2	30270	23512.93007180722	1
2	30271	23512.930268838513	0
2	30280	23514.985146535464	1
2	30283	23515.072784618358	0
2	30292	23516.132710436754	1
2	30293	23516.907413402083	0
2	30310	23521.885220454752	1
2	30311	23521.993191364102	0
2	30325	23533.36865139314	1
2	30326	23534.280742546408	0
2	30475	23655.64771582067	1
2	30476	23656.351188435854	0
2	30570	23745.911981931037	1
2	30572	23745.917827851008	2
2	30573	23746.915453165792	1
2	30576	23748.065624127187	0
2	30580	23748.336120261036	1
2	30581	23748.93297138235	0
2	30585	23749.538201436987	1
2	30586	23750.034233653289	0
2	30600	23759.376970299823	1
2	30601	23760.385926868458	0
2	30610	23766.335136019471	1
2	30611	23767.227221318413	0
2	30645	23781.802927313181	1
2	30646	23782.630620923009	0
2	30650	23782.925657431349	1
2	30652	23783.34051334488	2
2	30653	23783.548081906628	1
2	30656	23784.733587445714	0
2	30725	23885.72908783245	1
2	30726	23886.25553921254	0
2	30790	23969.392128870508	1
2	30791	23970.077891151613	0
2	30805	23972.961478576164	1
2	30806	23973.800125512838	0
2	30815	23975.559569087353	1
2	30816	23975.870531548265	0
2	30860	23996.487509693902	1
2	30861	23997.386563570479	0
2	30900	24043.591225090698	1
2	30901	24044.173653301309	0
2	30930	24068.108797765794	1
2	30931	24068.79255432741	0
2	30935	24069.020469451129	1
2	30936	24069.879533854157	0
2	30940	24070.48129016298	1
2	30941	24070.767045288097	0
2	30985	24113.491505639403	1
2	30986	24113.492446443835	0
2	30990	24113.598112711317	1
2	30991	24114.595583667444	0
2	31005	24117.938514008099	1
2	31008	24118.276222616091	0
2	31080	24190.123688922194	1
2	31081	24190.803000329876	0
2	31100	24202.745052407765	1
2	31101	24202.857319789098	0
2	31110	24212.468907331479	1
2	31111	24212.679207813549	0
2	31170	24270.107623721259	1
2	31171	24270.845938615964	0
2	31190	24278.690806628069	1
2	31191	24279.146231124143	0
2	31210	24288.537419049299	1
2	31211	24289.597541706565	0
2	31300	24366.138212858315	1
2	31301	24366.458405640727	0
2	31305	24366.732462286854	1
2	31306	24367.381804308115	0
2	31310	24368.264495171636	1
2	31311	24368.356362055248	0
2	31355	24422.126278996706	1
2	31356	24422.273768014404	0
2	31445	24487.550915223966	1
2	31446	24488.35594013471	0
2	31460	24498.798790925852	1
2	31461	24499.321074802581	0
2	31480	24520.591326904761	1
2	31481	24521.156229211724	0
2	31505	24530.086136884836	1
2	31506	24530.752415432464	0
2	31520	24542.295116199022	1
2	31521	24543.086934267929	0
2	31560	24588.549589872188	1
2	31561	24588.649121203917	0
2	31580	24593.024034329893	1
2	31581	24593.408193200684	0
2	31620	24622.392646178421	1
2	31622	24622.670031539527	2
2	31623	24622.858546379283	1
2	31626	24624.033122940343	0
2	31640	24627.428933727112	1
2	31641	24627.848448687532	0
2	31650	24629.691602286315	1
2	31651	24629.965824094434	0
2	31660	24632.307911614401	1
2	31661	24632.566753761237	0
2	31670	24634.493418450786	1
2	31671	24635.315305263537	0
2	31695	24646.627945431838	1
2	31697	24646.788607134453	2
2	31698	24646.987417196472	1
2	31701	24648.024651502994	0
2	31710	24649.594408979479	1
2	31713	24650.379054210095	0
2	31722	24652.042781023995	1
2	31723	24652.663108473683	0
2	31750	24660.315204328605	1
2	31751	24661.264785592222	0
2	31780	24681.501784489684	1
2	31781	24681.710295443035	0
2	31820	24707.474198032495	1
2	31822	24708.265650562295	2
2	31823	24708.398287754378	1
2	31826	24709.304358863051	0
2	31840	24714.293222321033	1
2	31841	24715.114891709251	0
2	31850	24716.457601448805	1
2	31851	24717.272604022647	0
2	31860	24725.288392788412	1
2	31861	24725.550463743911	0
2	31870	24727.350134619073	1
2	31871	24727.435746971083	0
2	31875	24727.817713319129	1
2	31876	24728.261548675721	0
2	31915	24776.348935311141	1
2	31916	24777.18727420433	0
2	31945	24793.195597364064	1
2	31947	24793.441207073982	2
2	31948	24793.683536146719	1
2	31952	24793.949707380373	2
2	31953	24794.590657584786	1
2	31956	24795.718018446069	0
2	31960	24796.128763396323	1
2	31961	24796.714359531596	0
2	31965	24797.718144950826	1
2	31966	24797.816551571198	0
2	32030	24858.39402513639	1
2	32032	24858.472891546162	2
2	32033	24858.64531090536	1
2	32036	24859.794968268618	0
2	32055	24864.863415733247	1
2	32056	24865.076373254527	0
2	32065	24867.848538723971	1
2	32066	24868.334430676861	0
2	32070	24868.69338086819	1
2	32071	24869.162229680805	0
2	32080	24874.360845417657	1
2	32081	24874.991794703431	0
2	32375	25127.02336694954	1
2	32376	25127.481498902005	0
2	32385	25128.656985611531	1
2	32386	25129.31687144208	0
2	32425	25167.983048106035	1
2	32426	25168.522078922263	0
2	32435	25171.31419598205	1
2	32436	25172.303415671494	0
2	32500	25193.719273516252	1
2	32501	25194.725095993545	0
2	32510	25196.088364484341	1
2	32512	25196.536200754309	2
2	32513	25196.995066084456	1
2	32516	25198.108607997954	0
2	32555	25224.512561418038	1
2	32556	25225.472389986494	0
2	32560	25225.490398686062	1
2	32561	25226.389107233786	0
2	32570	25227.293265647121	1
2	32571	25228.264836253819	0
2	32615	25256.367441170023	1
2	32616	25257.104364194198	0
2	32630	25268.472060931804	1
2	32631	25269.350354299781	0
2	32640	25271.668272693126	1
2	32641	25272.72993238862	0
2	32735	25389.755533892145	1
2	32736	25390.025179595028	0
2	32775	25415.578293167971	1
2	32776	25415.800686126349	0
2	32805	25432.198680364267	1
2	32807	25432.352466148734	2
2	32808	25432.519490874111	1
2	32811	25433.377334580588	0
2	32820	25438.511455587572	1
2	32821	25438.535123009036	0
2	32850	25449.050793152116	1
2	32852	25449.489735549555	2
2	32853	25449.990058354466	1
2	32856	25451.156060628771	0
2	32900	25518.819886744267	1
2	32901	25519.629287319684	0
2	32930	25530.690150582437	1
2	32931	25530.924037312621	0
2	32950	25544.029760992818	1
2	32951	25544.083261727461	0
2	32960	25549.990181201936	1
2	32962	25550.068090989353	2
2	32963	25550.714678695921	1
2	32966	25551.88758355289	0
2	32970	25552.286871972392	1
2	32971	25552.798017114059	0
2	32990	25562.090903429169	1
2	32991	25562.900082178733	0
2	32995	25563.538887351226	1
2	32996	25563.775809867813	0
2	33000	25564.50129130348	1
2	33001	25564.808934465277	0
2	33005	25565.224765401965	1
2	33006	25565.743801090441	0
2	33015	25576.011412010667	1
2	33016	25576.318398729282	0
2	33065	25641.238016728315	1
2	33066	25641.597140756109	0
2	33082	25648.352186752753	1
2	33083	25649.090910463202	0
2	33105	25662.148135144769	1
2	33106	25662.806690157046	0
2	33165	25697.126094680011	1
2	33166	25697.945663878816	0
2	33295	25820.36332129062	1
2	33296	25820.695109251094	0
2	33305	25821.752410279778	1
2	33306	25822.856412259349	0
2	33312	25823.880037162406	1
2	33313	25823.909742717211	0
2	33330	25828.955723706317	1
2	33331	25829.448272461675	0
2	33350	25842.356417280216	1
2	33351	25843.021028564035	0
2	33365	25853.311208122221	1
2	33367	25853.654480329972	2
2	33368	25854.185497038364	1
2	33373	25855.151717771515	0
2	33380	25856.427553311455	1
2	33382	25856.967710474983	2
2	33383	25857.124139958266	1
2	33387	25857.433973928846	2
2	33388	25858.077920124978	1
2	33391	25859.270382581204	0
2	33420	25893.621589489157	1
2	33421	25893.883960781528	0
2	33490	25968.51684899622	1
2	33492	25968.751017145707	2
2	33494	25968.777680904317	3
2	33495	25968.949610353531	2
2	33498	25969.935560707552	1
2	33503	25970.853409010255	0
2	33545	25993.635643603226	1
2	33546	25994.347336912191	0
2	33550	25994.557820140634	1
2	33551	25995.408331900312	0
2	33585	26024.621942792225	1
2	33586	26025.540298004265	0
2	33715	26139.007429978652	1
2	33716	26139.272823377774	0
2	33840	26223.015079017716	1
2	33841	26223.779821439807	0
2	33845	26224.322676397787	1
2	33848	26224.827545597099	0
2	33880	26236.378040135428	1
2	33881	26236.765028472103	0
2	33905	26258.41963789566	1
2	33906	26258.774277133755	0
2	33925	26278.313212274421	1
2	33926	26278.422257072767	0
2	33935	26280.150714338056	1
2	33936	26280.512237159919	0
2	33955	26316.722381685165	1
2	33956	26317.135473439906	0
2	33960	26317.318871679023	1
2	33961	26318.16857049546	0
2	34020	26378.399661011479	1
2	34021	26378.822402094081	0
2	34090	26467.272975006741	1
2	34091	26467.474283489671	0
2	34110	26476.000123931726	1
2	34112	26476.028555578387	2
2	34113	26476.512065018293	1
2	34116	26477.521145283197	0
2	34235	26582.281071747781	1
2	34236	26583.278266098383	0
2	34245	26585.088836424365	1
2	34246	26585.511276139412	0
2	34250	26586.166533027807	1
2	34251	26586.562761773914	0
2	34275	26596.116017034815	1
2	34276	26596.40601331935	0
2	34285	26597.713386234406	1
2	34286	26598.226382234309	0
2	34290	26598.469513028871	1
2	34292	26599.034870159485	2
2	34293	26599.0595241757	1
2	34296	26600.029927039135	0
2	34385	26653.096792288354	1
2	34386	26654.232970352898	0
2	34390	26654.632509616418	1
2	34391	26655.094320989827	0
2	34405	26667.994112247757	1
2	34406	26668.457228194867	0
2	34435	26689.277748558404	1
2	34436	26689.286127988024	0
2	34445	26691.979238504137	1
2	34446	26692.293731635569	0
2	34450	26692.635778337282	1
2	34451	26693.159224205224	0
2	34460	26694.367610230592	1
2	34461	26695.150493191781	0
2	34470	26697.921656183615	1
2	34471	26698.066243144532	0
2	34480	26709.252731911919	1
2	34483	26709.834400429876	0
2	34515	26730.901275493312	1
2	34516	26731.736502789381	0
2	34540	26751.670744473237	1
2	34543	26752.455367876165	0
2	34570	26772.028659568254	1
2	34571	26773.032951083892	0
2	34620	26830.461271893556	1
2	34621	26830.573640361787	0
2	34645	26847.425549789497	1
2	34646	26847.663765240474	0
2	34655	26857.867465711011	1
2	34656	26858.975606126025	0
2	34780	26989.503041269554	1
2	34781	26990.187795820923	0
2	34850	27057.077742270351	1
2	34851	27057.128729746957	0
2	34885	27081.183237590532	1
2	34886	27081.633509093586	0
2	34940	27129.376761817138	1
2	34941	27129.726585374223	0
2	34955	27132.768281356432	1
2	34956	27133.594401065528	0
2	34995	27152.872450832863	1
2	34996	27153.493969750756	0
2	35005	27154.961605215103	1
2	35006	27155.540255823245	0
2	35235	27387.48531673083	1
2	35236	27388.005046714655	0
2	35305	27418.637358687698	1
2	35306	27418.980351271937	0
2	35420	27523.884580350854	1
2	35421	27524.877363607303	0
2	35535	27634.062573028647	1
2	35536	27634.954538315791	0
2	35565	27665.717786245933	1
2	35566	27665.784781311581	0
2	35625	27708.557532555752	1
2	35626	27709.226750934212	0
2	35655	27718.136673510091	1
2	35658	27718.954214285521	0
2	35690	27727.723308204081	1
2	35691	27728.652517503293	0
2	35755	27802.163644044152	1
2	35756	27802.919679521904	0
2	35835	27874.992638293165	1
2	35836	27875.4883597964	0
2	35950	28014.374248230207	1
2	35951	28015.352145275862	0
2	35985	28052.474281801219	1
2	35986	28052.887631995156	0
2	36000	28057.997282537188	1
2	36001	28058.34881644378	0
2	36025	28065.717106293413	1
2	36027	28066.330969813257	2
2	36028	28066.412525667416	1
2	36031	28067.579086076262	0
2	36060	28078.471975972412	1
2	36061	28079.391087339212	0
2	36097	28089.845862594753	1
2	36098	28089.860446117993	0
2	36185	28170.091357626011	1
2	36186	28170.496136999643	0
2	36270	28222.411164119585	1
2	36271	28223.023892601351	0
2	36282	28224.627086522493	1
2	36283	28225.162129104095	0
2	36300	28230.628274888302	1
2	36301	28231.121423707534	0
2	36325	28247.769053718187	1
2	36326	28248.38537858266	0
2	36335	28252.15568307038	1
2	36336	28252.585831861552	0
2	36435	28339.343509914824	1
2	36436	28340.083450184095	0
2	36487	28428.974177211564	1
2	36488	28429.539787960187	0
2	36495	28430.956189690582	1
2	36496	28431.587411131006	0
2	36515	28452.536618349341	1
2	36516	28453.298144756135	0
2	36650	28595.53240166013	1
2	36651	28596.159702948474	0
2	36757	28675.668270226825	1
2	36758	28676.138815998359	0
2	36790	28703.165606494628	1
2	36791	28703.995277379067	0
2	36827	28726.617037496616	1
2	36828	28727.286664478726	0
2	36835	28728.526788500802	1
2	36839	28728.875041116899	2
2	36840	28729.421446618031	1
2	36843	28730.343333915028	0
2	36870	28741.613257963991	1
2	36871	28742.416129100757	0
2	36885	28748.783087709179	1
2	36888	28748.96609792832	0
2	36930	28776.865660847335	1
2	36931	28777.749740029221	0
2	37025	28886.473968053417	1
2	37026	28886.854260086621	0
2	37030	28887.474159992477	1
2	37031	28887.721387822999	0
2	37045	28894.994375602251	1
2	37046	28895.570204733848	0
2	37160	29001.681755070079	1
2	37162	29002.153592342053	2
2	37164	29002.38169067281	3
2	37165	29002.831153239516	2
2	37168	29003.956896877681	1
2	37171	29004.858209857085	0
2	37220	29048.958710213233	1
2	37222	29049.256681115159	2
2	37223	29049.914525758911	1
2	37229	29050.756706847767	2
2	37231	29050.845049967538	3
2	37232	29050.997072296001	2
2	37235	29051.855260098975	1
2	37238	29052.706320200458	0
2	37305	29127.925284329758	1
2	37306	29128.892693862151	0
2	37365	29160.032659258048	1
2	37366	29160.617300704559	0
2	37370	29160.897897456995	1
2	37371	29161.509944515088	0
2	37375	29161.696907656597	1
2	37376	29162.344645648328	0
2	37430	29198.704069099871	1
2	37431	29199.072727516927	0
2	37465	29223.004897269904	1
2	37466	29223.752217757864	0
2	37470	29224.10218101729	1
2	37471	29224.924927422846	0
2	37490	29242.011580792427	1
2	37491	29242.896310782278	0
2	37495	29243.096579202649	1
2	37496	29243.945234552616	0
2	37500	29244.044575457101	1
2	37501	29244.800618125157	0
2	37505	29245.135307637654	1
2	37506	29245.78140787504	0
2	37515	29259.084833288027	1
2	37516	29259.125951696701	0
2	37530	29282.834483374267	1
2	37531	29283.337149477947	0
2	37550	29298.720999550921	1
2	37551	29299.359329067362	0
2	37555	29299.36724975522	1
2	37556	29300.439462750783	0
2	37560	29300.572649200213	1
2	37561	29301.394899681123	0
2	37575	29304.284605733359	1
2	37576	29304.491483522668	0
2	37585	29313.321023376414	1
2	37586	29313.595247396206	0
2	37605	29325.73097284812	1
2	37606	29326.527077282672	0
2	37660	29390.461034728769	1
2	37661	29390.682008729365	0
2	37680	29404.999157119777	1
2	37681	29405.598672751004	0
2	37715	29418.85965381647	1
2	37716	29418.985879875993	0
2	37745	29431.523558979225	1
2	37747	29432.254138653375	2
2	37748	29432.319039353647	1
2	37752	29432.700878184437	2
2	37753	29433.311434491922	1
2	37756	29434.31637136211	0
2	37765	29454.05887057901	1
2	37766	29454.432475931074	0
2	37790	29471.538669787571	1
2	37791	29472.064815688172	0
2	37795	29472.120893601955	1
2	37796	29473.070658163951	0
2	37800	29473.758869916221	1
2	37801	29474.10569110619	0
2	37810	29481.921806719376	1
2	37811	29482.267375882846	0
2	37875	29546.810851173588	1
2	37876	29547.884378341956	0
2	37880	29548.746940489568	1
2	37881	29549.007431856634	0
2	37920	29563.698891913371	1
2	37921	29564.397668672571	0
2	38080	29728.995103846182	1
2	38082	29729.218669484474	2
2	38083	29729.383237892996	1
2	38089	29729.847426987815	2
2	38090	29730.280613193709	1
2	38093	29731.471401929438	0
2	38115	29740.024920622403	1
2	38116	29740.205699172784	0
2	38205	29828.837619634154	1
2	38206	29829.176480669874	0
2	38225	29834.779103726305	1
2	38226	29835.492504723068	0
2	38272	29859.601531870932	1
2	38273	29859.800272558431	0
2	38285	29868.637043419681	1
2	38286	29869.418149351728	0
2	38292	29869.625658793653	1
2	38293	29870.612476687533	0
2	38305	29874.250308301052	1
2	38306	29874.49636491202	0
2	38350	29924.491213573921	1
2	38353	29925.416698244984	0
2	38357	29925.650116429194	1
2	38358	29926.411118045195	0
2	38435	29981.77066844278	1
2	38436	29982.523182162785	0
2	38440	29982.722838623005	1
2	38441	29983.539972292402	0
2	38450	29985.443024072442	1
2	38451	29985.836735695208	0
3	0	0	0
3	5	3.886799369518	1
3	6	4.036076293571	0
3	40	28.672818166723	1
3	41	28.767551640925	0
3	330	320.174000542152	1
3	332	320.818017459017	2
3	333	320.861396224648	1
3	346	324.032731590084	0
3	412	348.02130485063	1
3	417	348.829824830906	2
3	423	350.846190671887	1
3	431	352.910474591408	0
3	450	362.113744395235	1
3	451	362.195694782143	0
3	690	572.976495048048	1
3	691	573.096332133875	0
3	740	591.093509610664	1
3	741	591.79486895777	0
3	795	628.890470932557	1
3	796	629.265327697661	0
3	810	633.162292100561	1
3	811	633.800550867997	0
3	930	731.199769067257	1
3	931	732.011104567742	0
3	935	732.658870191162	1
3	936	733.056557140986	0
3	940	733.471880152582	1
3	941	734.231722386854	0
3	965	755.533572286728	1
3	966	756.026202418601	0
3	980	765.606282831157	1
3	981	765.684401479866	0
3	1050	824.7931314309	1
3	1051	824.835505213174	0
3	1150	909.490498130823	1
3	1151	909.801930949504	0
3	1160	914.151232469009	1
3	1161	914.658817114507	0
3	1195	929.929543920394	1
3	1196	930.540058119955	0
3	1205	931.865225171574	1
3	1206	932.634906690927	0
3	1420	1091.697843564191	1
3	1421	1092.305208721752	0
3	1530	1192.926329000169	1
3	1531	1193.080510453211	0
3	1600	1298.641954436853	1
3	1601	1299.420890423905	0
3	1620	1337.809879741868	1
3	1621	1338.078052527605	0
3	1625	1339.115480539679	1
3	1626	1339.269752243588	0
3	1737	1415.71692675611	1
3	1741	1416.879157607602	0
3	1835	1526.941061569169	1
3	1851	1530.335137587144	0
3	1910	1568.082784639946	1
3	1911	1568.651545189775	0
3	1920	1570.080897577093	1
3	1921	1571.175874880358	0
3	2130	1732.23225651689	1
3	2131	1732.509537623329	0
3	2137	1733.488438172815	1
3	2141	1734.562728081988	0
3	2170	1775.091554601891	1
3	2171	1775.853874975953	0
3	2175	1776.516959536893	1
3	2181	1778.218501332446	0
3	2315	1851.437267540722	1
3	2316	1852.101495967291	0
3	2325	1862.994246324544	1
3	2326	1863.691101282877	0
3	2360	1871.736072487982	1
3	2361	1872.342741523508	0
3	2400	1926.110022237423	1
3	2401	1926.290128123072	0
3	2405	1927.024876949727	1
3	2407	1927.16181469551	2
3	2408	1927.453659633697	1
3	2411	1928.374878125136	0
3	2550	2058.57820738689	1
3	2551	2059.509873746639	0
3	2715	2179.555026631871	1
3	2716	2180.074028158898	0
3	2740	2194.177652012056	1
3	2741	2194.261648804662	0
3	2745	2194.721981974919	1
3	2746	2195.114103938886	0
3	2755	2197.214902630503	1
3	2756	2197.903846448175	0
3	2810	2224.640441084063	1
3	2811	2225.507488231599	0
3	2817	2226.053558233855	1
3	2821	2227.337987048883	0
3	2835	2237.151095818893	1
3	2836	2237.510364940936	0
3	2910	2301.962575381619	1
3	2911	2302.053160655473	0
3	2992	2383.175406739805	1
3	2996	2384.498476318684	0
3	3080	2479.72178604727	1
3	3086	2481.979775073674	0
3	3122	2525.845828269508	1
3	3126	2526.9426117948	0
3	3145	2566.004146971077	1
3	3146	2566.598843733507	0
3	3170	2576.620660824422	1
3	3171	2576.864646455981	0
3	3315	2714.531895078502	1
3	3316	2714.837867037353	0
3	3340	2730.581799744881	1
3	3342	2730.894088097028	2
3	3343	2731.293610238222	1
3	3346	2732.106134523389	0
3	3475	2831.900779850412	1
3	3491	2835.482234628872	0
3	3515	2860.653113944859	1
3	3516	2861.043877955214	0
3	3607	2935.397875482686	1
3	3609	2935.593611231102	2
3	3618	2938.093389526042	1
3	3627	2939.722981643935	2
3	3628	2940.383431082065	1
3	3631	2941.425737066041	0
3	3750	3033.408693345741	1
3	3752	3033.696475970848	2
3	3753	3034.49595319983	1
3	3756	3035.385448224474	0
3	3797	3054.345481276897	1
3	3806	3056.603454707627	0
3	3955	3161.860570587889	1
3	3956	3162.373783445919	0
3	4065	3228.670720001882	1
3	4066	3229.461455927522	0
3	4075	3231.330067183895	1
3	4076	3231.475570077461	0
3	4085	3233.422880577869	1
3	4086	3234.141639175833	0
3	4215	3323.404951495907	1
3	4216	3324.474040663143	0
3	4275	3406.304264521899	1
3	4276	3406.387523370168	0
3	4330	3464.606057896325	1
3	4331	3464.97391584344	0
3	4425	3545.729210324515	1
3	4426	3545.905493203633	0
3	4430	3546.408968074961	1
3	4431	3546.763061121654	0
3	4595	3667.453677191124	1
3	4601	3669.695834127263	0
3	4610	3671.127639874347	1
3	4611	3671.649887021174	0
3	4700	3778.43135786571	1
3	4701	3779.236322494096	0
3	4870	3927.313794941573	1
3	4871	3928.246495709531	0
3	4895	3941.918856825028	1
3	4896	3942.083815338872	0
3	5055	4070.766991967067	1
3	5056	4071.291798027461	0
3	5065	4072.763188104563	1
3	5066	4073.331309019164	0
3	5079	4075.277132211631	1
3	5086	4077.247325328711	0
3	5095	4078.778971861633	1
3	5096	4079.549854936702	0
3	5100	4079.825393958851	1
3	5101	4080.732249325486	0
3	5310	4253.656211164548	1
3	5311	4254.032291783646	0
3	5330	4266.433837601499	1
3	5331	4266.498084410971	0
3	5415	4313.006791047885	1
3	5416	4313.063589481895	0
3	5425	4324.150837752345	1
3	5426	4324.179000104432	0
3	5440	4328.621684639805	1
3	5441	4329.325502573061	0
3	5465	4361.027919857229	1
3	5466	4361.878886011856	0
3	5520	4381.716435771775	1
3	5521	4381.871001446077	0
3	5660	4481.274475771218	1
3	5661	4481.787262744221	0
3	5700	4508.223720954276	1
3	5702	4508.317324565953	2
3	5703	4508.671424282284	1
3	5706	4509.770243180671	0
3	5725	4516.556913793109	1
3	5726	4517.030789468599	0
3	5770	4536.198249833493	1
3	5771	4537.193174799193	0
3	5795	4551.50916926999	1
3	5796	4551.54646287216	0
3	5800	4551.706513065406	1
3	5801	4552.462731588354	0
3	5945	4692.053747527708	1
3	5946	4692.12540235442	0
3	5975	4719.647063642306	1
3	5976	4720.304012517183	0
3	5990	4722.946041936826	1
3	5991	4723.552752132913	0
3	6012	4731.722154735684	1
3	6021	4734.559854881845	0
3	6025	4734.66943067273	1
3	6026	4735.657855522826	0
3	6090	4782.613045573754	1
3	6091	4783.288259245591	0
3	6110	4793.984735957452	1
3	6111	4794.518132292232	0
3	6130	4811.363488742253	1
3	6131	4812.134435695526	0
3	6135	4812.781725469331	1
3	6136	4813.273364876979	0
3	6167	4830.843786561524	1
3	6176	4833.408545092797	0
3	6215	4846.875635116117	1
3	6216	4847.018368542305	0
3	6245	4869.001697945839	1
3	6246	4869.843471764126	0
3	6250	4870.546259338988	1
3	6251	4870.744631643226	0
3	6450	5040.837188826327	1
3	6451	5040.889394691322	0
3	6490	5077.345593397249	1
3	6491	5078.177059050677	0
3	6495	5078.506239958093	1
3	6496	5079.211346705565	0
3	6607	5154.998291871445	1
3	6611	5156.68309437705	0
3	6615	5156.847247714828	1
3	6616	5157.649641819091	0
3	6792	5329.183442543688	1
3	6796	5330.370393249881	0
3	7125	5610.980233322792	1
3	7126	5611.816590961006	0
3	7145	5619.665203117574	1
3	7146	5619.670173941016	0
3	7220	5658.122581959662	1
3	7221	5658.615647870959	0
3	7295	5705.833762425768	1
3	7296	5706.019935525992	0
3	7305	5707.976808811927	1
3	7306	5708.832183614392	0
3	7315	5717.110778464204	1
3	7326	5719.225350973812	0
3	7405	5839.593447882455	1
3	7406	5839.852377305819	0
3	7425	5846.403465255639	1
3	7426	5846.60068006593	0
3	7525	5940.248322603858	1
3	7526	5941.080985022534	0
3	7545	5945.454800685902	1
3	7547	5945.604866486145	2
3	7548	5946.474365286855	1
3	7551	5947.29736217414	0
3	7630	5981.558822172604	1
3	7631	5982.696841206983	0
3	7635	5983.665858319878	1
3	7636	5983.825473413546	0
3	7720	6073.848259804005	1
3	7721	6074.608432437918	0
3	7775	6113.824800297862	1
3	7781	6115.674124490122	0
3	7835	6192.091823768202	1
3	7836	6192.651343929582	0
3	7925	6284.861515090731	1
3	7926	6285.735137202528	0
3	7955	6320.715993565627	1
3	7961	6322.124162532639	0
3	8092	6440.190396671211	1
3	8096	6441.685129635239	0
3	8195	6526.628692644713	1
3	8196	6527.381413508494	0
3	8295	6609.108149174715	1
3	8296	6609.252049522656	0
3	8300	6609.693271146894	1
3	8301	6610.069347856189	0
3	8305	6610.842798506862	1
3	8306	6611.199522998459	0
[...]
6	31020	24121.162347166363	2.328128754446
6	31027	24125.614070973707	1.16903720377
6	31030	24126.576918878289	1.713090550155
6	31047	24132.332813438598	1.945910427684
6	31050	24133.28596659071	1.934940646799
6	31070	24186.248247770259	0.826346366666
6	31102	24202.857319789098	2.007962965377
6	31125	24223.544134301615	1.708351523301
6	31135	24226.135211918758	1.159999674982
6	31150	24240.703173855834	0.855488772504
6	31165	24260.244795011627	0.978823782504
6	31172	24270.845938615964	1.123753971327
6	31192	24279.146231124143	5.261785559033
6	31225	24293.832712196538	4.114239080902
6	31237	24306.426324445425	4.113966937003
6	31240	24307.593769546176	1.5628465967
6	31245	24320.323590129582	0.995696968399
6	31255	24326.590148467301	1.020463128667
6	31270	24333.982186923484	5.66587640228
6	31275	24337.003787574009	0.859592955746
6	31320	24380.434787406314	0.858048252761
6	31330	24395.410775057271	0.802065364271
6	31335	24397.675312830427	0.980438978318
6	31342	24401.232469661764	1.108594207838
6	31345	24402.10687725269	1.441733558367
6	31357	24422.273768014404	0.934745116066
6	31435	24472.249615323864	1.570206829488
6	31447	24488.35594013471	0.893137671333
6	31455	24494.771443149075	1.176671157591
6	31495	24524.979294519985	0.971224033367
6	31507	24530.752415432464	0.878809583467
6	31555	24585.805626809919	4.160527661518
6	31582	24593.408193200684	1.446358599986
6	31615	24619.874343875289	1.054255297873
6	31652	24629.965824094434	2.93821568191
6	31724	24652.663108473683	2.706920532785
6	31732	24654.951855403597	3.684942030114
6	31735	24656.027787860802	10.073579132514
6	31770	24673.290861549896	2.134992927613
6	31775	24675.633261877736	0.925264347158
6	31782	24681.710295443035	0.919460469205
6	31790	24685.425716411614	1.074738089368
6	31810	24702.983831595726	3.066259621729
6	31852	24717.272604022647	0.815891536232
6	31872	24727.435746971083	2.903158305586
6	31900	24757.419433078444	1.089391835034
6	31917	24777.18727420433	5.637821326241
6	31930	24783.091056744411	0.916527527757
6	31940	24786.335808990045	2.618788063707
6	31975	24799.548761275096	0.831331730913
6	31985	24809.163945034699	0.807387634739
6	31995	24821.079469553671	1.005413564015
6	32000	24826.302415409276	1.026171087567
6	32010	24844.562973482145	1.5864857794
6	32025	24857.535829339007	1.060019928124
6	32047	24862.52828141174	1.146500218939
6	32050	24863.406722283575	1.982349661145
6	32057	24865.076373254527	0.871903142054
6	32095	24913.390686471168	2.912400200682
6	32115	24926.363606446091	0.95530530801
6	32122	24934.528237525286	0.835734840203
6	32127	24935.67368757539	1.405721799548
6	32130	24936.775288435822	1.417814076749
6	32137	24943.951335590043	0.954767246172
6	32145	24946.47029292292	3.286354370805
6	32177	24971.69947680418	4.313461237599
6	32180	24972.511921400824	1.267150772026
6	32185	24976.682965256101	1.010377337411
6	32205	24988.859677514721	4.443249499631
6	32235	25020.567171868565	0.852867244929
6	32255	25034.824737393702	6.197528735317
6	32280	25049.20812137542	1.883886564781
6	32305	25068.075552189855	1.007569688931
6	32315	25078.053539101406	0.830290255416
6	32325	25085.764869613083	0.957225493155
6	32345	25104.052639849547	1.504402243341
6	32360	25116.917787291478	0.994228288252
6	32387	25129.31687144208	1.637844927562
6	32460	25180.774023389357	1.045469577008
6	32465	25181.732914368828	0.888431742042
6	32470	25185.719892311408	1.004773791973
6	32475	25187.460014836757	0.937137393095
6	32487	25190.211558865488	0.957591897502
6	32495	25193.530828551842	5.115594682259
6	32514	25196.995066084456	0.910564192105
6	32540	25218.314648672091	0.810307892039
6	32545	25221.824714268312	1.168310432881
6	32552	25224.349562364572	0.952404176537
6	32557	25225.472389986494	2.063477011808
6	32572	25228.264836253819	1.66100142985
6	32595	25245.806723904345	1.888514789333
6	32600	25247.426121248192	0.993956376147
6	32605	25252.657852941364	0.831390704028
6	32610	25254.157655061198	1.106352081709
6	32642	25272.72993238862	1.13366877865
6	32655	25281.366791365107	0.997250988521
6	32660	25288.100093648818	0.920512686018
6	32675	25312.629557791019	1.045208726916
6	32680	25314.775073904902	0.851636089664
6	32695	25332.972256817212	0.929193555471
6	32705	25364.384355502824	1.027268969361
6	32710	25374.71836422665	1.006923757959
6	32720	25379.167848365911	2.534320982745
6	32725	25380.61287366757	1.01293599261
6	32745	25391.953932140667	3.935311326049
6	32785	25418.310197779159	0.835242203157
6	32822	25438.535123009036	0.843245360628
6	32854	25449.990058354466	0.970300414041
6	32865	25464.665052134293	1.128495606966
6	32882	25501.268644130042	4.794582522438
6	32885	25502.286339175699	1.674902063688
6	32902	25519.629287319684	2.446902482218
6	32915	25525.100840637161	0.862729690876
6	32932	25530.924037312621	2.248066755691
6	32964	25550.714678695921	0.900923933461
6	32987	25561.723714725806	1.282546286441
6	32992	25562.900082178733	3.348235065955
6	33017	25576.318398729282	1.01766121164
6	33025	25590.599172579862	1.145655568317
6	33040	25614.358127406476	1.007921337709
6	33050	25618.269319424862	2.000220846511
6	33055	25622.7526824381	1.167017619684
6	33060	25630.631504553054	1.146485256776
6	33067	25641.597140756109	1.014874138776
6	33075	25646.745882843247	1.002331371419
6	33084	25649.090910463202	0.893059648387
6	33095	25653.141350130854	4.798608872479
6	33120	25666.697167840305	5.058709535425
6	33155	25687.598684545734	6.577534218394
6	33160	25688.784509089198	1.05300923204
6	33182	25704.587919225107	0.968643191922
6	33185	25705.748037476587	8.733043022361
6	33190	25708.273406700149	0.902289406862
6	33195	25713.920890373584	0.835784733295
6	33215	25726.988907059454	2.451589056462
6	33235	25732.710724493238	5.661813491728
6	33240	25735.325691201236	1.163824725151
6	33247	25756.339744433129	1.018183963373
6	33250	25757.294442245198	1.894650503156
6	33270	25780.114346535925	0.847203284968
6	33275	25800.740778099777	1.189552273229
6	33290	25809.847321891376	1.01326109143
6	33320	25825.726605358672	6.011847573239
6	33340	25831.583567568984	3.039913892839
6	33352	25843.021028564035	1.187458663341
6	33384	25857.124139958266	3.996277154796
6	33400	25877.398886680401	0.967881554738
6	33405	25881.267207736315	1.069932972919
6	33410	25889.780209776989	1.184215909708
6	33432	25895.989245466425	1.941925109698
6	33435	25896.86219184371	1.360801863519
6	33450	25915.815076505959	0.96727155624
6	33475	25951.346051952292	0.951791868359
6	33496	25968.949610353531	3.332099107466
6	33510	25973.071426597413	2.836255144943
6	33515	25976.833115672732	1.172501850035
6	33532	25986.154775045585	1.14377308134
6	33535	25987.053282771964	1.85277579192
6	33565	26000.774541738906	1.038279115709
6	33570	26005.302840429731	0.90832535103
6	33595	26030.846777510308	1.176195505261
6	33605	26040.538287411807	4.3518301661
6	33610	26042.658234637517	0.98915179912
6	33630	26076.476952252345	1.082915162574
6	33635	26079.918364265136	0.915991709381
6	33645	26088.218897140088	1.111197868176
6	33665	26103.66684625216	3.605348545632
6	33670	26105.217446302705	0.857159331162
6	33685	26125.771896154406	0.9648433025
6	33705	26136.419035645962	1.171272834484
6	33735	26149.996208477988	1.008848534804
6	33755	26175.121534197738	1.02862712983
6	33780	26185.589554783649	6.033208490269
6	33785	26189.281240529228	1.050446146447
6	33795	26204.891923738578	1.128955131676
6	33805	26215.280808774221	3.517579591195
6	33812	26216.399652022476	1.015513807721
6	33815	26217.403867861795	1.573645683609
6	33832	26221.526764333317	1.618552380026
6	33835	26222.5988122395	2.072617542826
6	33842	26223.779821439807	0.918594410084
6	33857	26227.079650828216	2.32291059486
6	33860	26228.271276085704	2.903024542245
6	33882	26236.765028472103	1.042048606649
6	33907	26258.774277133755	1.177165581938
6	33937	26280.512237159919	2.977597653682
6	33975	26334.065069564683	0.823961036728
6	33995	26357.174486631938	0.996329346579
6	34000	26363.756661337139	1.011778092757
6	34010	26376.022612326275	2.334255604106
6	34045	26421.999239889223	0.914036208112
6	34050	26423.641411966411	0.878113456257
6	34055	26432.857726681351	0.870587501116
6	34060	26439.665769693682	1.124321714323
6	34135	26481.375918205988	2.372695740114
6	34140	26482.76345667938	3.812001336071
6	34145	26492.082605671221	0.933496120665
6	34165	26519.083530338002	0.923923344724
6	34185	26542.846623885181	1.110981220286
6	34200	26562.525971026144	1.668253391331
6	34230	26580.688533582333	1.949926681181
6	34287	26598.226382234309	1.451947760657
6	34305	26603.051012364931	1.031523040216
6	34340	26624.547437689613	1.145276219213
6	34355	26635.658466023243	1.892767323155
6	34407	26668.457228194867	0.931163822208
6	34425	26682.835802463534	3.519025333385
6	34437	26689.286127988024	6.320269453972
6	34462	26695.150493191781	3.940973405261
6	34484	26709.834400429876	0.99795730859
6	34490	26711.992541533449	2.399478703242
6	34510	26729.695091449123	3.735422056625
6	34525	26733.903132014396	3.152708597387
6	34530	26736.304796477847	0.972157741617
6	34535	26740.848731863405	0.805854148325
6	34544	26752.455367876165	0.808699338045
6	34560	26757.98479493264	5.586475839173
6	34565	26770.765115262003	0.957570344489
6	34615	26821.641874735014	0.926776051614
6	34622	26830.573640361787	1.106301640999
6	34647	26847.663765240474	1.01924547283
6	34670	26865.021667233808	2.337155659101
6	34710	26899.473629428769	1.129226257466
6	34715	26904.528772456554	1.124929623213
6	34730	26917.575269967749	1.346129108522
6	34745	26960.202242207472	1.064105255529
6	34760	26969.459301736328	1.764349527219
6	34765	26971.248903274938	0.846032709163
6	34770	26983.956467805454	0.809871604666
6	34790	26992.43026693966	3.290113816503
6	34840	27048.089422687312	1.106389164273
6	34852	27057.128729746957	3.095546068793
6	34925	27113.688195822882	1.271980015572
6	34942	27129.726585374223	1.199935909361
6	34980	27143.018990753798	3.495354684417
6	34985	27144.308698591407	1.074816087354
6	35007	27155.540255823245	1.494853865975
6	35030	27170.397725961313	2.051575060377
6	35035	27171.648922469063	3.379786955341
6	35045	27184.252237097556	0.891206129019
6	35055	27195.045530593598	2.010135752341
6	35060	27196.667437576699	1.163730392326
6	35065	27199.726948062265	0.880133866426
6	35070	27201.50416520978	1.140321647748
6	35100	27225.704885665847	1.049380892253
6	35130	27250.854357558025	1.053929626383
6	35155	27289.88271074731	4.323206596421
6	35180	27321.715811224591	0.967826088704
6	35202	27343.453052911671	3.493691006767
6	35210	27345.315274400493	1.447142189706
6	35215	27347.496749507228	5.92619935052
6	35220	27352.446007971056	0.827493179962
6	35225	27364.976108945195	0.816950981505
6	35230	27386.758899767148	1.097034902684
6	35237	27388.005046714655	1.106843871903
6	35270	27399.00296502216	1.564409628204
6	35275	27402.180956369456	10.911883864963
6	35280	27403.202229658908	0.965715878457
6	35290	27408.496776287035	2.415135113094
6	35295	27413.185331468406	1.058061060589
6	35307	27418.980351271937	1.488292595585
6	35325	27439.488451902511	2.163411607932
6	35330	27443.891292557785	1.004718055669
6	35340	27448.769142784909	1.528563565118
6	35345	27452.85497364988	0.928151573613
6	35355	27461.18815959864	1.117088723835
6	35370	27480.81284728386	1.062823372614
6	35385	27493.612346122071	1.147491586953
6	35390	27496.510005363228	5.004701033517
6	35422	27524.877363607303	1.04998723818
6	35432	27527.004199386683	2.025486978768
6	35435	27528.087052167316	1.800292633083
6	35445	27542.021693181406	0.975574501511
6	35450	27545.663284970382	1.119734114874
6	35462	27549.690298704025	2.006940348289
6	35465	27550.496514425394	2.891648747585
6	35480	27572.00229128796	0.818858590722
6	35500	27588.139491993064	6.915595992056
6	35505	27591.137797350275	0.812664434966
6	35510	27592.740950449735	0.945644409955
6	35515	27602.077793022376	1.149356746301
6	35525	27606.23136336402	0.860168780573
6	35537	27634.954538315791	0.94580231132
6	35550	27643.665781007673	0.969149286021
6	35577	27672.62395533597	1.092508964427
6	35580	27673.548592059816	1.140982034002
6	35590	27676.091986031605	0.895671740081
6	35595	27683.135568595889	1.144690429233
6	35635	27711.161468174117	1.157619886855
6	35667	27721.295978637526	2.827640938674
6	35685	27726.296261513468	7.16330442573
6	35692	27728.652517503293	1.190003243554
6	35705	27737.196919709001	1.18305413467
6	35715	27743.760286151307	0.943696330301
6	35730	27765.440343328753	0.968858895451
6	35765	27804.757405865048	2.933056564257
6	35775	27815.461342580579	1.043823258858
6	35785	27825.906348589533	0.997066937387
6	35800	27830.168485239292	3.878289151934
6	35815	27862.91179172885	1.041390474048
6	35825	27870.645766233611	1.032429061458
6	35837	27875.4883597964	0.890959530044
6	35860	27905.612459196964	0.860541885346
6	35870	27914.097776173175	1.035218171589
6	35880	27922.593465991277	0.805838895123
6	35885	27926.236657524478	0.862075074576
6	35895	27948.900837990458	0.859740036167
6	35940	27997.062820633207	1.099023643229
6	35970	28036.350666505084	1.090029637981
6	35987	28052.887631995156	1.187155283522
6	36002	28058.34881644378	2.107923807087
6	36050	28073.168246621265	0.895316628926
6	36055	28076.166562172539	1.037223630026
6	36084	28086.995152447711	1.963511548876
6	36087	28088.093715498748	2.011295056788
6	36105	28091.790426438756	6.874349209317
6	36110	28106.250929641519	1.147994930577
6	36115	28108.851928623698	0.977001635917
6	36135	28122.372845080682	3.708287102107
6	36140	28128.641850362228	1.165426179767
6	36150	28147.657723476892	0.990345280152
6	36160	28149.867431759208	1.574887894788
6	36195	28181.98066131724	0.93802705016
6	36220	28192.84891048737	2.304530518533
6	36225	28197.237094151656	1.041302198917
6	36255	28215.58709981234	1.052829328924
6	36260	28216.975255183499	1.139618990477
6	36267	28221.857940871692	1.022494181897
6	36272	28223.023892601351	1.24653383192
6	36284	28225.162129104095	2.094948718323
6	36290	28227.303411680324	3.933786895372
6	36295	28228.813810036676	1.187132413033
6	36315	28236.788633957665	1.148160824552
6	36320	28247.067640931277	0.963539786637
6	36345	28254.876033077745	3.165974391533
6	36350	28264.70531577089	1.068298853282
6	36365	28285.649641247422	3.139608163529
6	36375	28297.358112059732	1.160858993046
6	36400	28309.677986998471	2.010837766667
6	36415	28316.413513147545	4.135078637146
6	36420	28319.064823493135	1.199528578855
6	36425	28332.129609398279	1.1406402261
6	36445	28343.738283111119	0.898013673816
6	36497	28431.587411131006	5.039721458765
6	36505	28437.518902636502	0.908291029837
6	36525	28456.391707978759	0.878357614018
6	36530	28463.070367134706	0.982342562079
6	36545	28483.293798163725	0.912736995239
6	36560	28489.246148560534	1.514672118664
6	36567	28491.441641100393	1.119217822328
6	36570	28492.556493549598	1.620598458022
6	36575	28498.670360307081	1.19327814877
6	36580	28509.462634108488	0.828663176764
6	36585	28511.507876588813	1.161852969509
6	36590	28515.932047732035	0.938894002233
6	36620	28560.986287949917	4.933605775381
6	36625	28563.865322469887	0.917999481503
6	36635	28576.623283234087	0.804971535783
6	36640	28582.402227938904	1.064647088386
6	36645	28591.656837498006	1.120475140121
6	36662	28604.32384253681	1.093710956071
6	36665	28605.192238740868	1.256443006133
6	36670	28611.464272913685	0.891752224229
6	36675	28615.382212132612	0.97952333875
6	36680	28619.759442006113	1.14839048814
6	36695	28625.515458336357	3.696441975247
6	36705	28634.194592328405	1.09114544848
6	36720	28651.626509906368	1.119248563424
6	36725	28657.727938901215	1.169794504158
6	36740	28672.41331671949	3.361497780973
6	36759	28676.138815998359	2.213926172575
6	36765	28678.081854930593	2.520706342645
6	36775	28696.132334467982	1.137104379013
6	36785	28702.318436647117	1.408065131276
6	36810	28716.638425777922	1.05624123076
6	36841	28729.421446618031	3.022197992565
6	36852	28732.136675088167	3.584666446741
6	36855	28733.054477861583	1.727783816292
6	36872	28742.416129100757	3.525938832466
6	36880	28746.614432604385	1.174772147276
6	36889	28748.96609792832	1.13748706514
6	36895	28750.60819901779	1.729256576609
6	36900	28760.389611063261	0.872179168276
6	36917	28771.709024663506	0.939138079621
6	36940	28779.856909765357	10.602578921663
6	36955	28807.81103925031	0.843332746718
6	36995	28844.785732489571	0.926153564919
6	37040	28889.81478512639	1.733829028701
6	37047	28895.570204733848	0.820250230003
6	37055	28898.400908379616	1.11068598805
6	37102	28954.222643223131	1.407721863896
6	37105	28955.371236265363	1.163104362919
6	37125	28972.296202245064	2.377765696691
6	37135	28980.524364344201	1.01253478555
6	37140	28981.580310494439	0.851638528518
6	37166	29002.831153239516	2.999195905983
6	37185	29020.760729258853	0.851980242971
6	37200	29039.794023819867	1.027606706135
6	37215	29045.252675393358	1.157621890213
6	37255	29059.944665410596	11.104901633481
6	37260	29066.493814482087	1.113463203516
6	37270	29069.265395696772	2.226029235022
6	37280	29092.801918215302	1.131449016742
6	37290	29106.916010514248	1.861676608643
6	37295	29115.615512367857	0.944447731413
6	37300	29123.739809188847	0.835756560881
6	37307	29128.892693862151	1.000251087174
6	37325	29138.852464462229	5.868373036743
6	37342	29149.115655532888	1.825259549358
6	37345	29150.100677701588	1.834165882371
6	37350	29154.101584620858	0.928766447864
6	37367	29160.617300704559	1.370669406433
6	37402	29179.639802006192	0.84233176522
6	37405	29180.633687643732	1.782950344275
6	37410	29184.839468002248	0.813743507676
6	37432	29199.072727516927	1.283917090519
6	37445	29202.809773634053	3.437879646531
6	37467	29223.752217757864	0.835819791164
6	37492	29242.896310782278	0.987928811278
6	37517	29259.125951696701	0.847173806466
6	37540	29296.340200534745	1.046914348658
6	37545	29298.320733434324	1.172895231936
6	37577	29304.491483522668	1.532480968981
6	37620	29330.954909627729	1.549046048419
6	37645	29380.707897638364	0.892667374015
6	37670	29393.578965983853	0.942444970924
6	37682	29405.598672751004	3.404520760861
6	37695	29409.802929705145	0.881682998092
6	37700	29412.188826659433	4.155003786062
6	37717	29418.985879875993	1.133225180488
6	37735	29424.147234341868	4.084793164931
6	37785	29468.737231151923	0.983162693586
6	37812	29482.267375882846	0.848088944145
6	37830	29504.835218714433	2.549281405694
6	37877	29547.884378341956	1.116238465719
6	37900	29554.847862560268	2.125270081797
6	37905	29556.769282430509	1.134739512019
6	37915	29562.252678660579	1.10663862247
6	37922	29564.397668672571	1.149182732124
6	37935	29578.844212692402	1.08087642258
6	37945	29587.973681334414	2.257987184931
6	37960	29604.308664341665	1.039882786758
6	37965	29614.318138364171	1.090428730939
6	37975	29628.565588039947	0.868005595356
6	37985	29638.24708478591	2.527000242545
6	37995	29642.37294098158	3.403496769831
6	38020	29666.680787861615	1.113788948208
6	38025	29668.259077794555	0.881880958378
6	38045	29692.726194375842	0.997923736367
6	38052	29696.215708141132	0.800549588632
6	38055	29697.291182977064	1.10625457141
6	38065	29702.302146941959	1.094219136704
6	38070	29705.953641735839	1.087741918676
6	38100	29733.310326146383	3.630801465172
6	38135	29748.31387438352	1.009262529761
6	38160	29760.134303352449	2.932410109296
6	38165	29764.039538798083	1.155590634886
6	38170	29770.487167374539	0.884724294394
6	38180	29788.276262129755	1.184567011148
6	38190	29822.607641170439	1.092792694177
6	38207	29829.176480669874	1.082092178706
6	38220	29832.789957928589	0.927093422227
6	38240	29850.978739013436	0.991893901769
6	38254	29855.526617479726	1.182129096612
6	38260	29857.714552665252	5.259620129873
6	38274	29859.800272558431	1.592674079894
6	38280	29861.662219279433	7.057389057018
6	38287	29869.418149351728	1.076286877599
6	38300	29872.587588962474	3.121775846512
6	38315	29882.327642967362	1.094716600142
6	38330	29910.985891004163	1.014301950205
6	38335	29914.599202083255	1.132315622922
6	38340	29920.33505161682	1.189106282499
6	38354	29925.416698244984	0.944393187668
6	38365	29928.397259804725	3.893648676837
6	38385	29936.900412205858	3.743287316848
6	38415	29964.286728045293	1.181638804357
6	38425	29977.742385631318	0.958660296351

