version 2
run Second_exit_9-11-20191023-00:20:15-5258
attr configname Second_exit_9
attr datetime 20191023-00:20:15
attr experiment Second_exit_9
attr inifile omnetpp.ini
attr iterationvars ""
attr iterationvarsf ""
attr measurement ""
attr network ResponseTimeNetwork
attr processid 5258
attr repetition 11
attr replication #11
attr resultdir results
attr runnumber 11
attr seedset 11
param **.Source.interArrivalTime exponential(5s)
param **.jobPriority bernoulli(0.6)
param **.PS.serviceTimeU1 "uniform(0.8s, 1.2s)"
param **.PS.serviceTimeU2 "uniform(1.8s, 2.2s)"
param **.SS1.serviceTime exponential(1s)
param **.SS2.serviceTime exponential(1.2s)
param **.PS.exitProbability bernoulli(0.9)

vector 0 ResponseTimeNetwork.SS1 queueLength:vector ETV
attr interpolationmode sample-hold
attr title "queue length, vector"
vector 1 ResponseTimeNetwork.SS2 queueLength:vector ETV
attr interpolationmode sample-hold
attr title "queue length, vector"
vector 2 ResponseTimeNetwork.QueueU1 queueLength:vector ETV
attr interpolationmode sample-hold
attr title "queue length, vector"
vector 3 ResponseTimeNetwork.QueueU2 queueLength:vector ETV
attr interpolationmode sample-hold
attr title "queue length, vector"
vector 4 ResponseTimeNetwork.sink lifeTimeU1:vector ETV
attr interpolationmode none
attr title "lifetime of arrived jobs U1, vector"
attr unit s
vector 5 ResponseTimeNetwork.sink lifeTime:vector ETV
attr interpolationmode none
attr title "lifetime of arrived jobs, vector"
attr unit s
vector 6 ResponseTimeNetwork.sink lifeTimeU2:vector ETV
attr interpolationmode none
attr title "lifetime of arrived jobs U2, vector"
attr unit s
2	0	0	0
2	5	1.347658214593	1
2	6	2.059787568088	0
2	15	4.667308866868	1
2	16	5.263591596222	0
2	25	7.031361173505	1
2	28	8.074273095062	0
2	32	8.189387773607	1
2	33	9.081432507062	0
2	40	10.620359379081	1
2	41	11.090328852801	0
2	65	18.803697550695	1
2	66	18.922405414118	0
2	80	21.799140719829	1
2	83	22.442840931936	0
2	90	23.972124787665	1
2	91	24.395430438126	0
2	95	24.943088620146	1
2	98	25.482570109142	0
2	105	26.404034337815	1
2	106	27.312777382879	0
2	115	29.381973806494	1
2	116	29.874970950375	0
2	125	31.4272725926	1
2	127	31.499867802372	2
2	128	31.852222512847	1
2	132	32.223594118176	2
2	134	32.236955588534	3
2	139	32.666999605017	2
2	143	33.79874722874	3
2	144	33.829159730392	2
2	148	34.302813668976	3
2	149	34.946208283769	2
2	152	35.766480440272	1
2	156	35.903368888726	2
2	158	36.088274540442	3
2	159	36.864042788742	2
2	163	37.437171085236	3
2	166	38.054897435287	2
2	169	38.8631906284	1
2	172	39.97140985336	0
2	185	43.154660426463	1
2	187	43.666033580904	2
2	188	44.066432499046	1
2	192	44.07308066094	2
2	194	44.941021064181	3
2	195	45.015199033915	2
2	198	46.076244929991	1
2	206	46.387027647799	2
2	207	47.200631560385	1
2	211	47.414850289644	2
2	213	48.026254690153	3
2	214	48.383609182946	2
2	218	48.432531760303	3
2	219	49.478910230565	2
2	223	49.73739281694	3
2	224	50.388819759338	2
2	228	50.489926425594	3
2	229	51.433472555688	2
2	233	52.287195630676	3
2	234	52.379740623197	2
2	238	52.457704320253	3
2	240	52.756468033712	4
2	243	53.223950017428	3
2	247	53.717089969022	4
2	248	54.273083620889	3
2	251	55.292677618654	2
2	255	55.619970813932	3
2	257	56.07823185327	4
2	258	56.250954940447	3
2	262	56.436115091157	4
2	263	57.420568193493	3
2	266	58.553783157093	2
2	270	58.769242894614	3
2	272	58.793758291326	4
2	273	59.647468354364	3
2	278	60.706690931504	2
2	283	61.583898164609	1
2	287	61.624302066951	2
2	289	61.661925127101	3
2	291	62.23810596511	4
2	292	62.517531322313	3
2	296	62.565486583365	4
2	298	62.901533778706	5
2	299	63.360415809413	4
2	302	64.390639226043	3
2	305	65.31791410567	2
2	309	65.328864883595	3
2	310	66.205115455387	2
2	314	66.620360377742	3
2	316	66.765488844381	4
2	318	66.9801325185	5
2	319	67.370443972198	4
2	322	68.235731682086	3
2	326	68.629314121771	4
2	328	68.71890497648	5
2	330	68.898650879071	6
2	331	69.176282191367	5
2	335	69.331274977167	6
2	336	70.260002599933	5
2	339	71.233176998419	4
2	342	72.24259138908	3
2	345	73.164639768654	2
2	349	73.908441271099	3
2	350	74.334333603827	2
2	354	74.894612276236	3
2	356	75.25732394374	4
2	357	75.464594495574	3
2	361	76.020237107264	4
2	362	76.62904316075	3
2	368	77.539519678162	4
2	369	77.612651796544	3
2	373	78.271423781708	4
2	375	78.462311695849	5
2	376	78.781631893383	4
2	380	78.915126567574	5
2	382	79.749344648408	6
2	383	79.779197094122	5
2	386	80.801972295435	4
2	390	80.825375004916	5
2	392	81.62530475905	6
2	393	81.925256067512	5
2	396	82.853771856704	4
2	399	84.018561657888	3
2	402	84.990348085758	2
2	406	85.471775479797	3
2	407	86.17143719671	2
2	411	86.284880541068	3
2	412	87.118008080029	2
2	416	87.644979189937	3
2	418	88.02138924911	4
2	419	88.038080468026	3
2	423	88.134621599495	4
2	424	89.003003394042	3
2	428	89.495936728285	4
2	429	90.071780557369	3
2	433	90.708342581839	4
2	434	91.131056725511	3
2	437	92.146596841884	2
2	440	93.037811590729	1
2	444	93.398778149794	2
2	446	93.758204251748	3
2	447	94.122996759971	2
2	451	94.495456919151	3
2	453	94.792623468068	4
2	455	94.939366916702	5
2	456	95.125186027584	4
2	460	95.281745637448	5
2	461	96.293108408244	4
2	464	97.247216419222	3
2	467	98.061690491995	2
2	470	99.005684487241	1
2	474	99.077791208256	2
2	475	99.824032568465	1
2	479	100.631305842708	2
2	480	100.638172334059	1
2	484	101.161525643511	2
2	485	101.697390923089	1
2	489	101.75177620385	2
2	490	102.795289666297	1
2	493	103.877643369975	0
2	497	103.952720519005	1
2	499	103.965299363174	2
2	500	104.699677305667	1
2	504	104.731773327922	2
2	506	105.585648957326	3
2	507	105.895309770664	2
2	511	105.95094437733	3
2	512	106.781986346559	2
2	517	107.97373851733	1
2	520	108.965041172502	0
2	524	109.561698149016	1
2	526	109.769087494397	2
2	527	110.131242375725	1
2	530	110.952514307384	0
2	537	112.19652067032	1
2	539	112.867965193285	2
2	540	112.923120341726	1
2	543	113.823466937054	0
2	547	114.012283403028	1
2	549	114.295970996934	2
2	550	114.639838831402	1
2	554	114.694244192891	2
2	556	114.763968145411	3
2	557	115.612187418244	2
2	562	116.793057610649	1
2	566	116.859320856355	2
2	568	117.133268354799	3
2	569	117.875516663953	2
2	572	118.951804063185	1
2	576	119.286660727158	2
2	577	119.828092708713	1
2	581	120.021560332155	2
2	582	120.893911723415	1
2	585	121.874798549614	0
2	592	123.672814117488	1
2	593	123.859360020416	0
2	597	123.946603052946	1
2	599	124.232180256839	2
2	600	125.027567268437	1
2	605	125.908699261205	0
2	609	126.421358335966	1
2	610	126.753946347436	0
2	614	126.80756868458	1
2	616	127.503790356606	2
2	617	127.673429499189	1
2	621	128.333396258238	2
2	622	128.642493489566	1
2	626	128.940630317813	2
2	628	129.113334466248	3
2	629	129.672355867824	2
2	633	129.738422437588	3
2	634	130.699678201409	2
2	638	131.625328970103	3
2	639	131.709414531937	2
2	643	131.936716131184	3
2	647	132.593446157962	4
2	648	132.870473504806	3
2	652	133.304294247539	4
2	653	133.932206589909	3
2	658	134.820957426814	2
2	664	135.628897092521	3
2	665	135.712830916041	2
2	669	135.92022341558	3
2	670	136.680165478022	2
2	673	137.537454542139	1
2	676	138.5868531838	0
2	685	140.053015085919	1
2	686	140.428107449779	0
2	690	141.398597733749	1
2	691	141.421051887138	0
2	695	141.791131199057	1
2	697	141.894707281838	2
2	699	141.999097646801	3
2	702	142.284751201509	2
2	706	142.684655072715	3
2	707	143.29443510612	2
2	711	143.320515044989	3
2	712	144.118322996697	2
2	716	144.65499223822	3
2	717	144.985075569707	2
2	720	145.964117480996	1
2	724	146.139768841427	2
2	725	146.773653403665	1
2	729	147.029030173618	2
2	730	147.953817908741	1
2	736	148.346123395143	2
2	737	148.853263155274	1
2	741	149.768625843665	2
2	742	149.826859980911	1
2	746	150.711526163397	2
2	747	150.873662225898	1
2	751	151.069145948309	2
2	752	151.910948568858	1
2	755	153.057950714599	0
2	759	153.255007096762	1
2	761	153.543180242053	2
2	762	153.973103419874	1
2	765	155.091771205232	0
2	769	155.643218975901	1
2	771	155.977324241876	2
2	773	156.09106571232	3
2	774	156.273104599767	2
2	778	156.459967418315	3
2	779	157.214745650717	2
2	783	157.607500678038	3
2	784	158.400733478737	2
2	788	158.966033472196	3
2	789	159.419047611297	2
2	793	159.437588330586	3
2	794	160.416638554723	2
2	797	161.41750646848	1
2	801	162.268901033934	2
2	802	162.529063760394	1
2	806	163.022340335972	2
2	807	163.453398860244	1
2	810	164.496485199405	0
2	820	167.063503487117	1
2	821	167.661865153441	0
2	835	170.125560483886	1
2	837	170.236708897148	2
2	838	170.833938893488	1
2	843	171.705856637562	0
2	857	173.824889964716	1
2	860	174.699318312759	0
2	880	178.904307443158	1
2	884	179.138891563316	2
2	886	179.214228712059	3
2	888	179.291279296643	4
2	889	179.991202516293	3
2	892	181.127347069045	2
2	896	181.444663208968	3
2	897	182.276367608921	2
2	901	182.30997032717	3
2	906	183.308153614679	2
2	910	184.367002418513	3
2	911	184.393568751214	2
2	915	184.714228017231	3
2	917	184.848197636924	4
2	918	185.243221348336	3
2	922	185.271596456113	4
2	923	186.11071424959	3
2	927	186.917078976256	4
2	928	187.022656963763	3
2	932	187.298401179059	4
2	933	188.008385594652	3
2	936	188.856785780375	2
2	939	189.871351082248	1
2	942	190.707721018044	0
2	946	191.121497231052	1
2	948	191.426917604748	2
2	949	191.534020781981	1
2	953	192.531145153181	2
2	954	192.650666572059	1
2	958	193.576456581687	2
2	959	193.607461663148	1
2	963	194.103097760163	2
2	965	194.182185742923	3
2	966	194.735324213746	2
2	969	195.634664316288	1
2	973	196.148500615054	2
2	974	196.767988282255	1
2	977	197.674263668991	0
2	981	198.06047430605	1
2	982	198.699565110914	0
2	986	199.520992881871	1
2	987	199.680316419899	0
2	991	200.350696236087	1
2	992	200.714178322814	0
2	996	201.38066829349	1
2	998	201.50467066601	2
2	999	201.69336487865	1
2	1002	202.735175774153	0
2	1006	202.742479390684	1
2	1007	203.541462195571	0
2	1011	203.678548787316	1
2	1012	204.653020902071	0
2	1019	205.815658840174	1
2	1021	206.249687459268	2
2	1022	206.827105929237	1
2	1026	207.221434682917	2
2	1028	207.565817566899	3
2	1029	207.813353393227	2
2	1034	208.904072603956	1
2	1037	209.759628936928	0
2	1049	211.946306737578	1
2	1053	212.195993786824	2
2	1055	212.396082653462	3
2	1056	212.704922689963	2
2	1060	213.385846384738	3
2	1061	213.696409045998	2
2	1065	213.804697395484	3
2	1067	214.8643325211	4
2	1068	214.878960621543	3
2	1072	215.408418707975	4
2	1075	215.893258138373	3
2	1078	216.742530061211	2
2	1082	217.024264060012	3
2	1083	217.654320908989	2
2	1087	217.728490948688	3
2	1089	218.737411163101	4
2	1090	218.756144113931	3
2	1094	219.378549237258	4
2	1095	219.84477370642	3
2	1099	219.850917189379	4
2	1101	219.930930071756	5
2	1102	220.661102936695	4
2	1106	220.973537561391	5
2	1107	221.700765826459	4
2	1110	222.685040281898	3
2	1114	222.810011196308	4
2	1115	223.732704631797	3
2	1118	224.707798298168	2
2	1122	225.46696274453	3
2	1123	225.894784281309	2
2	1128	226.807516263332	1
2	1131	227.991753728688	0
2	1135	228.755266873999	1
2	1136	229.072018290404	0
2	1140	229.999730031689	1
2	1142	230.192075343107	2
2	1143	230.23209769763	1
2	1147	230.530685197482	2
2	1149	230.78741056011	3
2	1150	231.192372079379	2
2	1154	231.493540285311	3
2	1156	232.165283852354	4
2	1157	232.230945122334	3
2	1161	232.743973886954	4
2	1162	233.296373171265	3
2	1165	234.277133655268	2
2	1169	234.284504309413	3
2	1171	234.629450227635	4
2	1172	235.453000168781	3
2	1176	235.532493878911	4
2	1178	235.794672164799	5
2	1180	235.856850219652	6
2	1181	236.526336980424	5
2	1185	237.040622177415	6
2	1186	237.546930103003	5
2	1190	237.705908986619	6
2	1193	238.407871843408	5
2	1197	239.102337924792	6
2	1198	239.370712473056	5
2	1202	240.222807980898	6
2	1203	240.443425745702	5
2	1207	241.427474700834	6
2	1208	241.600036213453	5
2	1212	241.72238390959	6
2	1213	242.722289541177	5
2	1217	242.753136207128	6
2	1218	243.90826762719	5
2	1222	244.058150543296	6
2	1224	244.876675538981	7
2	1225	245.019358170963	6
2	1228	245.8392555085	5
2	1231	246.676321312132	4
2	1235	247.346888051442	5
2	1236	247.726626647821	4
2	1239	248.759453792403	3
2	1242	249.826916857901	2
2	1246	250.580442166936	3
2	1247	250.713783951475	2
2	1251	250.876750712	3
2	1252	251.528544214367	2
2	1256	251.776365878769	3
2	1257	252.686075113433	2
2	1260	253.539852400775	1
2	1264	254.559128279574	2
2	1265	254.670209271553	1
2	1271	254.922856845211	2
2	1272	255.534103866107	1
2	1276	255.958776442653	2
2	1277	256.491275462228	1
2	1282	257.308551526907	0
2	1288	258.096744615878	1
2	1289	258.145499255042	0
2	1293	259.052990815153	1
2	1294	259.195601071976	0
2	1301	260.400737520844	1
2	1303	260.828573221126	2
2	1304	261.039370520412	1
2	1307	262.163734383787	0
2	1316	263.788738841774	1
2	1318	264.023992318875	2
2	1321	264.327784663159	1
2	1325	264.491579110576	2
2	1326	265.371891870908	1
2	1330	265.787383376381	2
2	1332	266.001278468204	3
2	1333	266.185195184685	2
2	1337	266.246980804478	3
2	1341	266.972976644328	4
2	1343	267.184581552592	5
2	1344	267.343974373117	4
2	1348	267.773386601286	5
2	1349	268.468581747357	4
2	1353	268.930152551135	5
2	1354	269.568600081839	4
2	1358	269.745815608607	5
2	1359	270.480476681143	4
2	1363	270.505768376521	5
2	1366	271.391582011897	4
2	1369	272.445782161597	3
2	1373	272.613090102624	4
2	1374	273.582571033761	3
2	1378	273.850180380548	4
2	1379	274.595806365833	3
2	1383	275.087111939605	4
2	1386	275.696782183741	3
2	1390	276.526492781427	4
2	1391	276.647649746668	3
2	1394	277.612626031414	2
2	1397	278.668681659177	1
2	1401	279.003905407925	2
2	1403	279.010650850512	3
2	1404	279.85256526731	2
2	1408	280.839283090784	3
2	1410	280.862600306278	4
2	1411	281.004242046644	3
2	1415	281.311838766317	4
2	1416	281.945957014245	3
2	1420	283.019794887314	4
2	1421	283.108620898799	3
2	1425	283.759583613632	4
2	1426	284.067183602137	3
2	1430	284.076462889738	4
2	1432	284.131292939967	5
2	1433	284.935847158079	4
2	1437	285.619017367282	5
2	1438	286.09618471712	4
2	1442	286.755743941094	5
2	1443	287.063979531174	4
2	1446	287.987848536858	3
2	1450	288.240764177019	4
2	1451	288.896762055067	3
2	1455	289.708144366951	4
2	1456	289.964099515417	3
2	1459	290.986079457404	2
2	1463	291.175087393654	3
2	1464	291.947260809133	2
2	1468	292.092208911638	3
2	1469	292.859005978054	2
2	1473	292.881689769198	3
2	1474	293.709808912224	2
2	1477	294.655419586043	1
2	1480	295.554401367999	0
2	1492	298.81157581631	1
2	1493	298.82977026245	0
2	1497	299.292033511422	1
2	1499	299.432517606829	2
2	1500	299.948399909683	1
2	1505	301.042124654636	0
2	1509	301.842274421317	1
2	1510	302.086049134195	0
2	1517	303.309184495085	1
2	1518	304.133178146094	0
2	1522	304.900174674506	1
2	1523	305.211832040831	0
2	1527	305.230713223375	1
2	1529	305.470842790689	2
2	1531	305.944157024021	3
2	1532	306.064220313545	2
2	1536	306.519285690836	3
2	1538	306.650521722609	4
2	1539	307.188954669613	3
2	1542	308.075956805892	2
2	1546	308.096542220743	3
2	1548	308.80335220948	4
2	1551	309.196652542989	3
2	1555	309.41007703141	4
2	1556	310.019143784515	3
2	1559	310.865698800146	2
2	1563	311.080556362219	3
2	1565	311.131605899448	4
2	1566	311.673343154605	3
2	1569	312.682386972386	2
2	1573	312.835336477372	3
2	1574	313.645757037125	2
2	1577	314.490733666907	1
2	1581	315.163120596674	2
2	1582	315.343447616513	1
2	1585	316.315279100466	0
2	1589	316.653734806429	1
2	1591	316.682757319418	2
2	1592	317.244784611932	1
2	1596	317.573060297825	2
2	1597	318.084544758781	1
2	1600	319.24259815235	0
2	1604	319.770286500167	1
2	1606	320.087770965968	2
2	1607	320.095031810928	1
2	1610	321.066778988954	0
2	1617	323.010345102136	1
2	1618	323.299767793905	0
2	1622	323.648474350171	1
2	1625	324.409818153925	0
2	1631	324.450198928932	1
2	1632	325.388160916794	0
2	1636	325.405256443925	1
2	1638	325.611174535456	2
2	1639	326.332625002883	1
2	1643	327.339075772479	2
2	1644	327.481161796026	1
2	1648	328.034475425033	2
2	1649	328.335597471617	1
2	1653	328.915133415974	2
2	1654	329.372040232461	1
2	1657	330.541977453329	0
2	1661	330.631527735875	1
2	1662	331.459415536099	0
2	1666	332.480296499679	1
2	1667	332.644206706625	0
2	1674	333.929271019665	1
2	1676	334.191836676072	2
2	1678	334.357649532197	3
2	1679	334.359175642771	2
2	1683	334.748145587215	3
2	1686	335.497601208375	2
2	1690	335.916236170822	3
2	1691	336.441826836863	2
2	1694	337.615183569775	1
2	1697	338.645830212166	0
2	1704	340.43589995517	1
2	1706	340.560203991018	2
2	1707	340.564551545591	1
2	1711	340.646224942605	2
2	1712	341.634400805184	1
2	1715	342.50270010876	0
2	1719	342.819901639254	1
2	1723	343.447831494748	2
2	1724	343.461348153749	1
2	1728	344.013348811327	2
2	1730	344.238261830035	3
2	1731	344.349924378382	2
2	1735	344.568816255333	3
2	1736	345.413618515251	2
2	1740	346.161559715716	3
2	1742	346.176212758345	4
2	1743	346.26555152359	3
2	1747	346.682890313915	4
2	1749	346.761994338646	5
2	1750	347.370466930331	4
2	1754	347.411647002001	5
2	1757	348.333806274184	4
2	1760	349.214171565515	3
2	1763	350.341999675524	2
2	1766	351.270323792756	1
2	1769	352.298394962311	0
2	1776	353.332787831372	1
2	1777	354.417984751057	0
2	1783	354.811168231444	1
2	1784	355.4694595255	0
2	1788	355.590095068428	1
2	1790	355.713842016023	2
2	1792	356.398042184982	3
2	1793	356.421141576864	2
2	1797	357.287043715517	3
2	1798	357.42518493636	2
2	1802	357.698717821185	3
2	1804	358.373369526077	4
2	1805	358.46562182317	3
2	1809	358.682800941105	4
2	1810	359.442889155824	3
2	1813	360.528927262038	2
2	1816	361.403629802357	1
2	1820	361.642964052017	2
2	1822	361.969007116982	3
2	1823	362.404356256038	2
2	1827	363.569584904627	3
2	1828	363.593697082441	2
2	1832	364.622106345591	3
2	1833	364.658779954169	2
2	1837	364.973198102645	3
2	1839	365.383183442591	4
2	1840	365.827102470029	3
2	1844	365.871459558458	4
2	1847	366.947645713486	3
2	1851	367.157024419339	4
2	1852	368.057415994074	3
2	1856	368.291218429156	4
2	1857	369.141815047063	3
2	1861	369.672863894795	4
2	1862	370.178609022316	3
2	1866	370.371801081827	4
2	1868	370.688019612208	5
2	1869	371.285629591536	4
2	1873	371.489578591398	5
2	1874	372.132283854489	4
2	1878	372.770764808067	5
2	1879	373.140556205069	4
2	1883	373.486301499821	5
2	1884	374.108413843164	4
2	1887	374.971431394299	3
2	1891	375.092830759958	4
2	1892	375.777987224986	3
2	1897	376.623241916024	2
2	1901	376.774509834053	3
2	1902	377.568469360475	2
2	1906	377.619165483493	3
2	1908	377.797626802513	4
2	1909	378.720825248402	3
2	1913	378.812571155566	4
2	1916	379.657956119072	3
2	1920	380.64038649215	4
2	1921	380.840604356867	3
2	1925	380.889009747293	4
2	1926	381.833292456069	3
2	1930	382.027166357372	4
2	1931	382.667398013645	3
2	1935	382.903822733739	4
2	1936	383.817061903798	3
2	1939	384.834925466967	2
2	1942	385.642526176297	1
2	1946	386.643871390312	2
2	1947	386.765018064906	1
2	1950	387.75360705853	0
2	1962	390.31273277656	1
2	1964	390.682945143892	2
2	1965	390.779827704193	1
2	1969	390.80135351585	2
2	1971	391.032747584291	3
2	1973	391.056999755105	4
2	1976	391.901789140334	3
2	1980	392.289999957118	4
2	1981	393.02792180386	3
2	1986	394.092941699369	2
2	1989	395.085131413588	1
2	1992	396.222716604924	0
2	1999	397.429748997551	1
2	2001	397.699717853162	2
2	2003	398.086995647743	3
2	2004	398.192541307962	2
2	2010	398.958454807898	3
2	2011	399.34874282573	2
2	2015	400.270945243749	3
2	2016	400.377327192022	2
2	2020	400.459120416781	3
2	2021	401.392818765721	2
2	2025	401.911760922656	3
2	2026	402.551541392046	2
2	2030	402.658425571632	3
2	2031	403.630244274071	2
2	2036	404.753193027625	1
2	2040	405.654561401049	2
2	2041	405.864876252977	1
2	2045	406.198411857249	2
2	2047	406.597397393281	3
2	2048	406.74631989664	2
2	2052	407.08320955845	3
2	2053	407.664029069809	2
2	2056	408.616653414821	1
2	2060	408.745156050642	2
2	2061	409.431213285034	1
2	2065	409.927023654877	2
2	2067	410.041153290303	3
2	2068	410.56396831377	2
2	2072	410.811132607029	3
2	2073	411.746004474727	2
2	2077	411.875095260603	3
2	2078	412.547664394235	2
2	2082	413.572674017679	3
2	2083	413.664437138481	2
2	2087	414.642393876783	3
2	2088	414.690654259833	2
2	2091	415.517983411352	1
2	2094	416.435020240216	0
2	2100	416.721547916287	1
2	2102	416.746690996103	2
2	2103	417.485997884447	1
2	2106	418.381270286912	0
2	2110	419.496940466948	1
2	2112	419.530933965938	2
2	2113	419.560097221756	1
2	2117	419.80455265814	2
2	2118	420.379934530804	1
2	2122	420.557313579856	2
2	2123	421.517846480763	1
2	2127	421.574986306371	2
2	2128	422.499897548376	1
2	2132	422.820246590948	2
2	2133	423.545886492828	1
2	2137	423.781573878738	2
2	2138	424.637861203967	1
2	2142	425.246165686415	2
2	2143	425.752388939919	1
2	2147	426.148076425747	2
2	2148	426.844141157722	1
2	2152	427.183169150814	2
2	2154	427.323677508463	3
2	2155	427.743470604071	2
2	2159	427.813922584802	3
2	2160	428.870901413919	2
2	2164	429.399096874822	3
2	2165	429.719740792835	2
2	2169	429.801534304886	3
2	2172	430.683270939259	2
2	2176	431.098396044353	3
2	2178	431.663266508851	4
2	2179	431.758619520912	3
2	2184	432.605050838558	2
2	2188	432.728375950136	3
2	2190	433.653543409712	4
2	2191	433.737138533598	3
2	2195	433.930629289035	4
2	2196	434.64045038466	3
2	2200	434.733949885392	4
2	2202	435.755164408082	5
2	2203	435.837767209584	4
2	2206	436.692409570987	3
2	2210	436.969331308652	4
2	2213	437.495721931669	3
2	2217	438.095774495012	4
2	2218	438.359797092347	3
2	2222	439.182341386868	4
2	2223	439.302020735393	3
2	2227	440.024824347359	4
2	2228	440.240473418503	3
2	2231	441.160151072132	2
2	2235	441.373475978527	3
2	2236	442.360063725157	2
2	2240	442.84710037938	3
2	2241	443.384879345825	2
2	2244	444.206614196399	1
2	2248	444.87188953492	2
2	2249	445.264263921888	1
2	2253	446.231272169651	2
2	2254	446.398910768335	1
2	2258	446.624765837851	2
2	2259	447.343371513305	1
2	2263	448.216677199514	2
2	2264	448.399823162058	1
2	2268	449.255562821631	2
2	2271	449.51207046826	1
2	2275	449.565239917768	2
2	2276	450.668659126485	1
2	2280	451.490153140559	2
2	2282	451.750171684573	3
2	2283	451.814162568474	2
2	2287	452.668915199338	3
2	2288	452.830586649855	2
2	2292	453.260766274004	3
2	2293	453.706833165703	2
2	2297	454.225748714996	3
2	2298	454.875458438979	2
2	2302	455.947767481846	3
2	2303	456.027316027699	2
2	2306	456.970809877856	1
2	2310	457.423441542416	2
2	2312	457.573523130434	3
2	2313	458.168860544177	2
2	2316	459.222037960222	1
2	2321	460.311186027905	0
2	2331	462.552569020589	1
2	2332	463.495603897242	0
2	2336	463.882732028297	1
2	2337	464.628827251872	0
2	2346	466.239348519587	1
2	2349	466.893405975686	0
2	2353	467.525160686445	1
2	2354	467.847261924022	0
2	2363	469.480503151202	1
2	2364	469.632478643121	0
2	2368	469.88111419264	1
2	2369	470.711971581267	0
2	2383	473.177368948089	1
2	2384	473.215455655387	0
2	2392	474.065279338271	1
2	2393	474.37817518395	0
2	2403	476.892684752884	1
2	2406	477.396694931114	0
2	2410	477.423246967346	1
2	2411	478.357303114613	0
2	2426	482.041699060049	1
2	2428	482.337195339574	2
2	2429	482.44477159456	1
2	2432	483.623825288104	0
2	2436	483.659732407326	1
2	2437	484.624487585208	0
2	2441	485.028819504283	1
2	2442	485.537248902215	0
2	2446	485.541168282607	1
2	2453	486.725443844224	0
2	2460	488.460460960738	1
2	2461	488.533801524906	0
2	2473	490.906097956264	1
2	2476	491.859435312271	0
2	2485	493.587310523244	1
2	2486	493.949729745098	0
2	2495	494.935145315274	1
2	2497	494.99443275814	2
2	2498	495.835345427141	1
2	2501	496.817690691825	0
2	2505	497.358269029393	1
2	2508	497.885127731327	0
2	2515	499.166271050008	1
2	2516	499.91339992686	0
2	2523	501.393688621254	1
2	2526	502.138082205512	0
2	2530	502.297075959682	1
2	2533	503.10439931155	0
2	2537	503.205110648108	1
2	2539	503.460756296147	2
2	2542	504.22524871622	1
2	2545	505.087353572257	0
2	2549	505.943894184001	1
2	2550	506.143837528963	0
2	2554	506.767624925085	1
2	2555	507.12321240912	0
2	2559	507.133008319799	1
2	2560	508.022705259554	0
2	2564	508.054149839692	1
2	2565	509.113210408863	0
2	2569	509.315304591681	1
2	2570	510.281387157746	0
2	2574	510.376931446385	1
2	2575	511.147921585765	0
2	2584	512.537213254173	1
2	2586	512.725815890302	2
2	2587	513.245612609953	1
2	2593	514.108917790802	2
2	2594	514.434396018654	1
2	2599	515.518769444346	0
2	2603	516.063267380412	1
2	2604	516.484713327985	0
2	2608	516.847421425336	1
2	2609	517.294417837456	0
2	2613	517.543053520574	1
2	2614	518.163936838515	0
2	2623	519.26115920206	1
2	2625	519.267434001686	2
2	2626	520.186141547847	1
2	2631	521.223933936849	0
2	2635	521.335396385119	1
2	2636	522.156049635455	0
2	2643	523.290232479594	1
2	2645	523.91843887921	2
2	2646	524.134961621843	1
2	2651	525.045698262758	0
2	2658	526.478641577373	1
2	2659	526.822537155643	0
2	2663	527.585020307954	1
2	2666	527.869866214793	0
2	2670	528.037759045971	1
2	2672	528.416563670079	2
2	2673	529.011409969728	1
2	2676	530.148827169843	0
2	2680	530.681277886264	1
2	2682	530.823440269059	2
2	2683	531.189280372586	1
2	2686	532.039730748821	0
2	2696	534.295202589809	1
2	2698	534.533568367009	2
2	2701	535.191853394366	1
2	2707	535.512095534708	2
2	2708	536.233250286064	1
2	2713	537.231568631164	0
2	2717	537.326070298354	1
2	2718	538.387648557878	0
2	2725	540.079480534422	1
2	2726	540.535678357451	0
2	2730	541.118902943495	1
2	2731	541.367527020636	0
2	2735	541.803709733043	1
2	2736	542.313503355074	0
2	2745	543.937195916933	1
2	2746	544.163661725733	0
2	2752	544.633174127708	1
2	2754	544.944099800904	2
2	2755	544.967660836603	1
2	2759	544.983618774346	2
2	2760	545.963762100048	1
2	2763	546.915097267653	0
2	2770	547.85887538625	1
2	2771	548.573744517757	0
2	2779	549.101569010341	1
2	2780	549.538223074941	0
2	2790	552.518373278839	1
2	2792	552.638443035362	2
2	2793	552.653211140825	1
2	2796	553.475638063724	0
2	2800	553.997660300007	1
2	2803	554.650896242454	0
2	2807	555.107933240915	1
2	2808	555.637671445783	0
2	2812	556.049534135862	1
2	2815	556.586945333525	0
2	2822	557.859682447224	1
2	2824	558.061246885713	2
2	2825	558.515531512636	1
2	2830	559.605713471311	0
2	2834	560.133342491865	1
2	2835	560.537954158249	0
2	2842	561.812952064765	1
2	2844	562.020926546608	2
2	2846	562.406978948992	3
2	2847	562.777079559869	2
2	2850	563.871501449781	1
2	2853	564.812596439297	0
2	2874	568.63119475394	1
2	2875	568.690822154291	0
2	2884	569.832589571345	1
2	2886	570.375469567682	2
2	2888	570.387532415627	3
2	2889	570.547948171393	2
2	2893	570.784288380369	3
2	2894	571.746687331804	2
2	2897	572.615738569953	1
2	2903	573.178103189397	2
2	2905	573.297277726002	3
2	2906	573.510547371123	2
2	2912	574.532075752134	3
2	2913	574.582705274791	2
2	2916	575.607861384757	1
2	2920	575.913247903125	2
2	2922	576.165657200622	3
2	2923	576.605458811119	2
2	2926	577.427139255039	1
2	2929	578.273283344794	0
2	2938	579.71894026003	1
2	2939	580.316696967099	0
2	2943	580.991855267955	1
2	2946	581.294177601587	0
2	2950	581.459121212807	1
2	2952	581.640035221432	2
2	2953	582.232171726514	1
2	2957	582.982648378134	2
2	2958	583.15553085097	1
2	2962	583.667666803392	2
2	2964	583.689173422065	3
2	2965	584.223994893496	2
2	2968	585.191133578689	1
2	2972	585.607303410208	2
2	2974	586.145484569823	3
2	2975	586.381915213921	2
2	2978	587.535275085651	1
2	2982	587.900304285059	2
2	2986	588.419779985549	3
2	2988	588.573085238064	4
2	2989	588.575745888062	3
2	2993	588.868091324572	4
2	2995	588.990040519112	5
2	2996	589.610000814133	4
2	3001	590.496941447639	3
2	3005	590.731049010509	4
2	3006	591.641075506629	3
2	3010	592.086790518662	4
2	3011	592.705750717045	3
2	3015	593.197472342965	4
2	3016	593.902080269818	3
2	3020	594.541408941886	4
2	3021	594.934420265266	3
2	3025	595.651703912386	4
2	3026	596.072903555547	3
2	3030	596.820762559181	4
2	3031	596.920524743022	3
2	3034	597.892852987265	2
2	3038	598.042784543756	3
2	3039	599.070467671202	2
2	3043	599.254045913596	3
2	3045	599.817424624277	4
2	3046	600.044454238759	3
2	3049	601.06895167456	2
2	3052	602.18519906505	1
2	3056	602.415502986932	2
2	3058	603.036700973605	3
2	3060	603.32168597049	4
2	3061	603.381139570949	3
2	3067	603.877991375109	4
2	3068	604.297959711039	3
2	3071	605.192269939845	2
2	3074	606.124191834228	1
2	3078	606.253926030381	2
2	3081	606.959905935554	1
2	3085	607.929009723892	2
2	3086	607.999223969793	1
2	3089	609.087346684849	0
2	3093	609.65252303738	1
2	3094	610.098371060109	0
2	3098	610.229246176848	1
2	3100	610.633981971491	2
2	3103	611.243624730418	1
2	3107	611.358469590182	2
2	3109	611.543524615197	3
2	3110	612.339987244653	2
2	3113	613.51745430558	1
2	3117	613.884611784204	2
2	3118	614.398822549088	1
2	3122	615.058717557331	2
2	3123	615.449426482255	1
2	3127	615.984932201375	2
2	3128	616.379437425556	1
2	3131	617.227381897075	0
2	3135	617.232307614434	1
2	3136	618.117854943788	0
2	3140	618.143659484378	1
2	3141	619.226436371273	0
2	3145	619.288290397857	1
2	3147	619.885927519851	2
2	3148	620.080326638753	1
2	3152	620.097610073722	2
2	3154	620.901524296582	3
2	3155	621.041017619903	2
2	3159	621.414552841225	3
2	3162	621.860555478475	2
2	3166	622.163174924774	3
2	3167	622.787988711904	2
2	3171	623.671103113815	3
2	3172	623.868800978373	2
2	3176	624.304179962204	3
2	3177	624.783894444454	2
2	3181	625.406497541672	3
2	3183	625.910040139289	4
2	3184	625.919890052557	3
2	3188	625.929032891101	4
2	3189	627.073240792762	3
2	3192	627.931570017907	2
2	3196	628.578304900218	3
2	3197	629.050985953036	2
2	3200	630.168826981365	1
2	3204	631.002208328929	2
2	3206	631.029864451477	3
2	3207	631.101720545451	2
2	3211	631.733502042905	3
2	3213	631.938612641943	4
2	3214	631.939349143217	3
2	3218	632.0368372033	4
2	3219	632.995354541867	3
2	3223	633.23948076683	4
2	3224	634.105872880212	3
2	3227	635.039179961859	2
2	3230	635.932043573736	1
2	3234	636.198790640734	2
2	3236	636.470089683913	3
2	3237	636.87596322327	2
2	3241	637.372142203607	3
2	3243	637.593626692857	4
2	3244	637.861731590527	3
2	3248	638.251251905848	4
2	3249	638.97182450398	3
2	3253	639.999970099589	4
2	3254	640.140941162418	3
2	3258	640.363426212189	4
2	3259	640.986778690304	3
2	3263	641.006809561058	4
2	3264	641.926505435548	3
2	3268	642.480747412063	4
2	3269	642.774969209648	3
2	3272	643.582740862585	2
2	3276	643.834276320871	3
2	3277	644.476378005754	2
2	3281	645.171287903188	3
2	3282	645.453997536666	2
2	3285	646.354581377759	1
2	3289	647.266034260779	2
2	3290	647.395231157272	1
2	3294	648.002651877605	2
2	3295	648.437323207325	1
2	3299	649.355193282876	2
2	3301	649.375408166141	3
2	3302	649.378985250099	2
2	3305	650.546750787842	1
2	3308	651.571383567258	0
2	3322	653.952568696579	1
2	3323	654.305393102776	0
2	3332	656.066467888098	1
2	3333	656.226115161005	0
2	3337	656.831117339698	1
2	3339	657.074595956183	2
2	3340	657.405164055071	1
2	3345	658.266142736851	0
2	3352	660.319286375846	1
2	3353	660.402982058106	0
2	3360	661.999946378261	1
2	3361	662.170691813352	0
2	3367	663.145843823874	1
2	3368	663.262970398935	0
2	3378	665.359534405474	1
2	3380	665.621921237981	2
2	3381	665.958361274944	1
2	3386	667.063979947389	0
2	3392	667.687598304351	1
2	3393	667.89192582053	0
2	3397	668.420806401803	1
2	3399	668.764401793675	2
2	3400	669.06372101019	1
2	3403	670.021973415193	0
2	3410	671.003308797937	1
2	3411	671.889601922975	0
2	3425	674.099493661502	1
2	3427	674.117918838129	2
2	3429	674.346751215481	3
2	3430	674.564062507179	2
2	3434	675.36483614986	3
2	3437	675.649985263877	2
2	3442	676.624229798567	1
2	3445	677.774097679936	0
2	3452	679.518999199893	1
2	3453	679.729272934151	0
2	3457	680.39291306406	1
2	3458	680.666193942641	0
2	3464	681.027151242868	1
2	3465	681.525404982557	0
2	3475	683.881514029157	1
2	3478	684.646880689645	0
2	3492	687.617996047634	1
2	3493	687.753362458022	0
2	3497	687.765909479625	1
2	3500	688.735356333861	0
2	3504	689.267184709074	1
2	3505	689.656966415895	0
2	3509	690.325383238391	1
2	3510	690.746830724282	0
2	3517	692.44009921485	1
2	3518	692.889377608998	0
2	3522	692.98292796954	1
2	3525	693.995530302553	0
2	3529	694.00485037969	1
2	3530	694.831025368264	0
2	3537	696.833517775941	1
2	3538	696.859819302158	0
2	3542	697.174285261523	1
2	3545	697.660523658813	0
2	3552	698.650105071686	1
2	3553	699.432384800919	0
2	3562	700.431853702425	1
2	3564	700.726508621759	2
2	3565	701.331183734544	1
2	3570	702.21171336212	0
2	3574	702.214591447946	1
2	3575	703.108568847187	0
2	3579	703.878184669602	1
2	3580	704.209121129856	0
2	3584	704.936155516485	1
2	3586	705.086299035952	2
2	3587	705.227396169127	1
2	3590	706.377482635536	0
2	3594	706.426070512978	1
2	3595	707.494235103306	0
2	3599	708.189701372616	1
2	3601	708.244043195518	2
2	3602	708.346133762699	1
2	3606	708.716954448915	2
2	3608	708.808672501881	3
2	3609	709.204931620796	2
2	3612	710.029928471249	1
2	3615	710.921963744153	0
2	3622	711.854078536079	1
2	3624	712.86050631742	2
2	3625	712.942213016943	1
2	3631	713.226558092861	2
2	3633	713.333589196689	3
2	3635	713.875842524696	4
2	3636	714.091182281085	3
2	3639	715.11487152689	2
2	3643	715.60539695365	3
2	3644	716.275039638307	2
2	3647	717.469176009957	1
2	3651	717.882663326663	2
2	3652	718.496734862689	1
2	3656	718.622858885919	2
2	3657	719.548412598956	1
2	3661	719.920657639838	2
2	3663	720.209207519156	3
2	3664	720.369714925725	2
2	3668	721.323657064104	3
2	3669	721.355436732162	2
2	3672	722.378707270984	1
2	3675	723.353715577357	0
2	3684	724.232795092197	1
2	3686	724.400297674103	2
2	3688	724.407461734288	3
2	3689	724.991253574946	2
2	3693	725.405025940332	3
2	3697	725.713491606826	4
2	3698	726.160238956482	3
2	3701	727.342175093488	2
2	3705	727.651412401494	3
2	3706	728.204299512421	2
2	3712	728.474818879301	3
2	3714	728.569577022574	4
2	3715	729.154804337033	3
2	3720	730.230932164201	2
2	3724	730.610189737936	3
2	3725	731.274668471338	2
2	3729	731.579169691679	3
2	3730	732.373093219017	2
2	3734	732.794838424064	3
2	3736	732.835329824415	4
2	3738	733.183628337184	5
2	3739	733.521698487279	4
2	3743	734.376502173728	5
2	3744	734.677746109859	4
2	3748	734.781514815809	5
2	3749	735.791266037346	4
2	3753	736.625952946004	5
2	3754	736.933846716778	4
2	3758	737.358564635093	5
2	3760	737.738511096308	6
2	3761	737.915035769725	5
2	3765	738.368419967377	6
2	3766	739.025006800527	5
2	3770	739.769488413623	6
2	3771	740.14175584727	5
2	3775	740.891548960904	6
2	3776	740.994558874341	5
2	3780	741.73905788492	6
2	3781	741.903189214794	5
2	3784	742.885480286656	4
2	3788	743.604480634375	5
2	3789	743.727506888015	4
2	3793	744.38353562977	5
2	3794	744.825336378263	4
2	3799	745.862836826229	3
2	3803	746.203445589202	4
2	3804	746.714135506013	3
2	3808	746.751819176204	4
2	3810	747.28812418524	5
2	3811	747.759311197055	4
2	3814	748.918370324382	3
2	3818	748.994736692207	4
2	3819	750.050500297089	3
2	3822	751.230272085973	2
2	3826	751.69962428088	3
2	3828	751.801133738356	4
2	3829	752.246900002667	3
2	3832	753.255487664891	2
2	3836	753.695951075769	3
2	3838	754.180901341628	4
2	3839	754.34465100645	3
2	3843	755.065770064853	4
2	3844	755.469280913574	3
2	3848	755.906570439845	4
2	3850	756.329187903012	5
2	3851	756.668996654832	4
2	3854	757.534377969437	3
2	3858	757.605122963989	4
2	3859	758.591558539596	3
2	3863	759.161068111781	4
2	3865	759.352972680922	5
2	3866	759.778618160736	4
2	3869	760.967427775458	3
2	3872	761.861510086719	2
2	3876	761.913457164823	3
2	3878	762.923844356381	4
2	3879	762.949943009771	3
2	3882	764.079151536252	2
2	3886	764.303201713026	3
2	3888	764.863315731528	4
2	3889	765.00740841721	3
2	3893	765.365355759824	4
2	3895	765.718976256843	5
2	3896	766.085888548855	4
2	3900	766.461769622048	5
2	3901	766.894457791008	4
2	3905	767.094825788556	5
2	3907	767.465287644182	6
2	3908	767.963678805631	5
2	3912	768.438262576051	6
2	3913	768.900230544906	5
2	3916	770.031793407731	4
2	3920	770.239943542245	5
2	3922	770.524237193085	6
2	3923	771.050303601481	5
2	3927	771.210261319896	6
2	3928	772.067515843742	5
2	3932	772.170404249128	6
2	3934	773.045120379443	7
2	3935	773.176772882332	6
2	3939	773.518435750312	7
2	3940	774.333839697213	6
2	3943	775.420250023817	5
2	3947	776.022930233788	6
2	3949	776.157042997904	7
2	3950	776.567718816744	6
2	3954	776.762175772416	7
2	3956	776.83829917676	8
2	3958	777.168632167861	9
2	3959	777.642724266937	8
2	3963	778.133162451693	9
2	3964	778.73568562475	8
2	3968	779.496721942686	9
2	3969	779.775099115083	8
2	3972	780.729600889245	7
2	3975	781.799242635081	6
2	3978	782.889462844013	5
2	3982	783.364720358894	6
2	3984	783.45183153902	7
2	3985	783.749175378038	6
2	3989	784.625486042523	7
2	3990	784.870364161032	6
2	3993	785.813795829388	5
2	3997	786.019414409452	6
2	3998	786.879654177847	5
2	4001	787.846657601568	4
2	4005	788.269024854565	5
2	4006	788.826750102556	4
2	4010	789.50739876897	5
2	4012	789.805533444428	6
2	4013	789.84688367649	5
2	4017	790.776977240986	6
2	4018	790.866370815793	5
2	4022	791.346939068376	6
2	4023	791.78473328446	5
2	4027	791.994389472568	6
2	4031	792.670580318965	7
2	4032	792.86072416027	6
2	4036	792.925583558181	7
2	4037	794.036042066672	6
2	4041	794.83188539093	7
2	4042	795.203617540662	6
2	4046	795.564394444179	7
2	4048	795.966985811604	8
2	4049	796.122557231699	7
2	4052	797.031950718545	6
2	4056	797.956416839091	7
2	4057	797.960643280492	6
2	4060	799.126272222501	5
2	4064	799.696900668687	6
2	4065	800.058520882119	5
2	4069	800.487764798486	6
2	4071	800.903143083335	7
2	4072	801.035147622142	6
2	4076	801.505302026742	7
2	4077	802.145284668922	6
2	4081	802.383432975538	7
2	4082	803.036513587839	6
2	4085	804.100748133852	5
2	4088	805.031597588218	4
2	4092	805.074466178237	5
2	4093	805.923355149578	4
2	4097	806.36824774814	5
2	4099	806.456531407042	6
2	4100	807.003181432847	5
2	4103	808.147693342537	4
2	4106	809.156981414192	3
2	4110	809.982011166952	4
2	4111	809.998521534362	3
2	4115	810.365605764794	4
2	4117	810.401791049557	5
2	4119	810.650790020759	6
2	4120	810.821553024006	5
2	4124	810.955172500741	6
2	4125	811.886417579287	5
2	4128	812.698890410372	4
2	4132	813.605991633042	5
2	4133	813.79862600305	4
2	4137	814.32975891745	5
2	4138	814.874838258893	4
2	4142	814.909353830277	5
2	4143	816.055238517009	4
2	4146	816.972735544116	3
2	4150	817.100198214338	4
2	4152	817.20811622385	5
2	4153	817.820668298107	4
2	4157	818.293286749916	5
2	4158	818.965975042068	4
2	4161	819.832989815817	3
2	4164	820.734540303991	2
2	4168	821.066009703108	3
2	4169	821.749553299517	2
2	4173	821.808125024235	3
2	4175	821.940241121858	4
2	4176	822.64751117044	3
2	4179	823.603960324739	2
2	4183	823.655366007091	3
2	4185	823.958451480236	4
2	4186	824.752356300791	3
2	4190	824.805898834425	4
2	4191	825.709608781346	3
2	4195	826.584176439435	4
2	4196	826.745690524028	3
2	4200	827.453604370695	4
2	4201	827.601128072393	3
2	4205	828.603739449436	4
2	4206	828.72739980976	3
2	4210	829.180471621795	4
2	4211	829.775622300719	3
2	4215	830.489831050989	4
2	4217	830.541910177892	5
2	4218	830.94335669103	4
2	4222	831.161641847796	5
2	4223	832.094852704936	4
2	4226	832.936107326214	3
2	4230	833.472467230826	4
2	4232	833.689127681294	5
2	4233	833.866992022943	4
2	4236	834.791283207767	3
2	4240	835.085295371095	4
2	4242	835.261836967379	5
2	4243	835.611497779478	4
2	4247	835.964773284462	5
2	4250	836.662664642566	4
2	4255	837.759679481489	3
2	4259	838.06741660896	4
2	4260	838.913146735643	3
2	4264	839.891554807117	4
2	4265	839.893666367427	3
2	4268	840.787316923317	2
2	4272	841.310369482883	3
2	4273	841.973959768851	2
2	4276	843.02847686122	1
2	4280	843.477552131735	2
2	4281	843.984134417687	1
2	4285	844.034863619928	2
2	4287	844.330116412046	3
2	4288	845.020613574431	2
2	4292	845.335946596314	3
2	4293	845.993699284651	2
2	4297	846.352283337942	3
2	4298	847.116426154234	2
2	4301	848.241361030385	1
2	4305	849.091230679742	2
2	4307	849.142615000398	3
2	4308	849.247000122916	2
2	4311	850.318192652993	1
2	4314	851.180513011951	0
2	4318	851.762768608183	1
2	4319	852.13471444371	0
2	4326	853.44657006529	1
2	4328	853.581736041011	2
2	4329	853.863538588126	1
2	4335	854.624939333808	2
2	4337	854.899491396252	3
2	4338	854.973923015137	2
2	4341	856.035538649008	1
2	4344	856.935358204887	0
2	4353	858.38762285253	1
2	4354	859.18138415274	0
2	4366	862.012824551468	1
2	4367	862.014651265655	0
2	4371	862.042448502319	1
2	4373	862.100486468428	2
2	4376	863.162737676882	1
2	4380	864.181676068648	2
2	4381	864.195609623016	1
2	4385	864.415632807444	2
2	4386	865.190113010266	1
2	4389	866.015937018217	0
2	4393	866.509714795197	1
2	4394	866.848903291216	0
2	4401	868.757152106793	1
2	4402	868.783196584703	0
2	4411	870.581580887935	1
2	4412	870.762496997239	0
2	4416	871.029991847541	1
2	4417	871.874671546938	0
2	4423	872.702245147143	1
2	4424	872.866005909825	0
2	4428	873.089605488078	1
2	4429	873.925467638867	0
2	4433	874.766715156261	1
2	4434	874.878451414416	0
2	4441	876.692407054174	1
2	4442	877.106475386126	0
2	4446	877.277763845169	1
2	4448	877.413157591618	2
2	4452	877.578407377641	3
2	4453	878.267695178939	2
2	4456	879.124738246305	1
2	4460	879.282522254405	2
2	4461	880.175039341496	1
2	4464	881.299068398038	0
2	4468	881.581700775545	1
2	4470	881.934795581067	2
2	4471	882.262723610653	1
2	4475	882.268323631537	2
2	4477	882.538916393138	3
2	4478	883.274465582995	2
2	4481	884.457780034198	1
2	4485	884.627209173362	2
2	4486	885.642941549616	1
2	4490	885.887598826366	2
2	4492	886.47443895954	3
2	4494	886.603220192486	4
2	4495	886.732474729894	3
2	4499	887.064618897652	4
2	4500	887.540440871856	3
2	4503	888.40637712489	2
2	4507	888.563385238534	3
2	4509	889.020598170713	4
2	4510	889.259196440327	3
2	4514	889.430563510493	4
2	4517	890.13233046244	3
2	4521	890.427572120231	4
2	4523	890.914774895046	5
2	4525	891.043886116762	6
2	4526	891.196886851649	5
2	4530	891.886679383228	6
2	4532	891.994398825994	7
2	4535	892.341159227408	6
2	4539	892.684862524171	7
2	4540	893.234171138994	6
2	4544	893.646938619653	7
2	4547	894.140632953971	6
2	4551	894.628476233092	7
2	4552	895.046770910929	6
2	4556	895.606610531642	7
2	4557	895.945041468098	6
2	4561	896.122683965643	7
2	4562	896.936266450874	6
2	4566	897.57454551818	7
2	4567	897.76360963137	6
2	4570	898.929777924261	5
2	4574	899.230569311063	6
2	4576	899.907226425596	7
2	4577	900.061912322055	6
2	4580	901.018193665809	5
2	4584	901.365693889188	6
2	4585	901.848193237196	5
2	4589	902.709968792417	6
2	4592	902.906254362698	5
2	4596	903.484201466946	6
2	4597	903.774182228661	5
2	4601	903.836593605164	6
2	4603	904.390263787341	7
2	4605	904.454910455778	8
2	4606	904.62691118681	7
2	4609	905.456261441122	6
2	4613	905.536167908071	7
2	4615	905.596874485631	8
2	4617	905.789347549637	9
2	4618	906.276901296164	8
2	4621	907.222640881418	7
2	4624	908.173657109133	6
2	4628	909.157027671281	7
2	4631	909.345968956511	6
2	4635	909.897896557572	7
2	4636	910.220505750004	6
2	4639	911.04323250401	5
2	4643	911.133514095889	6
2	4645	911.734331184863	7
2	4647	911.914109283371	8
2	4648	911.942519892204	7
2	4652	912.017888409241	8
2	4654	912.184172659875	9
2	4655	912.97119482794	8
2	4659	913.108180180396	9
2	4660	913.87892765199	8
2	4663	914.949141070258	7
2	4667	916.032483544114	8
2	4668	916.04025222921	7
2	4672	916.640864684693	8
2	4673	916.934790492628	7
2	4677	917.052429217266	8
2	4679	917.086139796214	9
2	4680	918.126931138069	8
2	4683	919.161219133635	7
2	4687	919.371559925546	8
2	4688	920.024745112576	7
2	4692	920.043472220521	8
2	4693	921.160725786828	7
2	4696	922.319172047928	6
2	4699	923.276923886605	5
2	4703	923.89235634826	6
2	4705	924.039818705486	7
2	4706	924.179345690284	6
2	4710	924.904950894113	7
2	4711	925.204670796182	6
2	4715	926.174025871604	7
2	4716	926.20460030596	6
2	4720	926.259364915938	7
2	4721	927.289319243201	6
2	4725	927.666065284742	7
2	4727	927.855734802728	8
2	4729	928.05832293786	9
2	4730	928.308257670061	8
2	4734	928.752317051364	9
2	4735	929.303366223642	8
2	4738	930.217913994392	7
2	4745	931.060454515101	6
2	4749	931.363848209198	7
2	4751	931.640042640644	8
2	4752	931.904819294357	7
2	4756	931.908257085203	8
2	4758	932.536802915368	9
2	4759	932.936811300193	8
2	4763	933.168191953287	9
2	4764	934.015067090013	8
2	4767	935.095650308312	7
2	4772	935.981603314833	6
2	4775	936.996276897484	5
2	4779	937.487146378567	6
2	4781	937.800495616676	7
2	4782	938.025506142539	6
2	4786	938.603697599893	7
2	4787	939.058192164836	6
2	4790	940.161466916104	5
2	4794	940.224343298731	6
2	4796	940.920445384263	7
2	4797	940.980622850091	6
2	4801	941.504088753913	7
2	4802	941.97896396016	6
2	4805	942.7803903347	5
2	4809	942.810251596944	6
2	4811	942.993388993469	7
2	4813	943.022917562659	8
2	4814	943.741703655489	7
2	4818	944.028749846436	8
2	4820	944.141311152525	9
2	4821	944.844020748802	8
2	4825	945.263665267587	9
2	4827	945.333294158023	10
2	4828	945.694308666151	9
2	4833	946.68456367572	8
2	4837	947.059917972763	9
2	4839	947.419362291042	10
2	4840	947.543615900922	9
2	4844	947.952454550687	10
2	4845	948.55453638482	9
2	4850	949.483390861294	8
2	4854	950.387547704022	9
2	4855	950.457548775255	8
2	4858	951.381712678458	7
2	4862	952.049194456913	8
2	4864	952.227914382856	9
2	4865	952.524735768243	8
2	4868	953.706684369232	7
2	4872	953.82187465874	8
2	4874	954.060303411586	9
2	4875	954.600774953152	8
2	4878	955.687660043138	7
2	4882	956.374642201823	8
2	4883	956.609822215336	7
2	4886	957.556291351012	6
2	4890	958.367541682041	7
2	4891	958.558105884596	6
2	4895	958.724435410083	7
2	4897	958.845672818799	8
2	4899	959.29966829975	9
2	4900	959.484287647448	8
2	4904	959.954826671362	9
2	4906	960.07450601609	10
2	4907	960.655248600721	9
2	4910	961.579805331688	8
2	4914	961.783228514272	9
2	4916	962.527157371877	10
2	4917	962.712808531999	9
2	4920	963.835892018314	8
2	4924	963.975620490501	9
2	4926	964.158241610901	10
2	4928	964.482124020061	11
2	4929	964.700657753936	10
2	4933	964.702646743944	11
2	4936	965.873865214839	10
2	4940	966.532429119039	11
2	4942	966.615097310366	12
2	4943	966.849275404319	11
2	4947	967.737509949809	12
2	4948	967.981057513423	11
2	4952	968.581681369772	12
2	4953	968.996555970899	11
2	4956	970.021433602656	10
2	4960	970.127757853392	11
2	4962	970.43789844485	12
2	4964	970.708869803506	13
2	4965	971.042723329655	12
2	4969	971.244833931509	13
2	4970	972.242041284508	12
2	4974	972.499317683892	13
2	4975	973.436563908412	12
2	4978	974.586307902179	11
2	4981	975.675623205408	10
2	4984	976.673265642777	9
2	4988	976.706396430087	10
2	4990	977.448427220802	11
2	4992	977.491688395905	12
2	4993	977.663489051081	11
2	4999	978.002656005862	12
2	5000	978.704918936465	11
2	5004	979.158788473982	12
2	5005	979.66188496222	11
2	5009	980.042335939055	12
2	5010	980.690040609718	11
2	5013	981.569792249438	10
2	5017	981.661860773017	11
2	5019	982.097029217555	12
2	5020	982.650522233371	11
2	5024	983.376467035055	12
2	5025	983.54306624654	11
2	5030	984.648686914437	10
2	5033	985.782435006381	9
2	5036	986.640875491978	8
2	5040	987.014661553925	9
2	5043	987.497779865948	8
2	5047	987.621890255662	9
2	5048	988.361540560437	8
2	5051	989.533571725538	7
2	5054	990.556257241884	6
2	5058	990.67853621906	7
2	5059	991.526880549373	6
2	5063	992.490188904684	7
2	5064	992.558705298709	6
2	5068	992.917036034851	7
2	5070	993.406518885999	8
2	5071	993.481639914414	7
2	5074	994.367949399365	6
2	5078	994.373978393291	7
2	5080	995.371852337007	8
2	5081	995.436012836838	7
2	5085	995.685783537416	8
2	5086	996.272401887378	7
2	5090	996.759912908763	8
2	5092	996.938298684762	9
2	5093	997.367596755097	8
2	5097	998.382498847998	9
2	5098	998.522117217923	8
2	5101	999.6289363254	7
2	5104	1000.559571113358	6
2	5107	1001.52557831678	5
2	5110	1002.529726995541	4
2	5114	1003.018875477421	5
2	5115	1003.442974759093	4
2	5118	1004.334349118839	3
2	5122	1004.743863005242	4
2	5123	1005.221478738929	3
2	5126	1006.282709432314	2
2	5129	1007.458904026183	1
2	5133	1007.604817230555	2
2	5134	1008.558162934626	1
2	5137	1009.607956698737	0
2	5147	1011.690348438907	1
2	5148	1012.425753377299	0
2	5152	1012.641190062128	1
2	5154	1013.139087569982	2
2	5156	1013.419063932853	3
2	5157	1013.552687495402	2
2	5162	1014.419443043428	1
2	5166	1015.048571819456	2
2	5167	1015.360630348711	1
2	5171	1015.726852848119	2
2	5173	1016.491830174063	3
2	5174	1016.514871248523	2
2	5178	1017.32182411273	3
2	5179	1017.441836228142	2
2	5183	1017.962330830842	3
2	5184	1018.258928732494	2
2	5188	1018.588316981117	3
2	5189	1019.119386562625	2
2	5192	1020.228836388061	1
2	5196	1020.850853133168	2
2	5197	1021.242972866459	1
2	5200	1022.311446072081	0
2	5204	1022.728884059686	1
2	5205	1023.42477542424	0
2	5209	1023.684470727999	1
2	5211	1023.686832382297	2
2	5212	1024.414447349602	1
2	5215	1025.477217972478	0
2	5219	1025.811767273716	1
2	5221	1025.882247726234	2
2	5223	1026.061080017267	3
2	5225	1026.396225387485	4
2	5227	1026.547632876144	5
2	5228	1026.603946448224	4
2	5231	1027.463589323977	3
2	5235	1027.546401980753	4
2	5236	1028.301557341604	3
2	5240	1028.841452004641	4
2	5241	1029.155366424391	3
2	5245	1029.548833249238	4
2	5246	1030.246101981601	3
2	5250	1031.101815873919	4
2	5252	1031.16404584591	5
2	5253	1031.288624005964	4
2	5257	1031.63045632788	5
2	5259	1031.81184821413	6
2	5260	1032.257165928664	5
2	5264	1033.035642302366	6
2	5265	1033.302406635987	5
2	5269	1033.497170873077	6
2	5270	1034.223214227906	5
2	5276	1035.024534805893	6
2	5278	1035.332961538447	7
2	5279	1035.388407601616	6
2	5283	1035.62770251749	7
2	5285	1036.238501132938	8
2	5286	1036.292658563624	7
2	5290	1036.833187568462	8
2	5291	1037.109629790871	7
2	5294	1038.106659100777	6
2	5299	1039.118408977161	5
2	5303	1039.18384793503	6
2	5305	1039.611858906558	7
2	5306	1040.052962266388	6
2	5309	1040.931921532764	5
2	5313	1041.114715483774	6
2	5314	1041.739033200233	5
2	5318	1041.741070420701	6
2	5319	1042.919544967091	5
2	5323	1043.496410896577	6
2	5324	1043.761811010367	5
2	5328	1044.602009117263	6
2	5329	1044.747184002227	5
2	5333	1044.852272406757	6
2	5335	1045.686134175688	7
2	5337	1045.700548932958	8
2	5339	1045.730885750092	9
2	5340	1045.749100067294	8
2	5343	1046.551282561119	7
2	5347	1046.780817689273	8
2	5348	1047.358869327153	7
2	5352	1047.515008632035	8
2	5353	1048.476400317917	7
2	5357	1048.506031584386	8
2	5359	1048.560838081674	9
2	5361	1048.935261589669	10
2	5362	1049.460358300353	9
2	5366	1050.041513082756	10
2	5368	1050.298418067381	11
2	5369	1050.498247395469	10
2	5373	1050.878917878733	11
2	5375	1051.155854241069	12
2	5376	1051.360794003135	11
2	5379	1052.5311321634	10
2	5382	1053.656229327446	9
2	5386	1054.083432362372	10
2	5387	1054.498651132932	9
2	5392	1055.40462922092	8
2	5396	1055.598190754886	9
2	5397	1056.584051682534	8
2	5400	1057.415130606866	7
2	5404	1057.999716607364	8
2	5406	1058.032295506112	9
2	5407	1058.376033546975	8
2	5410	1059.239159474814	7
2	5414	1059.474745707892	8
2	5415	1060.256360684441	7
2	5418	1061.112238749409	6
2	5421	1062.077877420386	5
2	5425	1062.82350937449	6
2	5426	1063.25828494347	5
2	5430	1064.051567124433	6
2	5431	1064.106986210228	5
2	5435	1064.306893704851	6
2	5437	1064.339939211903	7
2	5439	1064.721708488498	8
2	5440	1064.996458002471	7
2	5444	1065.740209456584	8
2	5445	1065.865586484608	7
2	5450	1067.053893695877	6
2	5454	1067.411136449618	7
2	5456	1068.124242862891	8
2	5457	1068.234472221614	7
2	5461	1068.858003756312	8
2	5462	1069.173312805233	7
2	5465	1070.085579866835	6
2	5469	1070.467318999943	7
2	5470	1070.905046095618	6
2	5474	1070.916866186201	7
2	5475	1071.81339735539	6
2	5479	1071.97414250529	7
2	5481	1072.476357815453	8
2	5482	1073.004971949768	7
2	5486	1073.075480792438	8
2	5488	1073.601925200281	9
2	5490	1073.765361364687	10
2	5491	1074.012655225687	9
2	5495	1074.641821910605	10
2	5496	1074.942859805573	9
2	5499	1075.89117474166	8
2	5502	1076.916128010594	7
2	5506	1077.075030678471	8
2	5507	1077.896295429499	7
2	5511	1078.392093572231	8
2	5513	1078.835323565388	9
2	5515	1078.916990625289	10
2	5516	1078.930941836362	9
2	5519	1080.1207719884	8
2	5522	1080.953201551095	7
2	5525	1082.152575254079	6
2	5529	1082.430912944917	7
2	5530	1083.226055601995	6
2	5533	1084.171561953157	5
2	5537	1084.553485941204	6
2	5538	1085.157483373221	5
2	5542	1085.771672399624	6
2	5544	1086.042628249661	7
2	5545	1086.164201230753	6
2	5549	1086.787071602203	7
2	5550	1087.337830988701	6
2	5554	1087.369679550128	7
2	5556	1088.343076474073	8
2	5557	1088.409886836364	7
2	5561	1088.561134083884	8
2	5562	1089.25216851431	7
2	5566	1090.045519073686	8
2	5569	1090.198125373396	7
2	5572	1091.020026639952	6
2	5575	1091.969159837263	5
2	5578	1092.874590585577	4
2	5582	1093.211177365435	5
2	5583	1094.031615307937	4
2	5586	1095.03469302441	3
2	5590	1096.072529720141	4
2	5591	1096.152185907783	3
2	5597	1096.685254994593	4
2	5599	1097.080413058875	5
2	5600	1097.123865088457	4
2	5604	1097.516780687719	5
2	5605	1098.11817064696	4
2	5608	1099.145094649782	3
2	5612	1099.19227997565	4
2	5613	1100.15577089806	3
2	5617	1100.660534035987	4
2	5618	1101.194830809728	3
2	5622	1101.195768626315	4
2	5623	1102.219530588862	3
2	5627	1102.525620384781	4
2	5629	1102.889616678582	5
2	5630	1103.066752529618	4
2	5635	1104.25869245232	3
2	5639	1104.275549185237	4
2	5641	1104.922811173326	5
2	5642	1105.235243780268	4
2	5646	1106.166486345257	5
2	5648	1106.187271680454	6
2	5649	1106.228805200578	5
2	5653	1106.531166772601	6
2	5654	1107.208660111958	5
2	5657	1108.056298267664	4
2	5661	1108.139354715266	5
2	5662	1109.034165792362	4
2	5666	1109.992836363274	5
2	5667	1110.124513669414	4
2	5671	1110.657816317519	5
2	5672	1111.087053341986	4
2	5675	1112.003051062589	3
2	5680	1113.041370364008	2
2	5683	1114.113782776808	1
2	5686	1115.152711214134	0
2	5690	1115.586816986682	1
2	5692	1115.79513434939	2
2	5693	1116.234610406877	1
2	5697	1116.835408027648	2
2	5699	1116.896328282535	3
2	5700	1117.382238475242	2
2	5704	1117.693052217869	3
2	5705	1118.423437433047	2
2	5709	1118.725015091945	3
2	5710	1119.526246755579	2
2	5713	1120.359678169349	1
2	5717	1120.47226359626	2
2	5718	1121.202124649109	1
2	5722	1121.932274007802	2
2	5724	1121.986345405791	3
2	5726	1122.159125915416	4
2	5727	1122.176287837615	3
2	5731	1122.199809408325	4
2	5733	1122.961297888773	5
2	5734	1123.19164305293	4
2	5738	1123.892631007964	5
2	5739	1124.189159179395	4
2	5743	1124.231243857901	5
2	5744	1125.348393146796	4
2	5748	1126.372331510784	5
2	5749	1126.509287609821	4
2	5753	1127.210228396403	5
2	5754	1127.313452317854	4
2	5758	1128.047130267446	5
2	5759	1128.29503693954	4
2	5763	1128.954629917282	5
2	5765	1129.049240847096	6
2	5766	1129.169097573784	5
2	5770	1129.922500105857	6
2	5771	1130.199514657733	5
2	5774	1131.184329469603	4
2	5778	1131.606780006701	5
2	5780	1132.169653398798	6
2	5781	1132.330186494541	5
2	5784	1133.183157516931	4
2	5788	1133.672288121894	5
2	5790	1134.213896674245	6
2	5792	1134.243057159623	7
2	5793	1134.277333384574	6
2	5797	1134.717212285288	7
2	5799	1134.750307271544	8
2	5800	1135.285609385193	7
2	5804	1135.603506310234	8
2	5806	1135.914066219449	9
2	5807	1136.120067149874	8
2	5811	1136.757808307002	9
2	5812	1137.051464192949	8
2	5816	1138.071470659559	9
2	5817	1138.211279645569	8
2	5821	1138.365604200023	9
2	5822	1139.213763054001	8
2	5826	1139.25776981837	9
2	5828	1139.461916594698	10
2	5829	1140.174151194475	9
2	5832	1141.101334972686	8
2	5836	1141.324633919658	9
2	5838	1141.687434822692	10
2	5840	1141.934073816568	11
2	5841	1141.992667532905	10
2	5845	1142.635396302232	11
2	5849	1142.787453907745	12
2	5850	1143.053032539326	11
2	5854	1143.286777467617	12
2	5856	1143.324651240014	13
2	5857	1143.948456165388	12
2	5861	1144.445849881043	13
2	5862	1144.93543634611	12
2	5865	1145.744984671667	11
2	5868	1146.580437913637	10
2	5872	1146.760222780051	11
2	5874	1146.837371638974	12
2	5876	1146.999525115964	13
2	5878	1147.388962857398	14
2	5879	1147.70304457667	13
2	5882	1148.643167549006	12
2	5886	1149.234038372928	13
2	5888	1149.796150248886	14
2	5889	1149.819626838628	13
2	5893	1150.655028753526	14
2	5894	1150.981348943345	13
2	5898	1151.037900411406	14
2	5900	1151.895256051052	15
2	5901	1151.950623387012	14
2	5904	1153.077653913393	13
2	5908	1153.129207391387	14
2	5909	1154.158524532064	13
2	5913	1154.350204320536	14
2	5914	1155.286520890712	13
2	5917	1156.432971621963	12
2	5921	1156.50020148047	13
2	5922	1157.363281321346	12
2	5925	1158.364382553573	11
2	5928	1159.466407174996	10
2	5932	1159.532250656413	11
2	5934	1159.714654818412	12
2	5936	1160.389315216999	13
2	5937	1160.437980546064	12
2	5941	1160.454804179407	13
2	5944	1161.573058333068	12
2	5948	1161.623720933082	13
2	5951	1162.562763082242	12
2	5955	1162.929537551364	13
2	5956	1163.713030927727	12
2	5959	1164.519918877358	11
2	5963	1165.200912586724	12
2	5964	1165.539885320241	11
2	5967	1166.480622220138	10
2	5971	1167.445593064968	11
2	5972	1167.538934418192	10
2	5976	1167.708331356961	11
2	5977	1168.429730052227	10
2	5982	1169.4931182636	9
2	5985	1170.298663663404	8
2	5989	1171.254189679406	9
2	5990	1171.43011046751	8
2	5994	1172.235194708924	9
2	5995	1172.288126404216	8
2	5999	1172.843186329026	9
2	6001	1173.053758996358	10
2	6003	1173.263044837096	11
2	6005	1173.35814478719	12
2	6006	1173.464844797091	11
2	6010	1173.846921165618	12
2	6012	1174.28598981294	13
2	6013	1174.537362687295	12
2	6017	1174.750935700762	13
2	6018	1175.504360108269	12
2	6021	1176.498804919241	11
2	6025	1176.719861094476	12
2	6026	1177.455973620253	11
2	6029	1178.56772010001	10
2	6033	1178.592939274344	11
2	6035	1178.987278136358	12
2	6036	1179.509410816809	11
2	6040	1179.736631542425	12
2	6042	1180.582857053699	13
2	6043	1180.627239451935	12
2	6047	1181.271123029714	13
2	6048	1181.729713482415	12
2	6051	1182.857311552582	11
2	6055	1183.147906541551	12
2	6056	1183.931308866204	11
2	6059	1185.078513824945	10
2	6063	1185.219697022455	11
2	6065	1185.332250508032	12
2	6066	1186.220839523995	11
2	6069	1187.199665422836	10
2	6073	1188.002697244592	11
2	6075	1188.010060111547	12
2	6076	1188.226821779092	11
2	6080	1188.930482791318	12
2	6081	1189.355898785968	11
2	6085	1189.765167003304	12
2	6086	1190.252939910912	11
2	6090	1190.863232734056	12
2	6092	1191.299973964855	13
2	6093	1191.399663876374	12
2	6097	1191.405750164267	13
2	6099	1191.851479709091	14
2	6100	1192.471515763276	13
2	6103	1193.638999609188	12
2	6107	1193.890062395307	13
2	6109	1194.011143384438	14
2	6110	1194.480501577635	13
2	6114	1194.799319090285	14
2	6115	1195.514577581552	13
2	6118	1196.341214814508	12
2	6122	1196.690454995709	13
2	6123	1197.356511566793	12
2	6126	1198.507438204722	11
2	6129	1199.461457040352	10
2	6133	1199.501918761263	11
2	6134	1200.421231911336	10
2	6137	1201.25533647696	9
2	6141	1202.100066763125	10
2	6142	1202.155914533143	9
2	6146	1202.446643321462	10
2	6148	1202.789441557689	11
2	6150	1202.833094167392	12
2	6151	1203.349133306374	11
2	6155	1203.967575575766	12
2	6156	1204.191699139592	11
2	6160	1204.228719815215	12
2	6162	1204.929802550153	13
2	6163	1205.017744079237	12
2	6166	1205.992316224431	11
2	6170	1206.480972382277	12
2	6171	1207.025346796499	11
2	6174	1208.112890683865	10
2	6177	1209.266554757027	9
2	6180	1210.346308346191	8
2	6184	1210.526786821838	9
2	6186	1210.940528116482	10
2	6187	1211.248200744954	9
2	6190	1212.185734445793	8
2	6194	1212.92952307103	9
2	6195	1213.071310995804	8
2	6198	1213.899179555854	7
2	6201	1214.935404611385	6
2	6204	1215.835135570361	5
2	6208	1216.020797073795	6
2	6209	1216.754185396625	5
2	6213	1216.844461020708	6
2	6215	1216.884991480557	7
2	6217	1217.462157677257	8
2	6218	1217.792679656489	7
2	6222	1217.886783482763	8
2	6224	1218.10408438983	9
2	6225	1218.695606592583	8
2	6229	1219.653741778036	9
2	6231	1219.677778979939	10
2	6232	1219.825640051352	9
2	6236	1220.468845626706	10
2	6237	1220.887430435425	9
2	6241	1221.809414600191	10
2	6243	1221.978304250191	11
2	6244	1221.99981354606	10
2	6248	1222.714675774915	11
2	6249	1222.851042767248	10
2	6253	1223.20855168746	11
2	6254	1223.8170919695	10
2	6257	1224.67006649627	9
2	6260	1225.547324582754	8
2	6263	1226.405723477627	7
2	6267	1226.809510408577	8
2	6269	1226.949353045256	9
2	6270	1227.575034370652	8
2	6274	1228.384197994078	9
2	6275	1228.604716284859	8
2	6278	1229.635771929945	7
2	6281	1230.76548433053	6
2	6285	1231.482751821	7
2	6286	1231.849200422975	6
2	6290	1232.129786053196	7
2	6292	1232.523598807266	8
2	6294	1232.652254929342	9
2	6295	1233.009271967045	8
2	6299	1233.395449906726	9
2	6300	1233.854279056291	8
2	6304	1234.274620749716	9
2	6306	1234.31336296818	10
2	6307	1235.052115017275	9
2	6310	1236.041044138564	8
2	6314	1236.093210680587	9
2	6316	1236.955188183969	10
2	6317	1237.158644050179	9
2	6321	1237.163654759667	10
2	6322	1238.174173953576	9
2	6326	1239.187912334355	10
2	6327	1239.27565774825	9
2	6331	1240.115053162605	10
2	6332	1240.191035931935	9
2	6335	1241.256586570577	8
2	6338	1242.430977868666	7
2	6341	1243.233518804801	6
2	6344	1244.310567832836	5
2	6347	1245.350223567155	4
2	6351	1245.45821261203	5
2	6353	1246.346334941047	6
2	6354	1246.516920985845	5
2	6358	1246.947773110353	6
2	6360	1247.288049200859	7
2	6361	1247.636491072835	6
2	6365	1248.013750184215	7
2	6366	1248.475645967578	6
2	6370	1249.225773649392	7
2	6371	1249.507791034789	6
2	6375	1250.393944293332	7
2	6377	1250.405412860898	8
2	6379	1250.599265981856	9
2	6380	1250.684366462943	8
2	6383	1251.569576386553	7
2	6387	1252.47689463725	8
2	6388	1252.556988681298	7
2	6392	1252.827505934775	8
2	6394	1253.03841713804	9
2	6395	1253.493841993347	8
2	6399	1253.517836339801	9
2	6400	1254.427041933689	8
2	6404	1254.727347064199	9
2	6405	1255.515399634842	8
2	6409	1255.526395450773	9
2	6410	1256.541050870907	8
2	6414	1256.696632431798	9
2	6415	1257.61341162045	8
2	6419	1257.825709269157	9
2	6420	1258.628608654723	8
2	6423	1259.63785615033	7
2	6428	1260.469521061429	6
2	6431	1261.578912848798	5
2	6435	1262.344065080263	6
2	6436	1262.46170118908	5
2	6440	1263.065342312043	6
2	6441	1263.42605286893	5
2	6445	1263.837377306509	6
2	6447	1264.001669891785	7
2	6448	1264.320644328562	6
2	6451	1265.224723371403	5
2	6454	1266.207867174135	4
2	6458	1266.384805394288	5
2	6460	1266.537669999232	6
2	6461	1267.263478833815	5
2	6464	1268.147784235148	4
2	6468	1269.063979418092	5
2	6470	1269.236631706739	6
2	6471	1269.305539116269	5
2	6474	1270.174490089534	4
2	6478	1270.901277857594	5
2	6479	1271.137920814945	4
2	6483	1271.214805555821	5
2	6484	1272.056970900117	4
2	6488	1272.269840552667	5
2	6490	1272.452976605876	6
2	6491	1272.960918272386	5
2	6495	1273.290781139592	6
2	6496	1273.973954572721	5
2	6499	1274.806706099405	4
2	6502	1275.656863602351	3
2	6505	1276.641944338481	2
2	6509	1277.551816175395	3
2	6510	1277.650948155305	2
2	6513	1278.514471783588	1
2	6517	1278.730264629039	2
2	6519	1279.601439743665	3
2	6520	1279.659658315039	2
2	6524	1280.37206528513	3
2	6525	1280.669836333493	2
2	6528	1281.682278165227	1
2	6532	1282.252686701632	2
2	6534	1282.497956408634	3
2	6535	1282.806921095127	2
2	6539	1283.072105446319	3
2	6540	1283.844288318144	2
2	6543	1284.707024925487	1
2	6546	1285.584451471554	0
2	6550	1285.889905804251	1
2	6552	1286.051154796263	2
2	6554	1286.492365948888	3
2	6556	1286.588082151072	4
2	6557	1286.668101573555	3
2	6561	1286.89187012112	4
2	6563	1286.911267357913	5
2	6564	1287.838644578127	4
2	6568	1288.402794872643	5
2	6569	1288.865655961638	4
2	6574	1289.772542579105	3
2	6577	1290.621895814134	2
2	6580	1291.670186499605	1
2	6584	1291.748161067612	2
2	6585	1292.520951315394	1
2	6589	1292.827803158856	2
2	6590	1293.670956133498	1
2	6594	1294.011543189269	2
2	6595	1294.475214927277	1
2	6599	1294.542933485867	2
2	6600	1295.312135516113	1
2	6604	1295.500721178151	2
2	6605	1296.507046813617	1
2	6608	1297.334360317613	0
2	6612	1297.510913097792	1
2	6613	1298.379608270812	0
2	6625	1301.351568236241	1
2	6626	1301.509352725192	0
2	6638	1304.487974899016	1
2	6640	1304.734709850487	2
2	6641	1304.842512212048	1
2	6645	1304.854175813548	2
2	6647	1305.6985975361	3
2	6648	1305.906792004971	2
2	6653	1306.747968602186	1
2	6658	1307.75974520343	0
2	6667	1309.423540517855	1
2	6668	1309.665830670862	0
2	6672	1310.14796114245	1
2	6675	1310.743925074028	0
2	6679	1310.876645956945	1
2	6680	1311.58857585481	0
2	6692	1313.537803762437	1
2	6694	1313.570339749935	2
2	6696	1314.097975475664	3
2	6697	1314.356435116107	2
2	6705	1315.055399746252	3
2	6707	1315.187919536975	4
2	6710	1315.468899449712	3
2	6714	1316.270869045558	4
2	6716	1316.35053730505	5
2	6717	1316.647984570271	4
2	6721	1316.803028134813	5
2	6722	1317.536308898504	4
2	6726	1318.02657902393	5
2	6727	1318.656713294338	4
2	6730	1319.564310910187	3
2	6733	1320.433961247008	2
2	6736	1321.509223331332	1
2	6740	1321.632236548168	2
2	6742	1321.830385926594	3
2	6744	1322.017751104238	4
2	6746	1322.141367103161	5
2	6747	1322.645156754095	4
2	6750	1323.454019449007	3
2	6753	1324.351723798	2
2	6758	1325.509219018378	1
2	6761	1326.608283826531	0
2	6765	1327.063960207098	1
2	6766	1327.805590826468	0
2	6770	1328.051021824288	1
2	6772	1328.245380690333	2
2	6773	1328.909971945835	1
2	6777	1329.128251573416	2
2	6780	1329.79987189305	1
2	6784	1330.116907631362	2
2	6787	1330.689421482393	1
2	6791	1331.174785414203	2
2	6793	1331.39114447055	3
2	6794	1331.770929589224	2
2	6798	1332.200379638903	3
2	6799	1332.66242763997	2
2	6803	1332.908039228354	3
2	6805	1333.403365363664	4
2	6808	1333.714082014942	3
2	6811	1334.742858463721	2
2	6815	1335.484019635663	3
2	6816	1335.569557207552	2
2	6819	1336.729251238247	1
2	6823	1336.933191701125	2
2	6825	1336.956414735095	3
2	6826	1337.872510456955	2
2	6829	1338.963912023054	1
2	6833	1339.813731610157	2
2	6834	1340.114299930641	1
2	6838	1340.48393696176	2
2	6840	1340.706447719412	3
2	6841	1341.314004909349	2
2	6845	1341.357118045099	3
2	6847	1341.757265475967	4
2	6848	1342.312565492475	3
2	6852	1342.33559230272	4
2	6854	1342.625141206827	5
2	6855	1343.278707386655	4
2	6858	1344.18129655077	3
2	6861	1344.98168689926	2
2	6865	1345.122403673552	3
2	6867	1345.519403068244	4
2	6869	1345.94250469748	5
2	6871	1345.976404866021	6
2	6872	1346.119650668752	5
2	6875	1347.155535454032	4
2	6879	1347.273025343287	5
2	6880	1348.05121622282	4
2	6883	1349.141969899097	3
2	6887	1349.471104436921	4
2	6888	1350.208550332309	3
2	6892	1350.44550791059	4
2	6894	1350.531072230406	5
2	6895	1351.190978994322	4
2	6899	1351.658039105348	5
2	6900	1352.213154846904	4
2	6904	1352.871344755889	5
2	6906	1353.057436942302	6
2	6907	1353.386300651831	5
2	6910	1354.477292927736	4
2	6914	1354.794370378272	5
2	6915	1355.392919145068	4
2	6919	1355.862647589052	5
2	6920	1356.50730844141	4
2	6924	1357.247160920547	5
2	6926	1357.421307750215	6
2	6927	1357.436305142483	5
2	6931	1357.680855979863	6
2	6934	1358.514053229532	5
2	6938	1358.531830538167	6
2	6939	1359.619371453031	5
2	6943	1359.673275969691	6
2	6944	1360.728309346373	5
2	6948	1361.266940405965	6
2	6949	1361.827058041013	5
2	6953	1362.005018732851	6
2	6954	1362.797662277623	5
2	6958	1363.365431814956	6
2	6959	1363.935117705735	5
2	6963	1364.45090323206	6
2	6964	1364.88822810744	5
2	6967	1365.775858488037	4
2	6971	1366.346111213077	5
2	6972	1366.624042565386	4
2	6975	1367.775965949345	3
2	6978	1368.688516926124	2
2	6982	1369.650473140127	3
2	6983	1369.758920991152	2
2	6987	1369.819494177933	3
2	6989	1370.028051809523	4
2	6990	1370.668838671978	3
2	6994	1370.700034088667	4
2	6996	1370.87034868052	5
2	6998	1371.124626185597	6
2	6999	1371.644681652273	5
2	7003	1371.695665380523	6
2	7005	1372.530819935489	7
2	7006	1372.679041259094	6
2	7010	1373.043106144238	7
2	7011	1373.69388432392	6
2	7015	1373.829091396622	7
2	7017	1374.49425102948	8
2	7018	1374.763463075283	7
2	7022	1375.317943677664	8
2	7023	1375.613786109547	7
2	7027	1375.924298354502	8
2	7028	1376.78354940909	7
2	7031	1377.72318048059	6
2	7035	1378.345853921824	7
2	7036	1378.881050761146	6
2	7040	1379.131183553942	7
2	7041	1379.744216910386	6
2	7045	1380.11749913966	7
2	7047	1380.253023390858	8
2	7048	1380.919997904552	7
2	7052	1380.963260951672	8
2	7056	1381.208600147259	9
2	7057	1382.065484191766	8
2	7060	1382.915006036414	7
2	7064	1383.497384862727	8
2	7067	1384.055640679421	7
2	7072	1384.955073222062	6
2	7076	1385.524606463895	7
2	7077	1386.110307505737	6
2	7080	1387.256733555729	5
2	7084	1387.79149303306	6
2	7085	1388.117501011501	5
2	7089	1388.749726068522	6
2	7091	1388.927681327334	7
2	7092	1389.138933452229	6
2	7096	1389.411114828535	7
2	7098	1389.877460388196	8
2	7099	1390.264241675391	7
2	7103	1390.555410791066	8
2	7104	1391.342049343522	7
2	7107	1392.395485101651	6
2	7111	1393.121624310832	7
2	7112	1393.517561397899	6
2	7116	1393.78136391094	7
2	7118	1394.197775892732	8
2	7119	1394.594814749353	7
2	7122	1395.425781726662	6
2	7125	1396.504522207204	5
2	7129	1396.530132076586	6
2	7131	1397.032148620735	7
2	7132	1397.487236856028	6
2	7135	1398.677085750468	5
2	7138	1399.697317593183	4
2	7141	1400.552081187173	3
2	7145	1400.88119479826	4
2	7148	1401.629469574626	3
2	7151	1402.540130007743	2
2	7155	1402.744965951868	3
2	7156	1403.609676531526	2
2	7159	1404.490257388736	1
2	7163	1405.255285914243	2
2	7165	1405.488709529464	3
2	7166	1405.615229850552	2
2	7169	1406.637451236798	1
2	7172	1407.728491461566	0
2	7176	1408.274439965047	1
2	7177	1408.876805910664	0
2	7184	1409.924724236851	1
2	7186	1410.227206789351	2
2	7187	1410.613368144082	1
2	7191	1410.681587874511	2
2	7193	1411.04677191122	3
2	7195	1411.177877223114	4
2	7197	1411.642491686155	5
2	7198	1411.752301439094	4
2	7204	1412.355524389282	5
2	7206	1412.623765256079	6
2	7207	1412.696961945398	5
2	7211	1412.837996597927	6
2	7212	1413.56888146271	5
2	7215	1414.370202975823	4
2	7219	1415.24905682248	5
2	7220	1415.258905470474	4
2	7224	1415.958982461492	5
2	7225	1416.391519637974	4
2	7229	1416.533770881719	5
2	7231	1416.686144797196	6
2	7232	1417.395963525316	5
2	7236	1417.624220100483	6
2	7238	1417.638904973095	7
2	7239	1418.566875468763	6
2	7243	1419.297290176236	7
2	7245	1419.464528749047	8
2	7246	1419.713805234908	7
2	7250	1420.20609347273	8
2	7251	1420.883869929994	7
2	7254	1421.853197795442	6
2	7259	1423.052548564422	5
2	7263	1423.083984673067	6
2	7264	1423.948551951918	5
2	7267	1424.854881530638	4
2	7271	1424.899961110555	5
2	7272	1425.761363104928	4
2	7276	1426.26883034326	5
2	7278	1426.383853525806	6
2	7279	1426.585331863828	5
2	7282	1427.490977469191	4
2	7286	1427.655547549022	5
2	7287	1428.423002747923	4
2	7290	1429.237158407748	3
2	7294	1429.492745605213	4
2	7296	1430.092039952278	5
2	7297	1430.288984754414	4
2	7300	1431.262552541786	3
2	7303	1432.151633793314	2
2	7307	1432.23817349559	3
2	7309	1432.80627568847	4
2	7310	1433.199064560805	3
2	7314	1433.380831779393	4
2	7315	1434.261567054142	3
2	7318	1435.137611676206	2
2	7321	1436.259429498681	1
2	7325	1436.508873925249	2
2	7326	1437.426610767015	1
2	7329	1438.349719658226	0
2	7333	1438.686686143846	1
2	7335	1438.899433673692	2
2	7337	1439.243970664569	3
2	7338	1439.524151986011	2
2	7342	1440.271783659661	3
2	7343	1440.37651472037	2
2	7347	1440.985700716469	3
2	7349	1441.136771303786	4
2	7351	1441.171715394059	5
2	7352	1441.204309068167	4
2	7356	1441.553826896931	5
2	7358	1441.826547335262	6
2	7359	1442.319677513571	5
2	7362	1443.337702972175	4
2	7366	1443.547228727893	5
2	7368	1444.282739075827	6
2	7369	1444.375011159865	5
2	7373	1444.54501678333	6
2	7374	1445.390982505878	5
2	7378	1445.619247426251	6
2	7380	1445.845147917575	7
2	7381	1446.235753659637	6
2	7385	1446.536861553179	7
2	7387	1446.725583501317	8
2	7389	1446.862368593648	9
2	7391	1447.266956855056	10
2	7392	1447.386754956668	9
2	7396	1447.636379730544	10
2	7397	1448.317946632778	9
2	7401	1448.966905853317	10
2	7403	1449.039384898043	11
2	7404	1449.429836487969	10
2	7409	1450.57538633888	9
2	7413	1450.991751520883	10
2	7414	1451.6286155427	9
2	7417	1452.542881892075	8
2	7422	1453.736758316507	7
2	7426	1454.696629322384	8
2	7427	1454.751288011496	7
2	7430	1455.583926755016	6
2	7433	1456.703901667347	5
2	7437	1457.270151546335	6
2	7440	1457.68754942167	5
2	7444	1458.433431660386	6
2	7446	1458.51909431908	7
2	7447	1458.660450084893	6
2	7451	1459.034142116984	7
2	7455	1459.408830553594	8
2	7456	1459.722653468898	7
2	7462	1460.431444926178	8
2	7463	1460.750915560605	7
2	7466	1461.706977622597	6
2	7470	1462.274715336407	7
2	7472	1462.586534200281	8
2	7473	1462.635123979127	7
2	7477	1462.83998726279	8
2	7479	1463.432792731327	9
2	7480	1463.626579071594	8
2	7483	1464.654137417687	7
2	7486	1465.793028108137	6
2	7490	1465.953220652857	7
2	7491	1466.686118655572	6
2	7494	1467.760035463063	5
2	7498	1468.22194295461	6
2	7500	1468.389332898203	7
2	7501	1468.636108338101	6
2	7504	1469.683193365311	5
2	7508	1470.130983697186	6
2	7510	1470.374404174546	7
2	7512	1470.522771711044	8
2	7513	1470.740864266002	7
2	7517	1471.38459900382	8
2	7519	1471.417804360607	9
2	7520	1471.737436919579	8
2	7524	1472.667603436816	9
2	7526	1472.714077787887	10
2	7527	1472.917927001988	9
2	7531	1473.542473480736	10
2	7532	1473.895439478954	9
2	7536	1474.170330961403	10
2	7538	1475.010926290035	11
2	7539	1475.066098284734	10
2	7545	1475.413896394466	11
2	7547	1475.500123365323	12
2	7548	1475.983812984185	11
2	7552	1476.171067167312	12
2	7554	1476.320638646744	13
2	7555	1477.055403363345	12
2	7559	1477.203050045319	13
2	7560	1478.13681224381	12
2	7564	1479.155859014935	13
2	7565	1479.212274044206	12
2	7569	1479.555723147238	13
2	7570	1480.165444130929	12
2	7574	1480.639384101761	13
2	7575	1480.986580421602	12
2	7579	1481.40209596482	13
2	7580	1482.104725043395	12
2	7583	1483.10152030812	11
2	7587	1483.647222216864	12
2	7588	1484.260441597843	11
2	7593	1485.203953819548	10
2	7597	1485.496413781811	11
2	7599	1485.877751022321	12
2	7600	1486.020823481691	11
2	7604	1486.121324676831	12
2	7607	1487.023789446254	11
2	7611	1487.347428823726	12
2	7613	1487.428948267243	13
2	7614	1487.942135219008	12
2	7618	1489.083265100027	13
2	7619	1489.135935678903	12
2	7622	1490.027085569233	11
2	7626	1490.715674752481	12
2	7627	1491.046387008775	11
2	7631	1491.109421946582	12
2	7633	1492.039369110324	13
2	7634	1492.044486700755	12
2	7638	1492.22837953936	13
2	7640	1492.59055917792	14
2	7641	1493.026481340744	13
2	7645	1493.153409525017	14
2	7646	1494.155741155439	13
2	7649	1495.17384375186	12
2	7653	1495.296666302258	13
2	7655	1495.438980014346	14
2	7656	1496.009625783202	13
2	7660	1496.498232488208	14
2	7661	1497.000217805908	13
2	7664	1497.970095284016	12
2	7668	1498.592846085661	13
2	7669	1498.797105901794	12
2	7673	1499.101602043031	13
2	7674	1499.697566063435	12
2	7678	1499.806105005827	13
2	7679	1500.731332946488	12
2	7683	1501.660359374161	13
2	7684	1501.760982316372	12
2	7687	1502.595899243851	11
2	7691	1502.625801368325	12
2	7692	1503.72654713468	11
2	7696	1504.210751929875	12
2	7697	1504.693950795208	11
2	7700	1505.552225754701	10
2	7704	1506.341281945265	11
2	7705	1506.384482106019	10
2	7708	1507.201992755395	9
2	7712	1507.479766703244	10
2	7713	1508.188583463815	9
2	7717	1508.257194815717	10
2	7718	1509.050061338686	9
2	7722	1509.289937766168	10
2	7724	1509.634279327742	11
2	7725	1510.121678282518	10
2	7729	1510.415019931615	11
2	7731	1510.641506478989	12
2	7735	1510.800986254635	13
2	7736	1511.033603158418	12
2	7739	1511.924178098991	11
2	7743	1511.977423763737	12
2	7745	1512.723912277962	13
2	7746	1513.05189978528	12
2	7750	1513.247146075431	13
2	7752	1513.789845463247	14
2	7753	1513.893996072944	13
2	7757	1514.146774928895	14
2	7759	1514.507234261886	15
2	7760	1514.768174099095	14
2	7764	1515.185085892134	15
2	7765	1515.847249840025	14
2	7769	1516.011393364975	15
2	7770	1516.740592997439	14
2	7773	1517.543441868864	13
2	7776	1518.461275614437	12
2	7780	1518.554819014189	13
2	7781	1519.405813713756	12
2	7785	1520.04536928217	13
2	7786	1520.445312519849	12
2	7790	1520.935687720405	13
2	7791	1521.568295884051	12
2	7795	1521.68528644461	13
2	7797	1522.171337653059	14
2	7798	1522.370195653208	13
2	7802	1522.374704527626	14
2	7804	1522.554366544949	15
2	7805	1523.189277574152	14
2	7809	1523.676689331247	15
2	7810	1524.341206978739	14
2	7813	1525.371134463523	13
2	7817	1525.46358710588	14
2	7819	1525.638685057546	15
2	7820	1526.299217042339	14
2	7824	1526.474717401697	15
2	7825	1527.158642619115	14
2	7829	1527.499070510662	15
2	7831	1527.700573081328	16
2	7832	1528.206403267116	15
2	7836	1529.213780879419	16
2	7837	1529.228719510429	15
2	7840	1530.20375227147	14
2	7843	1531.008648776554	13
2	7847	1531.261440976056	14
2	7849	1531.300027977048	15
2	7850	1532.099063335371	14
2	7854	1532.22966123257	15
2	7855	1533.269313870196	14
2	7859	1534.201245187168	15
2	7860	1534.422142903519	14
2	7864	1534.802742524049	15
2	7867	1535.309701631603	14
2	7871	1535.334501507386	15
2	7873	1535.566546382015	16
2	7874	1536.134211724543	15
2	7878	1536.294201374152	16
2	7881	1537.078504785535	15
2	7884	1538.202303968475	14
2	7888	1538.280573980808	15
2	7890	1538.284391194223	16
2	7891	1539.039358471253	15
2	7895	1540.09087741077	16
2	7896	1540.106217332476	15
2	7902	1540.224509674442	16
2	7904	1540.387459496343	17
2	7905	1541.214171323658	16
2	7908	1542.25165468558	15
2	7912	1542.47240389203	16
2	7914	1542.813553628861	17
2	7915	1543.081563727663	16
2	7918	1543.993570033752	15
2	7921	1544.906117034622	14
2	7925	1544.94575467252	15
2	7926	1545.785493581288	14
2	7930	1545.892464985757	15
2	7932	1546.319995343533	16
2	7934	1546.434759691674	17
2	7935	1546.680454707716	16
2	7939	1546.886699306305	17
2	7942	1547.868077173282	16
2	7946	1548.322574162117	17
2	7947	1548.850960870192	16
2	7951	1549.037012172766	17
2	7952	1549.77817233206	16
2	7958	1550.789997319325	17
2	7959	1550.846284334187	16
2	7962	1551.929991235316	15
2	7966	1552.529448225039	16
2	7968	1552.78909003831	17
2	7969	1553.059017367859	16
2	7973	1554.048898326726	17
2	7974	1554.207626302273	16
2	7977	1555.145852808666	15
2	7981	1555.225661262467	16
2	7982	1555.959110177879	15
2	7986	1556.654549198977	16
2	7988	1556.665320282122	17
2	7990	1556.773718349863	18
2	7991	1557.10306399354	17
2	7995	1557.905301064411	18
2	7996	1558.10988709192	17
2	8000	1558.125988827075	18
2	8001	1558.946495062683	17
2	8005	1559.177605995422	18
2	8006	1559.833838428196	17
2	8010	1560.18394468373	18
2	8011	1560.951545239345	17
2	8015	1560.968319104253	18
2	8016	1562.046909578902	17
2	8020	1562.471244590628	18
2	8021	1563.01608061177	17
2	8025	1563.973361931259	18
2	8026	1564.121351102379	17
2	8030	1564.287979404863	18
2	8031	1565.147292058461	17
2	8034	1565.978901713353	16
2	8040	1566.302314832535	17
2	8041	1566.948329261423	16
2	8045	1567.565400594416	17
2	8046	1567.784224144288	16
2	8049	1568.612490101357	15
2	8052	1569.4305669509	14
2	8056	1569.477771835102	15
2	8058	1569.798062640245	16
2	8059	1570.575776598988	15
2	8062	1571.743934794621	14
2	8066	1572.075960733223	15
2	8068	1572.60291877392	16
2	8069	1572.743590029528	15
2	8073	1572.966160018498	16
2	8075	1573.433787495358	17
2	8076	1573.886370002491	16
2	8079	1575.047673882091	15
2	8082	1576.222182252736	14
2	8086	1576.985660428371	15
2	8087	1577.024216165406	14
2	8091	1577.05784572264	15
2	8093	1577.616169554351	16
2	8094	1578.084523380467	15
2	8098	1578.456966179257	16
2	8102	1578.7645481506	17
2	8103	1578.919870934089	16
2	8107	1579.114579482234	17
2	8109	1579.781161660734	18
2	8111	1579.805072224062	19
2	8112	1580.041893996404	18
2	8116	1580.547256880562	19
2	8117	1581.127399157559	18
2	8120	1582.020242226043	17
2	8124	1582.276079312751	18
2	8125	1582.990039613762	17
2	8129	1583.171620190454	18
2	8130	1584.10389366831	17
2	8134	1584.861625013176	18
2	8135	1585.14379318572	17
2	8139	1585.450388746392	18
2	8140	1585.98036276569	17
2	8145	1587.044472762024	16
2	8149	1587.73989801969	17
2	8151	1588.101706706968	18
2	8152	1588.22474150929	17
2	8156	1588.693911875366	18
2	8158	1588.701633103997	19
2	8159	1589.105676432525	18
2	8162	1589.954018717458	17
2	8165	1590.916620505334	16
2	8168	1591.807055138157	15
2	8172	1591.812850153232	16
2	8174	1592.002161498168	17
2	8175	1592.873073806812	16
2	8179	1593.429833149798	17
2	8180	1593.855086735182	16
2	8184	1594.568267501598	17
2	8185	1594.815550692671	16
2	8188	1595.997367326462	15
2	8192	1596.455483332404	16
2	8193	1596.843702141115	15
2	8199	1597.189579440779	16
2	8200	1597.968544160867	15
2	8204	1598.306046032691	16
2	8205	1598.995366569342	15
2	8208	1599.970445297485	14
2	8211	1601.089041346045	13
2	8215	1601.3793723471	14
2	8217	1601.502955598428	15
2	8218	1601.945778698208	14
2	8221	1602.792851964118	13
2	8225	1603.336529149809	14
2	8227	1603.345403644021	15
2	8229	1603.53750449622	16
2	8230	1603.91109206268	15
2	8233	1604.911558142783	14
2	8237	1605.008778944252	15
2	8239	1606.029584616516	16
2	8240	1606.045343326138	15
2	8243	1607.090778933851	14
2	8246	1608.120423234547	13
2	8250	1608.585595971163	14
2	8252	1609.114982371095	15
2	8253	1609.247420892133	14
2	8257	1609.301395816348	15
2	8258	1610.38932775605	14
2	8262	1610.675490333939	15
2	8264	1611.264441115736	16
2	8265	1611.493924915525	15
2	8269	1611.619753054941	16
[...]
5	133264	25636.459542907708	3699.3714926123
5	133276	25638.356879556764	7623.7697344673
5	133322	25646.724826016955	3272.71869185
5	133355	25655.66441399383	1455.6961854925
5	133409	25667.963337089426	4998.5263318398
5	133454	25677.197320340691	4158.7380223931
5	133476	25681.222575807874	2396.9253553579
5	133549	25695.150573790191	5410.0496930822
5	133710	25724.008770970466	4166.4703021454
5	133717	25725.187736778917	513.88943119965
5	133783	25736.680094411807	6953.8520264041
5	133914	25763.841710493735	1941.7864389335
5	133921	25764.653621011156	2852.6765537912
5	133936	25767.579013043291	14874.806970994
5	133961	25772.414696507271	5822.0408780924
5	134086	25793.15794025578	3725.5205389145
5	134175	25814.348687871476	2862.7927382232
5	134201	25818.177718924195	1011.7900930131
5	134241	25826.468535831219	1493.1637554083
5	134292	25837.46677033894	515.42691297668
5	134319	25842.472213057636	5036.0666138687
5	134348	25847.705060591011	7336.7588522902
5	134393	25854.623904648351	1961.9151589939
5	134398	25855.74648317259	3743.0141782771
5	134491	25875.778354560138	2426.3350215793
5	134508	25878.359961149303	512.83082342424
5	134513	25879.531643318312	1021.2882678288
5	134523	25881.540927968474	1020.3711561091
5	134542	25886.805744344389	1964.5403630608
5	134554	25888.976279654375	4178.7671912728
5	134601	25897.752425830366	5861.9991955763
5	134649	25905.886473213809	8065.5338280265
5	134652	25906.756207818466	2870.1495577215
5	134843	25938.672841170268	1499.4251264475
5	134862	25941.401874602982	4175.0889494775
5	134887	25946.381734092743	3318.7820893764
5	134931	25954.003924630791	2415.6873161484
5	134944	25957.327466831285	1012.0262612518
5	134952	25959.090384751394	2874.6029634361
5	134958	25960.901445155054	517.81769711879
5	134986	25967.29044225693	2416.9945117326
5	134996	25969.039889274931	1500.280208055
5	135006	25970.832088137439	2420.1250110404
5	135203	26008.712993835588	1511.5139829703
5	135210	26009.707270528586	4655.876898015
5	135261	26020.787694784371	1973.5445506609
5	135362	26040.877760058943	9806.1439844592
5	135369	26042.028810138836	4661.8869257228
5	135404	26048.342476132627	3776.4970851057
5	135431	26054.632709841173	1000.6421268262
5	135469	26060.755084204977	1971.5042505152
5	135490	26063.654413878196	11667.363795104
5	135493	26064.48259351051	6687.9901147993
5	135501	26066.312194669271	995.53308833945
5	135559	26075.811116482994	5100.8949934238
5	135588	26081.164227044886	517.38930486391
5	135598	26083.011006240291	518.55598166621
5	135609	26085.966924586916	2895.7348592101
5	135656	26095.114218999376	518.88963902029
5	135666	26097.045579147829	1005.2947647094
5	135687	26101.678066705936	5907.1185343534
5	135729	26110.237664973573	5110.0948067632
5	135737	26112.242436703038	3792.5213393459
5	135781	26120.028050759645	8493.546620328
5	135813	26126.276510249847	6320.9659648746
5	135865	26136.752073390435	7437.9271773792
5	135974	26158.177692396498	516.80504153458
5	135995	26161.099605196461	2899.7636616103
5	136072	26176.041408543592	1978.4029747275
5	136081	26178.813108647453	1023.9602034647
5	136116	26186.229047308142	1022.2790801122
5	136174	26198.278655383853	1525.0294626144
5	136294	26224.429876303606	2466.9783735994
5	136307	26227.146877957628	2917.935232279
5	136342	26232.729883450018	514.92820271681
5	136391	26242.191474113175	5131.2833691529
5	136453	26254.507408410338	4691.8616454226
5	136539	26270.31755060426	1533.6227974049
5	136663	26292.205359549476	5533.908031412
5	136816	26319.91886986208	5961.0846902578
5	136866	26331.60770297668	515.55915984635
5	136869	26332.696707114326	516.38492084378
5	136881	26334.791501994366	7135.5261884501
5	136903	26338.439531068625	2020.6850112108
5	136954	26347.955409140915	514.18485113869
5	136976	26352.129751461215	2025.722529682
5	137009	26359.082643700886	2023.5248632728
5	137014	26360.179439264193	1047.8545023383
5	137078	26374.450530287652	4682.9122421065
5	137083	26375.415498498483	2487.7868283438
5	137098	26378.031022002483	3392.6304364599
5	137112	26381.693719186197	1041.6699841428
5	137122	26383.508005837194	1040.4927373113
5	137387	26436.475385297491	520.73834541565
5	137516	26459.494650220437	2027.2753078468
5	137548	26465.332594781028	7531.9295761403
5	137591	26473.99526147948	8601.1666024577
5	137651	26484.23605578461	3401.5924418689
5	137753	26505.984726279257	2496.2355535409
5	137821	26518.362259813147	2033.6915062054
5	137835	26520.265918403612	2499.8425552184
5	137913	26535.218537287257	6830.8317732539
5	137973	26547.103688428207	6434.259952817
5	137995	26551.131116966653	2964.052286121
5	138017	26556.854662803775	2950.5782135863
5	138022	26557.939864091231	1044.1030510923
5	138100	26571.603476527363	9339.540375289
5	138110	26573.802862584155	2025.9596602303
5	138113	26574.978616826173	1039.9212962951
5	138116	26576.126195676468	2952.3316412482
5	138182	26589.636497835003	521.91895770198
5	138215	26596.808382442061	2017.9642715689
5	138238	26599.976916974529	12198.626034662
5	138268	26606.209031221575	7945.7969600459
5	138286	26609.82328650954	1044.8706353942
5	138430	26636.919312863916	3419.6689597571
5	138469	26643.528275930255	2028.1731611175
5	138615	26671.552000201053	3866.3723418974
5	138721	26691.455606678153	2495.5539788731
5	138853	26718.419572460024	1035.1489427173
5	138931	26734.831573244489	5208.1844045669
5	138934	26735.88758012925	2509.761906144
5	138967	26745.049863903156	9384.4081112501
5	138982	26748.287114197785	8707.5889847507
5	139036	26760.464615642676	1556.075054384
5	139126	26778.833004247889	8703.9238840214
5	139131	26779.863817284469	1558.3600982364
5	139145	26781.940085139432	1559.7694863376
5	139234	26796.725933052719	2058.985274962
5	139320	26812.057123763139	13987.509701499
5	139355	26817.322846120248	2531.7726611196
5	139375	26821.529949004227	6871.578073118
5	139414	26830.704176499346	6060.4467900667
5	139419	26831.821978004301	1050.5534240084
5	139431	26833.621917865357	6063.097955457
5	139473	26843.615443578387	7282.363260752
5	139527	26853.362715821459	4356.473489313
5	139584	26864.571961337353	3013.9218010722
5	139589	26865.600495064936	3472.874946661
5	139601	26867.860463120907	1573.0243270796
5	139619	26872.439366611772	2072.701245228
5	139626	26873.274795605548	5660.8589283661
5	139631	26874.142785180107	5660.2139686943
5	139634	26875.041711797871	2551.1520108566
5	139656	26879.104825193927	3472.0411612785
5	139696	26886.91132304429	5654.1863680651
5	139704	26888.697088676066	9783.6851123779
5	139832	26913.534095419972	3474.0299037079
5	139835	26914.733195285155	5647.4776753966
5	139840	26915.547208048897	8389.1538712375
5	139909	26931.052653780979	10454.126840731
5	139979	26944.690426507339	1568.9711420967
5	140041	26954.959150667514	2067.1669246275
5	140072	26961.808152653581	1567.486285755
5	140077	26962.688775837632	3014.8479732828
5	140159	26977.510524870388	1046.0433439469
5	140221	26991.532756128096	16044.407433783
5	140240	26994.600636331578	5680.0007307856
5	140288	27004.682116314609	6118.0529494238
5	140320	27010.867439953264	1048.64010306
5	140479	27043.252360293572	1572.5255135494
5	140535	27055.527543181762	1577.7547577225
5	140588	27063.734668904099	3942.3728698823
5	140651	27076.51458246021	5246.2837476524
5	140705	27086.899149864188	3941.1923876495
5	140710	27087.76714629235	5248.8826266978
5	140731	27090.788790446633	1047.8141373584
5	140749	27094.524732241148	3022.9857042927
5	140892	27124.373316488902	3481.5189448652
5	140895	27125.512709825694	1046.8553468449
5	140992	27147.159467404263	3951.5258162185
5	141028	27154.976977141501	1045.1137296651
5	141054	27158.614704580717	5730.1374368708
5	141065	27161.632131192666	8123.4345345427
5	141070	27162.618110571262	6956.415864632
5	141150	27180.358085972832	6159.8198618685
5	141196	27188.54013574302	2565.2558563053
5	141221	27193.586043262032	523.58553852983
5	141258	27202.167310732526	2067.2379805886
5	141336	27216.776904290278	11832.435279063
5	141361	27221.833160323665	1049.5442966177
5	141398	27228.496747820188	8133.5869543785
5	141403	27229.328635803719	6151.7354490225
5	141458	27242.778942505752	3032.0296897769
5	141567	27265.177176160007	2083.7409457248
5	141570	27265.999800314396	1562.9934189516
5	141582	27267.951587260808	2084.7899863237
5	141603	27272.850549685038	3516.1080687461
5	141651	27280.959073546634	2078.1903259104
5	141693	27287.181459721656	5738.3961129791
5	141698	27288.218883349852	1563.2902455587
5	141734	27296.15220435235	10584.195896992
5	141759	27301.02239584207	4420.505149972
5	141892	27327.294667877364	2585.6666840451
5	141908	27329.409944247655	2083.6071712292
5	141915	27330.29207368271	2587.649764756
5	141925	27332.109432013347	6169.8117968266
5	142053	27352.106750295696	3976.8916751631
5	142081	27356.109384175588	515.40792154745
5	142122	27362.699830902566	514.26869126707
5	142428	27419.225319532593	3521.9323129182
5	142440	27421.389898372823	2581.1883360122
5	142472	27427.07565786765	1031.2788373931
5	142504	27432.975332232016	3988.0595502597
5	142554	27443.036729873913	4431.6069717967
5	142559	27443.877256345386	2074.2994681594
5	142673	27466.260595547136	3063.3528798201
5	142681	27468.304414895184	6617.2248507193
5	142694	27471.197065738875	3527.9235809725
5	142832	27496.615814487084	1561.5839922153
5	142845	27499.636599572568	13199.77048602
5	142879	27508.210493820354	5739.1154384634
5	142991	27528.66515491475	1556.1069549241
5	143000	27529.722311471502	1029.6707833947
5	143025	27534.913015424094	7845.6995832924
5	143045	27539.027233976877	4886.4989910609
5	143233	27575.150501885456	5763.9500082405
5	143268	27582.227207806338	2090.4195677752
5	143357	27599.020321557582	6661.4718220626
5	143367	27600.85985761695	5341.5154354911
5	143421	27611.178734636684	1551.4702319919
5	143442	27614.036299862344	503.46201238026
5	143445	27615.062324807424	4893.2597230206
5	143460	27618.184321252261	5334.4860429726
5	143504	27628.135921018481	1557.8649862114
5	143563	27639.223826880385	2554.106555877
5	143683	27660.421785120111	2074.8692290104
5	143807	27684.03152946793	3065.9164346224
5	143823	27688.318412033846	2570.0354092458
5	143873	27697.967579107458	8256.5089471996
5	143929	27710.653849885245	3532.6208887264
5	144004	27723.543655888183	2066.8796270236
5	144029	27728.867129514185	3068.5199986297
5	144032	27729.794842425925	1023.4183751813
5	144050	27733.437456081906	10396.245866305
5	144116	27746.153683136966	2578.0062749758
5	144175	27759.070180942683	3082.7356044767
5	144210	27765.454842918839	14185.005867959
5	144240	27771.429790000531	5364.9392919962
5	144250	27773.433761171351	2069.1250449081
5	144265	27776.184759055737	5364.1290431317
5	144321	27786.320554158378	6239.340782562
5	144413	27804.530743814453	4012.6632014431
5	144487	27819.239441698797	4019.9377179326
5	144817	27879.998904006564	2071.7004769854
5	144857	27888.009479145156	3098.3388244962
5	144866	27890.963791603232	1547.0082670034
5	144913	27899.569130796949	2057.098798864
5	144937	27903.806342511542	5817.1056103746
5	144940	27904.638501779653	1019.0145363387
5	145028	27923.055084091249	1020.5901423726
5	145031	27924.037895907658	9757.6377877912
5	145108	27936.982493788108	505.85162037296
5	145248	27967.028178781189	2057.726795774
5	145324	27983.614041683554	4030.6852299296
5	145397	27996.232526566286	7135.4481107528
5	145489	28011.504418767629	14848.823404003
5	145509	28015.233632711801	501.52180358002
5	145661	28043.491198092901	2062.8205423217
5	145711	28051.692021577821	7152.3929995215
5	145716	28052.646502429263	1535.6421452525
5	145769	28061.951406652962	1011.6407989614
5	145801	28070.2982806693	503.65009234004
5	145834	28075.403049458208	1545.1966980232
5	145869	28082.231755347007	1016.4322213918
5	145903	28090.240037615427	5858.2456502626
5	145957	28100.05201596135	2068.6026045497
5	145972	28103.143911972472	1543.2979921364
5	146032	28114.891741835622	2060.1679921801
5	146040	28117.007107439188	5840.1162877774
5	146108	28128.188658421969	3550.3488688287
5	146143	28136.678905568288	8750.0666695404
5	146148	28137.724329250229	2058.9860522927
5	146215	28151.183935941306	6278.147617799
5	146245	28157.43507509168	502.82354287353
5	146292	28164.825259252747	504.83752364422
5	146349	28177.332495588359	2055.5376063463
5	146411	28189.72830023823	4957.1070619129
5	146423	28191.51142258804	4045.5371412643
5	146474	28200.240624339336	503.24194538507
5	146616	28229.979593985915	3572.3030298929
5	146697	28247.679318025071	980.26486628282
5	146776	28262.999317967163	9875.5540322106
5	146881	28282.152415222412	6290.6874016167
5	146947	28293.412991912308	3088.4288408491
5	147111	28323.513984063469	2051.8404815267
5	147116	28324.331152408492	4050.6627925414
5	147150	28332.635580777205	7599.6735874283
5	147167	28335.596277645617	2050.3580518237
5	147172	28336.741044597342	4525.722987542
5	147201	28341.462104934654	5433.6690965371
5	147219	28345.411897685393	6739.9105551911
5	147234	28348.171465354241	996.35646142152
5	147260	28354.106172324638	2056.5579802065
5	147289	28358.969619655625	2578.8008084236
5	147419	28385.314866697244	5003.3996240375
5	147509	28401.838947149939	1528.0874479028
5	147543	28408.032816310894	6323.653825182
5	147668	28430.656308406792	8420.7043914654
5	147729	28441.217151963167	13558.849781116
5	147753	28445.086614476345	1013.1429588064
5	147892	28470.910946656222	4536.2258942469
5	147944	28480.589802544955	6746.0743417436
5	147947	28481.625453348942	8037.952160178
5	147955	28483.667220226321	6745.6764386034
5	148052	28504.374272794111	5000.8567469951
5	148126	28518.182807463988	5898.0949478606
5	148161	28524.804812457527	7201.6000818527
5	148213	28534.712640397457	3091.9471785446
5	148221	28536.821044667737	3092.3121060487
5	148272	28545.970405050481	3578.9994464557
5	148511	28594.170815243406	1518.8199933819
5	148568	28601.063888003419	7680.9940287793
5	148594	28606.796590119622	1008.2270869295
5	148624	28613.121384649467	3580.2838990792
5	148652	28618.773610156705	5910.5467455009
5	148683	28624.180754922168	1010.9148513869
5	148724	28633.132524740719	7241.6266249787
5	148798	28647.148432783992	3084.5154913635
5	148826	28652.886040430168	4542.6814912069
5	148944	28679.286227069726	1011.9218430469
5	149007	28690.335742175323	6789.9150513882
5	149041	28698.647343837586	2041.0577567645
5	149091	28708.579059998154	2039.1364296888
5	149139	28716.334496941906	4549.7238037222
5	149158	28719.60061956069	4550.6274756468
5	149163	28720.559531046939	5469.7197157124
5	149194	28725.853721822076	3086.2889921444
5	149213	28728.811796380974	2568.7620467353
5	149259	28737.097051748284	1016.0562188404
5	149292	28744.470070832619	3593.2573228471
5	149305	28747.293433706672	4081.7446648038
5	149337	28751.705700519053	3590.5606941095
5	149566	28797.154809292148	5936.2885452198
5	149605	28804.091501340385	1015.3070030267
5	149629	28808.4296075118	4095.3736225182
5	149667	28814.607477202382	8505.161603342
5	149778	28835.817127867158	5039.8545547624
5	149806	28842.055221237544	2568.1206657756
5	149829	28845.260714517929	9308.6762134571
5	149867	28851.186621473194	5502.8999474964
5	149876	28853.910359427729	4109.2899988114
5	149884	28856.000109780417	3606.464674636
5	149906	28859.911033819546	1013.3822194035
5	149931	28865.128302180512	4576.6485765051
5	149993	28877.317764046534	1017.0087127907
5	150017	28880.944479717711	505.28494340576
5	150085	28893.331464301074	9701.4187102727
5	150179	28910.834841094003	3093.9179233082
5	150189	28912.818817880679	5963.8102990271
5	150206	28915.81539561313	4595.1529638129
5	150241	28922.734970583043	5513.6631279863
5	150262	28927.54623476893	2036.7850885509
5	150365	28946.731141203755	6392.7482685479
5	150421	28957.162430426593	513.18342929652
5	150464	28966.158285245786	5963.7463034257
5	150507	28974.908570396549	5049.3654913387
5	150534	28979.677821143178	2555.7769429905
5	150624	28995.1596356068	11847.455328241
5	150760	29021.20445299737	512.25895684644
5	150834	29038.739363711902	510.37773480413
5	150839	29039.900399439146	4599.7376503438
5	150861	29044.048538168815	5513.3838110856
5	150937	29058.287184197656	1020.7325714526
5	151011	29072.029014955197	2560.1396022646
5	151123	29092.759648231059	5532.4171244509
5	151206	29110.255123685687	6439.3423201947
5	151248	29118.733843537247	17689.204519099
5	151260	29121.059155117826	516.27248712408
5	151366	29140.5546713411	8197.4618688422
5	151392	29146.664570849307	6426.6223692413
5	151397	29147.808416463167	1026.6478513814
5	151445	29157.6732285387	1030.8477114147
5	151546	29176.898042342357	2561.9578589956
5	151584	29183.168899656471	1025.8165895932
5	151659	29196.891979243337	3092.7648382934
5	151701	29205.268647085886	7778.0019177452
5	151725	29209.216929121606	2026.1502377876
5	151745	29213.042603263083	7768.9183584792
5	151909	29244.683893752667	1027.1505067586
5	151916	29245.580006841394	514.00818047428
5	151944	29251.396133266679	7320.6952355594
5	152042	29270.859989066247	514.8463377667
5	152075	29275.765161112149	514.55674374159
5	152108	29282.789868824662	515.46045369354
5	152142	29290.908131770057	1540.4716978829
5	152331	29328.374567175669	1543.2344377496
5	152376	29335.774601202098	9432.1226738421
5	152404	29341.839133477784	11958.490058152
5	152412	29343.791064118701	2018.0840994511
5	152544	29370.21323322879	10569.443886829
5	152618	29380.571667783166	2567.1048316894
5	152726	29402.378579911141	3616.9168240644
5	152817	29420.238799962233	2571.0330737152
5	152827	29422.409083049203	1551.0988749913
5	152931	29442.969463256949	2047.4996777021
5	153059	29467.839667510819	3599.9838904992
5	153079	29471.864681128431	524.88903628397
5	153166	29488.455656943489	1041.2484138033
5	153205	29496.292436993329	7373.6696470421
5	153223	29500.1608416985	7376.5526381903
5	153376	29529.395060499499	6040.9187130895
5	153379	29530.39300943224	2566.3046620494
5	153403	29534.801336968153	2566.1899955074
5	153539	29561.417159163786	7391.9494847318
5	153544	29562.384927895034	7391.4363956418
5	153559	29565.121711894984	1555.343691371
5	153570	29567.803208821101	2063.3371766278
5	153575	29568.891780352985	3627.4407643211
5	153590	29571.522560473925	524.78052020794
5	153595	29572.357316479853	3629.3435282093
5	153626	29579.502654208078	9895.6721081072
5	153629	29580.560256070386	4146.2349098304
5	153892	29632.141166086051	5143.3503160838
5	153922	29638.098198178152	4162.9174538398
5	154130	29677.868101279646	2067.4909178454
5	154207	29692.696063852986	1048.3061614309
5	154219	29694.549481662294	1562.7675520604
5	154238	29697.403823146155	7401.2165392395
5	154265	29702.577129779128	3102.846642471
5	154273	29704.313462618018	4626.6818945574
5	154283	29706.072072976666	5600.5748856546
5	154298	29709.040872491548	5600.301541755
5	154567	29757.285457834347	1562.4145030221
5	154765	29789.940732049687	6061.9875712159
5	154873	29811.593193839052	4645.9979584649
5	154926	29822.764893274316	10724.725075145
5	155038	29842.426722723741	3622.3133680987
5	155120	29858.577193240946	1564.9980549912
5	155130	29860.57878189891	2074.4206319546
5	155144	29862.222102304486	4143.9124024735
5	155154	29864.333506188759	6093.2718283705
5	155216	29878.862997972902	3614.6847664693
5	155227	29881.691972182256	1047.2242810058
5	155328	29900.83701010983	2078.1529154616
5	155338	29902.757205777648	3624.0125443812
5	155372	29910.566546356989	3622.9573387087
5	155494	29932.512104935324	11467.985189821
5	155571	29948.169948201566	3635.9976837553
5	155576	29949.121507624383	1567.5340046548
5	155606	29953.142167755249	19465.535849227
5	155611	29954.079093245356	532.89816010851
5	155715	29974.040045938859	5189.349873988
5	155727	29975.981343419881	9609.0214656888
5	155765	29981.92435359874	11488.41244055
5	155775	29983.863389362425	5648.2071747832
5	155800	29989.25110145596	2580.7894807879
5	155803	29990.117608628172	1569.79582525
5	155837	29997.856093009683	10776.076220297
6	179	41.971856366469	34.191286874129
6	1519	304.133178146094	271.54467315528
6	2499	495.835345427141	458.3615279908
6	2848	562.777079559869	132.53296309882
6	3362	662.170691813352	407.47008028436
6	3375	664.92235617266	407.80146520294
6	4368	862.014651265655	726.97423911123
6	5149	1012.425753377299	873.1491548353

