version 2
run Second_exit_8-13-20191017-13:44:06-1964
attr configname Second_exit_8
attr datetime 20191017-13:44:06
attr experiment Second_exit_8
attr inifile omnetpp.ini
attr iterationvars ""
attr iterationvarsf ""
attr measurement ""
attr network ResponseTimeNetwork
attr processid 1964
attr repetition 13
attr replication #13
attr resultdir results
attr runnumber 13
attr seedset 13
param **.Source.interArrivalTime exponential(5s)
param **.jobPriority bernoulli(0.6)
param **.PS.serviceTimeU1 "uniform(0.8s, 1.2s)"
param **.PS.serviceTimeU2 "uniform(1.8s, 2.2s)"
param **.SS1.serviceTime exponential(1s)
param **.SS2.serviceTime exponential(1.2s)
param **.PS.exitProbability bernoulli(0.8)

vector 0 ResponseTimeNetwork.SS1 queueLength:vector ETV
attr interpolationmode sample-hold
attr title "queue length, vector"
vector 1 ResponseTimeNetwork.SS2 queueLength:vector ETV
attr interpolationmode sample-hold
attr title "queue length, vector"
vector 2 ResponseTimeNetwork.QueueU1 queueLength:vector ETV
attr interpolationmode sample-hold
attr title "queue length, vector"
vector 3 ResponseTimeNetwork.QueueU2 queueLength:vector ETV
attr interpolationmode sample-hold
attr title "queue length, vector"
vector 4 ResponseTimeNetwork.sink lifeTimeU1:vector ETV
attr interpolationmode none
attr title "lifetime of arrived jobs U1, vector"
attr unit s
vector 5 ResponseTimeNetwork.sink lifeTime:vector ETV
attr interpolationmode none
attr title "lifetime of arrived jobs, vector"
attr unit s
vector 6 ResponseTimeNetwork.sink lifeTimeU2:vector ETV
attr interpolationmode none
attr title "lifetime of arrived jobs U2, vector"
attr unit s
2	0	0	0
2	37	30.774227063975	1
2	38	31.2403801499	0
2	42	31.927555862533	1
2	43	32.312319331157	0
2	47	32.60840991709	1
2	48	33.324549502606	0
2	65	39.605529911938	1
2	66	40.137182437612	0
2	74	40.999525902042	1
2	75	41.125237582607	0
2	89	43.495986815584	1
2	90	44.170139572193	0
2	99	45.944567015673	1
2	101	45.968477004123	2
2	102	46.213318197411	1
2	105	47.280594375711	0
2	109	47.406561332769	1
2	110	48.179385858011	0
2	114	49.236988243843	1
2	115	49.314045269583	0
2	119	49.424988881664	1
2	120	50.361290554312	0
2	124	50.613893951884	1
2	126	51.199106249951	2
2	127	51.528711251524	1
2	131	51.774096979787	2
2	133	52.065777283611	3
2	134	52.578275402338	2
2	138	52.600822941091	3
2	140	53.05523643902	4
2	141	53.593322960083	3
2	145	53.921525006637	4
2	146	54.42048995968	3
2	149	55.437778483127	2
2	153	55.57912323311	3
2	155	55.72760705744	4
2	156	56.487989041098	3
2	160	56.591965204232	4
2	162	57.239336380501	5
2	163	57.573737088387	4
2	168	58.744134881982	3
2	172	59.626597527029	4
2	173	59.639198451192	3
2	176	60.661851272621	2
2	179	61.490946158563	1
2	183	62.506097278886	2
2	184	62.62682956325	1
2	188	63.10449694184	2
2	190	63.260999876234	3
2	192	63.263914778689	4
2	194	63.440376471123	5
2	196	63.475772327008	6
2	197	63.596451882814	5
2	200	64.713421324436	4
2	204	64.841331320998	5
2	205	65.51840269126	4
2	208	66.617580983955	3
2	213	67.460292983688	2
2	217	67.996518430072	3
2	218	68.406259368993	2
2	222	68.99544852886	3
2	223	69.555232113581	2
2	226	70.449784179758	1
2	230	71.271119914707	2
2	231	71.487943877913	1
2	235	71.539687846934	2
2	236	72.431294803582	1
2	239	73.44949740421	0
2	246	74.598441518646	1
2	248	74.823629752975	2
2	250	75.420009451657	3
2	251	75.586754900385	2
2	255	75.613266410519	3
2	257	76.359534080127	4
2	258	76.56160210602	3
2	262	76.775444758246	4
2	263	77.748503348772	3
2	267	77.77494585788	4
2	268	78.593082037177	3
2	272	79.636431883938	4
2	273	79.660844494384	3
2	277	79.881635152694	4
2	279	79.974028483602	5
2	280	80.629518677369	4
2	284	80.970137106819	5
2	285	81.580916097649	4
2	289	81.602551804082	5
2	290	82.413676119298	4
2	293	83.32142999636	3
2	296	84.133904336374	2
2	300	84.371625109664	3
2	301	85.170807905383	2
2	305	85.564739888614	3
2	306	86.356047134548	2
2	310	87.339374147397	3
2	311	87.450941424705	2
2	315	87.502651350213	3
2	317	87.60545971924	4
2	318	88.589210246578	3
2	321	89.521872123405	2
2	325	89.756871386424	3
2	327	89.984522756298	4
2	328	90.496040917076	3
2	332	90.566033097973	4
2	333	91.661955253482	3
2	337	91.897402036553	4
2	338	92.533987013232	3
2	342	92.666673862752	4
2	343	93.417751442902	3
2	347	94.198446157892	4
2	348	94.329535264038	3
2	352	94.363942180057	4
2	355	95.488625046313	3
2	359	95.54834399348	4
2	360	96.592592678759	3
2	366	96.848794709003	4
2	367	97.463839118723	3
2	370	98.660407712106	2
2	373	99.609985749591	1
2	376	100.415265998319	0
2	390	103.116811610002	1
2	391	103.342062221356	0
2	398	104.937890935531	1
2	400	104.942241539827	2
2	401	105.307639219593	1
2	406	106.147046849951	0
2	410	106.968439805374	1
2	411	107.040727629494	0
2	415	107.723057926914	1
2	416	108.221076042932	0
2	420	108.302981951844	1
2	421	109.111216164362	0
2	425	109.599605955719	1
2	427	109.673331629353	2
2	428	110.189997197483	1
2	434	111.162449289607	2
2	435	111.225166026112	1
2	438	112.183262753561	0
2	445	113.259778026062	1
2	447	113.778858067492	2
2	448	113.95823151607	1
2	453	114.880105088166	0
2	483	121.363266658381	1
2	486	121.665170960761	0
2	490	122.755159239641	1
2	491	122.802936660386	0
2	501	125.286112369768	1
2	502	125.750429568606	0
2	525	131.171791438562	1
2	528	132.240014294297	0
2	565	155.014766578907	1
2	566	155.906809297614	0
2	742	197.321848086695	1
2	743	197.61798983092	0
2	764	200.662011116632	1
2	767	201.440696320744	0
2	776	202.452855747141	1
2	777	203.444820036428	0
2	786	204.737340389095	1
2	787	205.462231563	0
2	794	206.350313017625	1
2	797	207.331754588025	0
2	806	208.592750939117	1
2	808	208.762682908223	2
2	809	209.340113062473	1
2	814	210.495381459655	0
2	818	211.328529336959	1
2	819	211.574249758446	0
2	826	213.038484402888	1
2	827	213.511429998992	0
2	834	215.200596010502	1
2	837	215.754264822384	0
2	870	224.909642480388	1
2	873	225.214058349302	0
2	877	225.22265853116	1
2	882	226.261305186359	0
2	893	227.576982610215	1
2	894	228.18699203266	0
2	898	228.397299138848	1
2	899	229.070271385016	0
2	903	229.336688955726	1
2	904	230.198950598689	0
2	910	230.444063857823	1
2	912	230.938286458483	2
2	914	231.003254910178	3
2	915	231.199947339783	2
2	919	231.617553843305	3
2	920	232.061978854539	2
2	923	232.883740263267	1
2	928	233.74869470496	0
2	932	234.071728105723	1
2	934	234.350225513162	2
2	936	234.563600971952	3
2	937	234.698877202834	2
2	940	235.642846581268	1
2	944	235.682275564881	2
2	946	235.977902572139	3
2	947	236.670835516902	2
2	951	236.726338125581	3
2	952	237.625137362371	2
2	957	238.561620222798	1
2	960	239.709059731776	0
2	985	245.570739434838	1
2	986	246.094705647157	0
2	1003	249.886137495001	1
2	1004	250.175946550836	0
2	1013	251.120235307193	1
2	1016	252.09871146476	0
2	1023	253.400835758972	1
2	1024	254.0120913299	0
2	1033	254.992164979515	1
2	1034	255.766734057685	0
2	1051	259.228252785644	1
2	1052	259.499912683035	0
2	1061	260.872255714177	1
2	1062	261.536639026388	0
2	1087	266.928407554544	1
2	1088	267.526693376269	0
2	1102	269.689978940201	1
2	1103	270.607154115032	0
2	1112	272.3147882284	1
2	1113	272.788926111369	0
2	1119	273.429733057814	1
2	1120	273.742661414223	0
2	1124	274.540153180283	1
2	1125	274.557666620167	0
2	1129	274.935691180754	1
2	1131	275.285843013729	2
2	1132	275.713428691702	1
2	1136	275.786022230311	2
2	1137	276.7029297895	1
2	1141	276.76225902124	2
2	1142	277.552836644483	1
2	1145	278.46128912924	0
2	1149	278.829682689144	1
2	1153	279.108015761085	2
2	1154	279.270059110989	1
2	1158	279.835608875631	2
2	1159	280.459308736605	1
2	1163	280.824804634893	2
2	1165	281.402789317077	3
2	1166	281.48862798039	2
2	1169	282.473601840922	1
2	1172	283.653036201858	0
2	1179	285.561009494599	1
2	1180	285.656277407167	0
2	1184	286.015012467305	1
2	1185	286.517887291891	0
2	1189	286.604730840786	1
2	1190	287.626604431981	0
2	1207	292.415784761434	1
2	1208	292.931931213901	0
2	1212	293.275425238563	1
2	1214	293.416980377543	2
2	1219	294.073266459216	1
2	1223	294.489555109579	2
2	1224	295.230932623201	1
2	1228	295.637927172947	2
2	1229	296.182230151032	1
2	1233	296.90147070841	2
2	1234	297.177364369907	1
2	1237	298.226002436556	0
2	1241	299.164927240967	1
2	1242	299.369357795972	0
2	1249	301.196731205363	1
2	1250	301.337931531161	0
2	1257	302.759990535397	1
2	1258	303.200391964014	0
2	1295	312.987633613701	1
2	1296	313.8484799784	0
2	1315	318.463797701199	1
2	1316	318.854993865081	0
2	1370	340.060093165333	1
2	1371	340.372849206951	0
2	1420	371.799089415203	1
2	1421	372.027618238976	0
2	1545	400.745346624658	1
2	1546	400.770195261692	0
2	1560	403.163792062141	1
2	1561	403.295248225373	0
2	1577	406.510412965648	1
2	1578	406.669038344381	0
2	1584	407.33020609389	1
2	1587	407.663932219261	0
2	1591	407.784982291006	1
2	1592	408.469728082997	0
2	1596	408.528063685653	1
2	1599	409.527825098784	0
2	1619	413.901757713231	1
2	1621	414.159337669575	2
2	1623	414.416494841811	3
2	1624	414.448883835619	2
2	1627	415.336292174851	1
2	1631	416.113387875512	2
2	1632	416.472937273347	1
2	1639	417.274118517825	0
2	1643	418.056531028927	1
2	1644	418.165492834264	0
2	1651	419.176634292624	1
2	1653	419.214597244254	2
2	1654	419.920192861484	1
2	1658	419.931991233072	2
2	1662	420.438380524252	3
2	1665	420.741037521159	2
2	1670	421.864270384537	1
2	1674	422.231838192576	2
2	1675	422.972878289523	1
2	1679	423.27358293419	2
2	1681	424.00932999323	3
2	1682	424.146651889498	2
2	1685	425.15866176991	1
2	1689	425.170744215392	2
2	1691	425.996310939036	3
2	1692	426.108208342383	2
2	1696	426.845607228817	3
2	1697	427.111839370823	2
2	1701	427.330944887001	3
2	1702	427.918005429602	2
2	1706	428.783735857847	3
2	1708	428.902631698495	4
2	1709	428.989065124023	3
2	1713	429.289414128917	4
2	1715	429.548331504133	5
2	1716	430.048055677976	4
2	1720	430.92871578996	5
2	1721	431.107131135486	4
2	1725	431.330083480342	5
2	1726	432.239859323598	4
2	1730	432.619593798651	5
2	1731	433.335154910501	4
2	1734	434.478748591173	3
2	1737	435.595443874154	2
2	1741	436.133342117206	3
2	1742	436.660279409144	2
2	1745	437.578857904136	1
2	1748	438.68310132597	0
2	1758	440.949560045623	1
2	1761	441.657350607332	0
2	1767	442.040394783579	1
2	1769	442.468894625384	2
2	1771	442.746246667469	3
2	1772	442.824501758091	2
2	1776	443.511591871806	3
2	1777	443.710013037477	2
2	1783	444.740215496029	3
2	1784	444.862342555564	2
2	1787	445.894153347354	1
2	1792	446.699551537096	0
2	1799	448.470156644442	1
2	1800	448.642766391414	0
2	1804	448.714265022425	1
2	1805	449.655611954744	0
2	1809	449.871434185429	1
2	1811	450.213276429188	2
2	1813	450.442530344273	3
2	1814	450.638822495121	2
2	1817	451.818595569789	1
2	1820	452.660928574692	0
2	1827	453.780175326067	1
2	1829	454.589167142461	2
2	1830	454.628541857957	1
2	1834	454.749106275685	2
2	1835	455.711911397542	1
2	1838	456.658465710676	0
2	1855	459.693948209523	1
2	1860	460.405395523853	0
2	1872	462.401835790713	1
2	1874	462.477780741248	2
2	1876	462.482927668264	3
2	1878	462.598578434863	4
2	1879	463.485160781559	3
2	1885	463.790370936206	4
2	1888	464.631739686266	3
2	1892	465.247155837392	4
2	1893	465.640649748523	3
2	1897	466.627122208615	4
2	1898	466.79589108976	3
2	1902	467.123473328288	4
2	1903	467.966051786788	3
2	1907	468.010452519793	4
2	1908	468.953082547266	3
2	1912	468.976112669727	4
2	1913	470.039863921352	3
2	1916	470.86416734599	2
2	1920	470.941682923243	3
2	1921	471.877452231128	2
2	1925	472.549496268417	3
2	1926	472.712414747592	2
2	1930	473.673320166173	3
2	1931	473.822729763318	2
2	1935	474.254867914952	3
2	1936	474.954950817418	2
2	1940	475.149283952453	3
2	1942	475.158130456821	4
2	1944	476.066138479064	5
2	1945	476.141690315422	4
2	1949	476.704601009265	5
2	1950	477.205100163933	4
2	1954	477.600989395346	5
2	1956	477.850629663997	6
2	1957	478.08811597044	5
2	1960	479.197838703472	4
2	1963	480.071442746207	3
2	1967	480.076909161331	4
2	1968	480.966743838344	3
2	1972	481.124874343649	4
2	1973	482.049294532299	3
2	1977	482.392551165047	4
2	1978	483.147587020531	3
2	1981	484.263373147811	2
2	1984	485.25916714242	1
2	1987	486.390441457483	0
2	2012	491.293694203322	1
2	2014	491.7043355693	2
2	2016	492.028162967927	3
2	2017	492.094137867841	2
2	2021	492.200602510224	3
2	2024	492.995350414815	2
2	2028	493.894641352056	3
2	2029	494.177143589801	2
2	2032	495.149403289634	1
2	2036	495.314325058958	2
2	2038	495.552070373668	3
2	2040	495.56779968442	4
2	2041	496.239463451154	3
2	2045	496.375502301382	4
2	2046	497.407920706387	3
2	2049	498.432121290661	2
2	2053	499.140432442506	3
2	2054	499.359793297037	2
2	2057	500.268518811114	1
2	2061	500.677493375538	2
2	2062	501.228963483706	1
2	2065	502.127261992659	0
2	2071	502.393544192147	1
2	2072	502.970645954854	0
2	2076	503.303508794276	1
2	2078	503.489875091847	2
2	2079	503.861975523292	1
2	2082	504.693978141456	0
2	2086	504.835631935944	1
2	2087	505.778074815984	0
2	2091	506.273267228069	1
2	2093	506.532250868398	2
2	2094	506.794651419877	1
2	2098	506.969688747577	2
2	2100	507.088449023949	3
2	2102	507.227669178827	4
2	2103	507.607062593683	3
2	2107	508.29434972525	4
2	2108	508.68537044667	3
2	2112	509.300115318217	4
2	2113	509.727000826805	3
2	2116	510.821690349861	2
2	2120	511.114782965684	3
2	2121	511.808502970564	2
2	2125	512.653471668405	3
2	2126	512.968283423989	2
2	2129	513.780404401964	1
2	2132	514.747757791097	0
2	2152	519.249538134762	1
2	2153	519.388558219581	0
2	2157	519.56891588947	1
2	2158	520.401652958638	0
2	2162	520.430644827382	1
2	2163	521.493968479915	0
2	2167	522.493551119576	1
2	2168	522.508092963716	0
2	2172	523.305657044	1
2	2174	523.335170128168	2
2	2175	523.389459980486	1
2	2179	523.643994970367	2
2	2181	523.832814820984	3
2	2183	523.91842145602	4
2	2184	524.329672249427	3
2	2187	525.271748566927	2
2	2191	525.81981299153	3
2	2192	526.179231267536	2
2	2195	527.272984043064	1
2	2199	527.379516349319	2
2	2200	528.097880562323	1
2	2203	528.938642304878	0
2	2207	528.997870466291	1
2	2208	530.081986143089	0
2	2215	531.189494710879	1
2	2216	532.200589763861	0
2	2227	534.105378940117	1
2	2228	534.211368125513	0
2	2232	535.133668345714	1
2	2233	535.248676318604	0
2	2237	535.352700814517	1
2	2240	536.299912917822	0
2	2244	536.646332471635	1
2	2246	537.066713227898	2
2	2247	537.161648373141	1
2	2250	537.974389916959	0
2	2270	541.842385458014	1
2	2275	542.564737013561	0
2	2279	542.584890586198	1
2	2280	543.3910158965	0
2	2286	543.965558022504	1
2	2287	544.290758123641	0
2	2291	544.706382197183	1
2	2292	545.448143294846	0
2	2296	546.354469790525	1
2	2297	546.634519095832	0
2	2313	550.699217305088	1
2	2316	551.51788028965	0
2	2323	553.104534452645	1
2	2324	553.619493156133	0
2	2335	554.77803193605	1
2	2336	555.392087982057	0
2	2342	555.949067116888	1
2	2343	556.277578425801	0
2	2350	557.310968919505	1
2	2354	558.010744445179	2
2	2355	558.160576557855	1
2	2359	558.162408085732	2
2	2360	559.146490794069	1
2	2366	559.502955024348	2
2	2367	560.004886585495	1
2	2373	560.729245053903	2
2	2375	560.994612291109	3
2	2376	561.076754191725	2
2	2380	561.261959006895	3
2	2382	561.732973556691	4
2	2383	562.129881501126	3
2	2387	562.587808101474	4
2	2389	563.094128308591	5
2	2390	563.181430138017	4
2	2394	563.230466134473	5
2	2396	563.812337725542	6
2	2398	563.813992661152	7
2	2399	564.117757341939	6
2	2403	564.239604363208	7
2	2404	565.281623055062	6
2	2407	566.421651625934	5
2	2411	566.866332332804	6
2	2412	567.511611306689	5
2	2416	567.906236551705	6
2	2418	568.344278385272	7
2	2419	568.533927205785	6
2	2423	568.803579901708	7
2	2424	569.351845289509	6
2	2428	569.965320127463	7
2	2429	570.201603025965	6
2	2433	570.443526440887	7
2	2435	570.530611785235	8
2	2436	571.352483626756	7
2	2440	571.602696253173	8
2	2441	572.514359783682	7
2	2444	573.615877314678	6
2	2448	574.024190457184	7
2	2449	574.445886050465	6
2	2453	575.272412948235	7
2	2455	575.374597683704	8
2	2456	575.44212106189	7
2	2459	576.59106104106	6
2	2462	577.705457618109	5
2	2465	578.812134282312	4
2	2469	578.837985463807	5
2	2472	579.635292034058	4
2	2476	580.287499472964	5
2	2477	580.444308421595	4
2	2480	581.538645852471	3
2	2484	582.066256942704	4
2	2485	582.549764613176	3
2	2489	582.941738440255	4
2	2490	583.51491664231	3
2	2495	584.586386380924	2
2	2499	585.061110398901	3
2	2501	585.205873383033	4
2	2503	585.509161142357	5
2	2504	585.761708443632	4
2	2508	585.794904115524	5
2	2510	586.296954819993	6
2	2511	586.709658511562	5
2	2515	586.725684265244	6
2	2517	587.393631286835	7
2	2518	587.551168869363	6
2	2521	588.514677401373	5
2	2527	589.18993643273	6
2	2528	589.558762817291	5
2	2531	590.484908956123	4
2	2535	590.490643623411	5
2	2536	591.671905232334	4
2	2539	592.505961336495	3
2	2542	593.519821930511	2
2	2546	594.316646330519	3
2	2547	594.538081957607	2
2	2551	594.987034937142	3
2	2553	595.308267504524	4
2	2554	595.686314712486	3
2	2557	596.658188508472	2
2	2560	597.538999058979	1
2	2564	597.681652573489	2
2	2566	598.067418153354	3
2	2567	598.452732430047	2
2	2571	598.758362803382	3
2	2572	599.635091849438	2
2	2576	599.805199707316	3
2	2577	600.719844775855	2
2	2580	601.548950367536	1
2	2584	601.622568116604	2
2	2586	602.241499012742	3
2	2587	602.7286895402	2
2	2591	602.919234925928	3
2	2592	603.555986690637	2
2	2595	604.655636573606	1
2	2599	604.702270959731	2
2	2601	605.133223167487	3
2	2604	605.651162679982	2
2	2608	605.957539472343	3
2	2609	606.767867683922	2
2	2613	607.258870740883	3
2	2615	607.332669612261	4
2	2616	607.783404394076	3
2	2620	608.05457559286	4
2	2622	608.911886550463	5
2	2623	608.951220444334	4
2	2627	609.038546352405	5
2	2628	610.02406215251	4
2	2632	610.884591567627	5
2	2634	610.918774073788	6
2	2635	611.163133238932	5
2	2639	611.168478987862	6
2	2640	612.230915931543	5
2	2644	612.302590035845	6
2	2646	612.57106054891	7
2	2650	613.107314734643	8
2	2651	613.110336558265	7
2	2655	613.268638173788	8
2	2657	613.620957507822	9
2	2658	613.995463296143	8
2	2662	614.546678393888	9
2	2663	615.035959987646	8
2	2666	615.912185207034	7
2	2670	616.401380244924	8
2	2671	616.740162242042	7
2	2675	617.391640454388	8
2	2676	617.651700541401	7
2	2680	618.732961715079	8
2	2681	618.779272005824	7
2	2685	619.704700018415	8
2	2686	619.81055915535	7
2	2689	620.863233991643	6
2	2693	621.272211001326	7
2	2694	621.77615612459	6
2	2698	622.630337722428	7
2	2699	622.780429358339	6
2	2702	623.599941768708	5
2	2706	623.827509326474	6
2	2707	624.424894718105	5
2	2710	625.458174526716	4
2	2714	626.03313518288	5
2	2715	626.493194742525	4
2	2718	627.594320036029	3
2	2721	628.779958565464	2
2	2725	629.559049572665	3
2	2726	629.609128295282	2
2	2729	630.572063304136	1
2	2733	631.210025096647	2
2	2735	631.491809508443	3
2	2736	631.589449884488	2
2	2740	631.966447204066	3
2	2742	632.072164822647	4
2	2743	632.602171815119	3
2	2747	633.651812965825	4
2	2748	633.768437943726	3
2	2751	634.637099240373	2
2	2755	635.108557733134	3
2	2756	635.836048997405	2
2	2760	635.861897909304	3
2	2761	636.971715017433	2
2	2765	637.945608747328	3
2	2766	638.162877784881	2
2	2770	638.376565356926	3
2	2771	638.99401504223	2
2	2774	640.00370838477	1
2	2778	640.173562944844	2
2	2780	640.676503711615	3
2	2781	641.008228750645	2
2	2785	641.159813489129	3
2	2787	641.317970082253	4
2	2788	641.83284315786	3
2	2791	642.684089323158	2
2	2794	643.589817903122	1
2	2798	643.631038901547	2
2	2800	643.933912065207	3
2	2802	644.049227473706	4
2	2804	644.451255284526	5
2	2805	644.704757554015	4
2	2808	645.53140538775	3
2	2812	646.334457628145	4
2	2813	646.508013643814	3
2	2817	646.844745139902	4
2	2818	647.313393934468	3
2	2822	647.481725406836	4
2	2824	647.98671983838	5
2	2825	648.358589383705	4
2	2828	649.528767903267	3
2	2832	649.910598104561	4
2	2833	650.696444982222	3
2	2836	651.771836178868	2
2	2840	652.528405134525	3
2	2841	652.86636788801	2
2	2845	653.27925584559	3
2	2846	654.066241602159	2
2	2849	655.214213841806	1
2	2852	656.016468072149	0
2	2856	656.080485319386	1
2	2858	656.377766468986	2
2	2860	656.752857426293	3
2	2861	657.167425204746	2
2	2865	657.223190751573	3
2	2868	658.020243940435	2
2	2872	658.372502347484	3
2	2873	658.952814850051	2
2	2877	659.315384636742	3
2	2879	660.101725099803	4
2	2880	660.13440028115	3
2	2884	660.697591336282	4
2	2885	661.129393006142	3
2	2889	661.441705809125	4
2	2891	661.537242577045	5
2	2892	662.320394312057	4
2	2896	662.472135475667	5
2	2897	663.246654376041	4
2	2900	664.192276283007	3
2	2903	665.208120194569	2
2	2906	666.34691031019	1
2	2909	667.154847090997	0
2	2913	668.309852864785	1
2	2914	668.335319703005	0
2	2928	670.94418648269	1
2	2930	671.035891905674	2
2	2932	671.124220277142	3
2	2933	671.219973553743	2
2	2938	672.30585622995	1
2	2941	673.460921057713	0
2	2945	673.647330939214	1
2	2947	673.856266808367	2
2	2948	674.561729177114	1
2	2951	675.606534120374	0
2	2961	677.836905411212	1
2	2963	678.349894446918	2
2	2964	678.867592243039	1
2	2967	679.842462865849	0
2	2977	682.254368306305	1
2	2979	682.615340007547	2
2	2980	682.927986344071	1
2	2984	683.396747197524	2
2	2985	683.981828268273	1
2	2990	684.997893033391	0
2	3002	687.456338254763	1
2	3003	687.84336399476	0
2	3010	689.263367797894	1
2	3013	690.176324423617	0
2	3020	691.466008453768	1
2	3021	692.154567714809	0
2	3030	694.088446837102	1
2	3031	694.105583295534	0
2	3035	694.260586473905	1
2	3040	695.237564645736	0
2	3044	695.622457430426	1
2	3045	696.078276330634	0
2	3049	696.645329741274	1
2	3050	697.074858035828	0
2	3060	699.566333033368	1
2	3061	700.117871211778	0
2	3070	701.277710773996	1
2	3071	702.274455385592	0
2	3078	703.681644195976	1
2	3080	704.141524567551	2
2	3081	704.318722752046	1
2	3085	704.879234506617	2
2	3086	705.291957518768	1
2	3092	705.935664748528	2
2	3093	706.221794678953	1
2	3097	706.912685598807	2
2	3099	706.987117925522	3
2	3100	707.113761431102	2
2	3104	707.520391885387	3
2	3105	707.986025737908	2
2	3109	708.19285404712	3
2	3110	709.083198514145	2
2	3113	710.032292901848	1
2	3117	710.132527794841	2
2	3118	711.081423713483	1
2	3123	712.046351587337	0
2	3127	712.126115615426	1
2	3128	713.041772495054	0
2	3135	713.934760268465	1
2	3137	714.574337543001	2
2	3138	714.933215393808	1
2	3144	715.99759846178	2
2	3145	716.006640882261	1
2	3149	717.09089488456	2
2	3150	717.19658968107	1
2	3154	717.202124964966	2
2	3156	718.291116044915	3
2	3157	718.293900953263	2
2	3162	719.481767924439	1
2	3166	719.857940989574	2
2	3168	720.114767294157	3
2	3170	720.202473459221	4
2	3171	720.422878892656	3
2	3174	721.54328946856	2
2	3177	722.520578988019	1
2	3180	723.575592768222	0
2	3184	724.447486355543	1
2	3186	724.673184403288	2
2	3187	724.696491964098	1
2	3191	725.017825091996	2
2	3196	725.690430733778	1
2	3200	726.55401901659	2
2	3201	726.754560127698	1
2	3205	726.781567283363	2
2	3206	727.719419008058	1
2	3209	728.87574979312	0
2	3213	728.970192114188	1
2	3215	728.996777485465	2
2	3216	729.750166843303	1
2	3220	729.971626117271	2
2	3221	730.693016021915	1
2	3224	731.721570461367	0
2	3228	732.57825851202	1
2	3229	732.631280097768	0
2	3233	733.343483734319	1
2	3234	733.546932803497	0
2	3269	741.68657937634	1
2	3270	741.699726550683	0
2	3274	741.806168914691	1
2	3275	742.628369079467	0
2	3292	745.969348057403	1
2	3295	746.817109419063	0
2	3302	747.937099201239	1
2	3304	748.019070478911	2
2	3305	748.600028249931	1
2	3310	749.615307184805	0
2	3314	749.741346496902	1
2	3315	750.512087338448	0
2	3319	751.004514359518	1
2	3322	751.489461273916	0
2	3331	753.001547456006	1
2	3334	753.589861541458	0
2	3343	755.299953597776	1
2	3344	755.829448979843	0
2	3354	758.340922973174	1
2	3356	758.564445563344	2
2	3358	758.829770853147	3
2	3359	759.124248490139	2
2	3363	759.19527585883	3
2	3364	760.201313415292	2
2	3369	761.30876812975	1
2	3373	761.60461976368	2
2	3374	762.161716032243	1
2	3378	762.519356828205	2
2	3379	763.345172746787	1
2	3382	764.185450293152	0
2	3386	764.292400740784	1
2	3387	765.045342115993	0
2	3394	766.558260315766	1
2	3396	766.591465795187	2
2	3397	766.902359117223	1
2	3400	767.735858568298	0
2	3407	769.361625843288	1
2	3409	769.733301010896	2
2	3410	769.839626601832	1
2	3415	770.959697040757	0
2	3419	771.092259195004	1
2	3421	771.428093405016	2
2	3423	771.686974154469	3
2	3424	771.813089510174	2
2	3428	772.008964643658	3
2	3429	772.967249558987	2
2	3433	773.076245218655	3
2	3434	773.801457833433	2
2	3437	774.913235297361	1
2	3441	775.879187316019	2
2	3442	775.9846640616	1
2	3446	776.179168184238	2
2	3448	776.48943455734	3
2	3449	776.931252084141	2
2	3453	777.43750946896	3
2	3455	778.001734756651	4
2	3456	778.120878868671	3
2	3459	779.183204824971	2
2	3463	779.397092855482	3
2	3464	780.331289641214	2
2	3468	780.706057386202	3
2	3469	781.204447273565	2
2	3473	781.549343278303	3
2	3474	782.144509799061	2
2	3478	782.890858363202	3
2	3480	782.936306476783	4
2	3481	783.061931020515	3
2	3485	783.122467329406	4
2	3486	784.23653688536	3
2	3490	785.019978839495	4
2	3491	785.167800749307	3
2	3495	785.831103951405	4
2	3496	786.230522858193	3
2	3500	786.572856584775	4
2	3501	787.110495938575	3
2	3505	787.386567145448	4
2	3506	788.054551337967	3
2	3510	788.959108572	4
2	3511	788.98799542415	3
2	3515	789.010827079177	4
2	3516	789.796586332964	3
2	3519	790.747028139914	2
2	3522	791.593320852081	1
2	3526	791.983437016508	2
2	3528	792.136417770616	3
2	3529	792.45018157254	2
2	3533	792.995547446062	3
2	3534	793.481067110626	2
2	3537	794.362328625685	1
2	3541	794.410023159471	2
2	3542	795.462794347322	1
2	3547	796.639904513704	0
2	3551	797.019338674226	1
2	3552	797.514385367865	0
2	3556	797.984563382691	1
2	3557	798.546559478184	0
2	3561	799.052175250495	1
2	3563	799.15021858578	2
2	3564	799.613837440712	1
2	3568	799.761601284691	2
2	3570	799.841518817193	3
2	3571	800.667347860643	2
2	3575	800.77596887487	3
2	3578	801.606985060432	2
2	3582	801.703019084042	3
2	3584	801.778872458054	4
2	3586	801.892867253042	5
2	3588	802.499059860909	6
2	3589	802.532474207998	5
2	3593	802.855544120582	6
2	3594	803.423096213144	5
2	3598	803.682088350404	6
2	3599	804.607150162504	5
2	3603	804.872174362321	6
2	3604	805.523306619589	5
2	3607	806.72156575567	4
2	3611	806.883031101765	5
2	3614	807.523418101882	4
2	3618	808.103491354523	5
2	3619	808.573176313405	4
2	3623	809.154791264422	5
2	3624	809.684198708207	4
2	3628	810.523940808651	5
2	3629	810.650316262644	4
2	3633	810.989814165205	5
2	3634	811.656780415613	4
2	3638	811.931334925463	5
2	3639	812.695229406401	4
2	3642	813.577574137251	3
2	3646	814.185373648358	4
2	3648	814.373542139634	5
2	3649	814.633911045014	4
2	3653	814.977260922477	5
2	3655	815.308855832454	6
2	3657	815.587440561194	7
2	3658	815.69290928778	6
2	3661	816.808072708107	5
2	3664	817.861768511429	4
2	3668	818.18041842948	5
2	3669	818.723687670033	4
2	3673	818.987366282402	5
2	3675	819.566534704291	6
2	3676	819.781243651572	5
2	3680	820.676886032528	6
2	3681	820.857816194582	5
2	3684	821.89205670471	4
2	3688	822.025128193646	5
2	3690	822.352678504803	6
2	3692	822.450718103556	7
2	3694	822.68499181983	8
2	3695	822.708592060699	7
2	3700	823.608481355502	6
2	3703	824.512950582082	5
2	3707	824.905878134788	6
2	3708	825.642039142667	5
2	3712	825.834387635353	6
2	3714	825.96858355029	7
2	3716	826.208179063629	8
2	3717	826.461154948665	7
2	3720	827.305204259722	6
2	3724	827.320196293792	7
2	3727	828.482206777322	6
2	3731	828.838594514974	7
2	3733	829.145991591854	8
2	3735	829.432531406249	9
2	3736	829.470657801094	8
2	3739	830.271544828849	7
2	3742	831.296358530248	6
2	3745	832.250170776552	5
2	3749	832.828556193444	6
2	3750	833.075126676565	5
2	3755	834.268697997207	4
2	3759	834.403162183924	5
2	3761	835.237330024728	6
2	3762	835.404390507961	5
2	3766	835.55004427739	6
2	3768	835.707825628109	7
2	3770	835.848933401024	8
2	3771	836.224202732953	7
2	3775	837.04878632599	8
2	3777	837.126420824548	9
2	3778	837.311144905655	8
2	3782	837.733752129328	9
2	3783	838.168498859765	8
2	3787	838.726836519248	9
2	3788	839.10104422907	8
2	3791	840.100234721812	7
2	3794	841.129294872216	6
2	3798	841.430809418568	7
2	3800	841.971803044	8
2	3801	842.281895740449	7
2	3805	842.341016232116	8
2	3807	843.072889631521	9
2	3808	843.474893684245	8
2	3812	843.485609314959	9
2	3813	844.5532108065	8
2	3817	844.629006020993	9
2	3819	845.438005382729	10
2	3821	845.469283088883	11
2	3822	845.723999260951	10
2	3826	845.7350822217	11
2	3827	846.62507600312	10
2	3830	847.762917905793	9
2	3834	848.526415787748	10
2	3835	848.882974710249	9
2	3839	849.013602237834	10
2	3840	850.004246227563	9
2	3844	850.364822726226	10
2	3845	850.979275173348	9
2	3848	851.819012460884	8
2	3852	852.068525269684	9
2	3854	852.340877187573	10
2	3856	852.368030539162	11
2	3857	852.768072890237	10
2	3860	853.609871082127	9
2	3863	854.555280648012	8
2	3866	855.748809257269	7
2	3870	856.746954302001	8
2	3871	856.754703987695	7
2	3876	857.738856956575	6
2	3879	858.747455327332	5
2	3882	859.774693628799	4
2	3886	860.543127264551	5
2	3887	860.595437081184	4
2	3891	861.238693447939	5
2	3893	861.518383252067	6
2	3895	861.542078677909	7
2	3896	861.698661296095	6
2	3900	862.46702436374	7
2	3901	862.892084978919	6
2	3904	863.791969786237	5
2	3908	864.105520514271	6
2	3909	864.848085360161	5
2	3913	865.009531192884	6
2	3914	865.812502824354	5
2	3918	866.290229712018	6
2	3920	866.367994941224	7
2	3922	866.385225182886	8
2	3923	866.661726889598	7
2	3927	866.966544869749	8
2	3928	867.545905339836	7
2	3932	868.13328063901	8
2	3933	868.416012792035	7
2	3937	869.077395121567	8
2	3938	869.349911837398	7
2	3941	870.18885896851	6
2	3945	871.098719743343	7
2	3946	871.359665596603	6
2	3950	871.423365315786	7
2	3951	872.330799249584	6
2	3954	873.165517804051	5
2	3958	874.279681779908	6
2	3959	874.36414866394	5
2	3963	874.619133275189	6
2	3966	875.370368251136	5
2	3969	876.290255789018	4
2	3974	877.160044876325	3
2	3978	877.810849416896	4
2	3979	878.056474120754	3
2	3984	878.926147629532	2
2	3987	879.780255841489	1
2	3990	880.64048627366	0
2	3997	882.184448348965	1
2	3999	882.305634531068	2
2	4000	882.646899455624	1
2	4003	883.643496704033	0
2	4007	883.726651889606	1
2	4009	884.044497009247	2
2	4010	884.809184798995	1
2	4015	885.892113859231	0
2	4024	887.107434327571	1
2	4026	887.561208219177	2
2	4028	887.698703828993	3
2	4029	887.958062616854	2
2	4035	888.017250315643	3
2	4037	888.390308360558	4
2	4038	889.151751573875	3
2	4042	889.191890171458	4
2	4043	890.025683315124	3
2	4047	890.639882159932	4
2	4048	891.161025898836	3
2	4052	891.97784942352	4
2	4053	892.07021569221	3
2	4056	893.106127882401	2
2	4059	893.913990967839	1
2	4063	894.422409105449	2
2	4065	894.711735982022	3
2	4066	894.93871230141	2
2	4069	895.929141308765	1
2	4073	896.378707244939	2
2	4074	896.970843076079	1
2	4078	897.531754058431	2
2	4079	898.055389648422	1
2	4083	898.470824019581	2
2	4086	899.21907355583	1
2	4092	899.458192841353	2
2	4093	900.110481549638	1
2	4096	901.219555419615	0
2	4103	902.155080169257	1
2	4104	903.00918897635	0
2	4108	903.442475765455	1
2	4109	903.889184569499	0
2	4113	903.943006702887	1
2	4114	904.727514467041	0
2	4120	905.261912388559	1
2	4121	905.554045380305	0
2	4125	905.661974619787	1
2	4126	906.391383188337	0
2	4130	906.63811839697	1
2	4131	907.575359415103	0
2	4135	907.978749449983	1
2	4136	908.668454989817	0
2	4140	908.754923565873	1
2	4141	909.858073136982	0
2	4148	911.371295867062	1
2	4150	911.532377130609	2
2	4151	912.16960742737	1
2	4157	913.178005486992	2
2	4158	913.226102487397	1
2	4161	914.313207817663	0
2	4167	915.1144105893	1
2	4168	915.183417147704	0
2	4172	915.840522268313	1
2	4173	916.227471074302	0
2	4177	916.339899603003	1
2	4178	917.140026878499	0
2	4188	919.461991690948	1
2	4190	920.092025798921	2
2	4191	920.461244926628	1
2	4194	921.491752296806	0
2	4198	921.519785849524	1
2	4201	922.559649503351	0
2	4209	923.405338130184	1
2	4210	923.527574561843	0
2	4214	923.694410096644	1
2	4215	924.581258533364	0
2	4219	925.171568937619	1
2	4220	925.536140021151	0
2	4224	925.860961841275	1
2	4225	926.622685911721	0
2	4244	929.785949986831	1
2	4245	930.262580497685	0
2	4255	932.397459894762	1
2	4258	933.112385609682	0
2	4266	933.859473928533	1
2	4267	933.996056092467	0
2	4273	934.459466917862	1
2	4274	934.889866494696	0
2	4278	935.204196649063	1
2	4279	935.965775695566	0
2	4283	936.28024439205	1
2	4285	936.668136849108	2
2	4286	936.802846108407	1
2	4289	937.641294305429	0
2	4299	940.249832259191	1
2	4302	941.108028770921	0
2	4306	941.267265148244	1
2	4307	941.992763679971	0
2	4321	945.083464095366	1
2	4323	945.099450282805	2
2	4325	945.49912233084	3
2	4326	945.513045971778	2
2	4331	946.443595948473	1
2	4334	947.29774400986	0
2	4341	949.30322334314	1
2	4344	949.495672047261	0
2	4348	949.807543161087	1
2	4351	950.464790792141	0
2	4355	950.658462958629	1
2	4357	950.791326316431	2
2	4359	950.920510716377	3
2	4360	951.640406585608	2
2	4363	952.481041818235	1
2	4367	953.246395256316	2
2	4368	953.328407963954	1
2	4372	953.622402299825	2
2	4373	954.235483075801	1
2	4377	954.672675313093	2
2	4378	955.260705480102	1
2	4382	955.609224423962	2
2	4383	956.148385074112	1
2	4387	956.606774097381	2
2	4388	957.228313020739	1
2	4392	957.334899875023	2
2	4393	958.195858458272	1
2	4396	959.345649804669	0
2	4400	959.393089774047	1
2	4401	960.258133811066	0
2	4405	960.971989167626	1
2	4407	961.346218049393	2
2	4408	961.364884625683	1
2	4412	961.431504213359	2
2	4414	961.856854466398	3
2	4415	962.205405922635	2
2	4418	963.343205026938	1
2	4421	964.160004386986	0
2	4425	965.156500481663	1
2	4427	965.177257262489	2
2	4428	965.31153218926	1
2	4432	965.709228739792	2
2	4434	966.027271806774	3
2	4436	966.028387563699	4
2	4437	966.449224769632	3
2	4441	966.688745930915	4
2	4442	967.493948068405	3
2	4446	968.118152195039	4
2	4447	968.579747927869	3
2	4451	969.55792424756	4
2	4452	969.720730783353	3
2	4456	969.993967036441	4
2	4457	970.714165415364	3
2	4461	970.956972233334	4
2	4462	971.692359019379	3
2	4465	972.858674621425	2
2	4468	973.773088924057	1
2	4472	974.191971487818	2
2	4473	974.944598060875	1
2	4476	975.850875598873	0
2	4480	976.621971600971	1
2	4481	976.844210120878	0
2	4488	978.322934129198	1
2	4489	978.56735274478	0
2	4493	978.891517835103	1
2	4495	979.377899828898	2
2	4496	979.42502109849	1
2	4502	979.709636487004	2
2	4503	980.58287732809	1
2	4507	980.990018479501	2
2	4510	981.720229480631	1
2	4514	981.723680818167	2
2	4515	982.763652870926	1
2	4518	983.748087901837	0
2	4530	986.491414173173	1
2	4531	986.5750737808	0
2	4535	986.795547913765	1
2	4536	987.395303852419	0
2	4545	988.659797521212	1
2	4546	989.260652694321	0
2	4555	990.653867830044	1
2	4558	991.533778285543	0
2	4580	996.151980131832	1
2	4583	996.753638114994	0
2	4616	1004.201903169663	1
2	4617	1004.30801245219	0
2	4626	1005.271591993396	1
2	4629	1006.261332658612	0
2	4638	1007.722576092203	1
2	4639	1008.089488377822	0
2	4648	1009.316612301421	1
2	4653	1010.094927622778	0
2	4657	1010.463345428725	1
2	4658	1011.074261938622	0
2	4662	1011.93039158155	1
2	4663	1012.214413004955	0
2	4672	1013.507614690386	1
2	4673	1014.24920470084	0
2	4685	1016.500113141443	1
2	4688	1017.319842976452	0
2	4702	1019.838712820369	1
2	4703	1020.39038118611	0
2	4720	1023.346181554529	1
2	4721	1024.230011021279	0
2	4748	1029.649222849765	1
2	4751	1030.45050778019	0
2	4755	1031.322734484336	1
2	4756	1031.462583954565	0
2	4760	1032.265589510542	1
2	4761	1032.577532265641	0
2	4769	1032.831157055591	1
2	4770	1033.475544914257	0
2	4777	1034.930645979906	1
2	4779	1034.946627048733	2
2	4781	1035.412142072811	3
2	4782	1035.449144950349	2
2	4787	1036.57780624314	1
2	4791	1036.836669714626	2
2	4792	1037.511834682364	1
2	4796	1037.926907891538	2
2	4797	1038.674184352186	1
2	4801	1039.075473377527	2
2	4802	1039.550312083614	1
2	4806	1039.591443574965	2
2	4807	1040.461522780386	1
2	4811	1040.685743088132	2
2	4812	1041.45595367656	1
2	4815	1042.295965150212	0
2	4819	1042.367103292151	1
2	4821	1042.963755660742	2
2	4822	1043.100380431795	1
2	4826	1043.287639823985	2
2	4827	1044.202526867138	1
2	4830	1045.150916956393	0
2	4836	1046.10765224487	1
2	4837	1046.165999567257	0
2	4841	1046.540338742136	1
2	4844	1047.334515533065	0
2	4851	1048.923261063267	1
2	4853	1048.956551626627	2
2	4854	1049.303777828374	1
2	4862	1050.192407479614	2
2	4863	1050.316138228149	1
2	4867	1050.423129236833	2
2	4868	1051.266900181983	1
2	4872	1051.580176010199	2
2	4873	1052.417687248186	1
2	4877	1053.254810705167	2
2	4878	1053.353672554371	1
2	4883	1054.316997286704	0
2	4887	1054.789118180515	1
2	4889	1054.818275492924	2
2	4890	1055.179199269161	1
2	4895	1056.323942662802	0
2	4902	1057.677148042175	1
2	4904	1058.20178786053	2
2	4905	1058.353521569845	1
2	4910	1059.485139456325	0
2	4917	1060.859652216375	1
2	4918	1061.392694956649	0
2	4922	1061.607150633326	1
2	4924	1061.999992230766	2
2	4925	1062.485561586849	1
2	4929	1062.569857694504	2
2	4931	1062.883876814478	3
2	4934	1063.310640658557	2
2	4938	1063.604283143002	3
2	4939	1064.236979305584	2
2	4943	1064.987521399131	3
2	4944	1065.337623877943	2
2	4947	1066.412017485712	1
2	4953	1067.516639407737	2
2	4954	1067.559417630572	1
2	4957	1068.44300843098	0
2	4974	1072.325975203284	1
2	4975	1072.328666894536	0
2	4979	1072.842438645454	1
2	4981	1072.957115145944	2
2	4982	1073.131674370847	1
2	4986	1073.332183227572	2
2	4989	1074.258771075241	1
2	4993	1074.355539369627	2
2	4994	1075.371728589505	1
2	4997	1076.284828318682	0
2	5004	1077.300614399894	1
2	5005	1078.280188687637	0
2	5009	1078.694437546648	1
2	5011	1078.916942284634	2
2	5012	1079.436588682446	1
2	5015	1080.246484919383	0
2	5036	1084.610849816417	1
2	5038	1084.771645308692	2
2	5042	1085.24717862542	3
2	5043	1085.548438163871	2
2	5049	1086.010337318177	3
2	5050	1086.350313359523	2
2	5056	1086.797925608964	3
2	5057	1087.33133028627	2
2	5062	1088.450712824637	1
2	5068	1089.271598208731	2
2	5069	1089.4823870186	1
2	5072	1090.372264644527	0
2	5076	1090.719936820317	1
2	5078	1090.921693947968	2
2	5079	1091.303793330607	1
2	5083	1092.258215668351	2
2	5084	1092.291201462713	1
2	5088	1092.45393037109	2
2	5090	1092.706624863202	3
2	5091	1093.161611241498	2
2	5094	1094.162242623628	1
2	5097	1095.036088199192	0
2	5101	1095.176894269544	1
2	5102	1095.934638736327	0
2	5106	1096.16453610845	1
2	5108	1096.87990969211	2
2	5109	1096.97461488808	1
2	5112	1098.090539656416	0
2	5116	1098.159573951062	1
2	5117	1098.929848434799	0
2	5121	1099.570857097586	1
2	5122	1099.956582015776	0
2	5129	1101.614877607365	1
2	5130	1101.964157533948	0
2	5142	1104.370366777741	1
2	5147	1104.729734291812	0
2	5151	1104.880466895002	1
2	5154	1105.76155724742	0
2	5161	1107.431666759718	1
2	5163	1107.691440220856	2
2	5164	1107.796085141716	1
2	5167	1108.944269367052	0
2	5176	1110.084671555096	1
2	5177	1110.962731165929	0
2	5192	1114.993966019096	1
2	5193	1115.240493305332	0
2	5202	1116.101388755903	1
2	5203	1117.184138408142	0
2	5214	1118.892026261328	1
2	5215	1119.051267123248	0
2	5224	1120.275787849181	1
2	5225	1121.356637743607	0
2	5234	1122.432599462967	1
2	5236	1123.168977619431	2
2	5237	1123.410554385118	1
2	5242	1124.540553888611	0
2	5246	1124.949931623307	1
2	5247	1125.431000938571	0
2	5251	1125.523716069552	1
2	5252	1126.255786492049	0
2	5256	1126.982195733867	1
2	5257	1127.194386769484	0
2	5264	1128.807597026721	1
2	5265	1129.264005278076	0
2	5269	1129.27612132631	1
2	5270	1130.431900571312	0
2	5274	1131.073310696725	1
2	5275	1131.300310861065	0
2	5279	1131.724110597333	1
2	5280	1132.202590241308	0
2	5292	1134.819346904881	1
2	5293	1135.242330846495	0
2	5307	1137.620533897338	1
2	5310	1138.602714256036	0
2	5317	1139.692008522004	1
2	5318	1140.502247804242	0
2	5327	1142.573323000766	1
2	5328	1142.623060618459	0
2	5337	1144.283585975454	1
2	5338	1144.684550646717	0
2	5389	1155.863283273107	1
2	5391	1156.033638543185	2
2	5394	1156.591231067224	1
2	5397	1157.725426435402	0
2	5409	1159.837874104587	1
2	5410	1160.839065235506	0
2	5430	1166.136332657092	1
2	5431	1166.172779776461	0
2	5438	1167.514057537536	1
2	5441	1167.977636483616	0
2	5450	1169.192990122005	1
2	5451	1170.217562728028	0
2	5455	1170.544035880368	1
2	5456	1171.335387449644	0
2	5460	1171.939460273842	1
2	5461	1172.457243592318	0
2	5465	1173.577146734796	1
2	5466	1173.594004816029	0
2	5473	1175.457370195846	1
2	5474	1175.531846118092	0
2	5488	1178.078452476647	1
2	5489	1178.380539354335	0
2	5493	1178.398996050245	1
2	5496	1179.44569340891	0
2	5506	1181.538057253716	1
2	5507	1182.48305939662	0
2	5511	1183.14030662223	1
2	5512	1183.361803375117	0
2	5518	1184.549572647856	1
2	5519	1184.55309707171	0
2	5525	1185.561001225612	1
2	5526	1185.698622996199	0
2	5530	1186.000905043005	1
2	5531	1186.738135778184	0
2	5535	1187.035858039289	1
2	5536	1187.766391252286	0
2	5545	1188.959781862221	1
2	5546	1190.008460791528	0
2	5558	1192.038314066866	1
2	5561	1192.934394210975	0
2	5570	1194.105442499406	1
2	5573	1194.99777332314	0
2	5580	1196.403507988845	1
2	5583	1197.209554197385	0
2	5590	1198.574142217731	1
2	5594	1199.349331693652	2
2	5595	1199.427161801166	1
2	5598	1200.390862885608	0
2	5602	1200.529607597521	1
2	5607	1201.39200794541	0
2	5611	1202.353929158131	1
2	5612	1202.435880318961	0
2	5619	1204.114752850134	1
2	5620	1204.580081474713	0
2	5629	1205.965066718567	1
2	5630	1206.841393610395	0
2	5652	1210.776084767968	1
2	5657	1211.751319239407	0
2	5664	1213.575991914465	1
2	5665	1213.580566011302	0
2	5674	1214.835690477236	1
2	5680	1215.753806006381	2
2	5681	1215.828815931108	1
2	5686	1216.827032669287	0
2	5690	1217.213664344132	1
2	5692	1217.433736802495	2
2	5693	1217.629650401722	1
2	5697	1217.898784882569	2
2	5699	1218.507044444341	3
2	5700	1218.730447396755	2
2	5703	1219.766567939918	1
2	5706	1220.714060578521	0
2	5710	1221.568284409756	1
2	5711	1221.672719173532	0
2	5715	1222.110245350581	1
2	5716	1222.720495826125	0
2	5720	1223.446019796639	1
2	5721	1223.692314107369	0
2	5725	1224.314119045192	1
2	5726	1224.632830087773	0
2	5730	1224.659622813522	1
2	5732	1224.96135790059	2
2	5733	1225.693096292883	1
2	5737	1226.490307917922	2
2	5739	1226.684299268532	3
2	5741	1226.784903343751	4
2	5742	1226.873984473876	3
2	5745	1227.69187205483	2
2	5749	1228.388021733734	3
2	5750	1228.788138087585	2
2	5754	1228.941211294368	3
2	5755	1229.97922145643	2
2	5759	1230.641360747866	3
2	5760	1230.952755281168	2
2	5763	1232.015726722709	1
2	5767	1232.915290284976	2
2	5768	1232.922452084652	1
2	5772	1233.564644962307	2
2	5774	1233.727157207013	3
2	5775	1233.810092514685	2
2	5778	1234.733164019814	1
2	5782	1234.875966957236	2
2	5783	1235.86101942158	1
2	5787	1236.471923229422	2
2	5788	1237.042440705399	1
2	5792	1237.581221437079	2
2	5793	1237.890657161388	1
2	5796	1238.862734099969	0
2	5803	1240.431505749624	1
2	5805	1240.491411689516	2
2	5806	1240.666273765106	1
2	5811	1241.734980489433	0
2	5815	1241.790229589345	1
2	5816	1242.63113101295	0
2	5823	1243.732494532918	1
2	5825	1243.762044934016	2
2	5828	1244.673951339375	1
2	5833	1245.658229017935	0
2	5863	1252.443720102009	1
2	5865	1252.543011926842	2
2	5868	1252.923154340523	1
2	5873	1253.857136843658	0
2	5880	1255.45418618626	1
2	5881	1255.685039317819	0
2	5921	1264.299223551953	1
2	5922	1264.380070356117	0
2	5966	1272.920690423394	1
2	5969	1273.595228891752	0
2	5976	1275.588481811284	1
2	5977	1275.708250883992	0
2	5987	1278.198037193276	1
2	5989	1278.749326969947	2
2	5990	1278.764269365954	1
2	5994	1279.112416959698	2
2	5995	1279.816444965197	1
2	6000	1280.881591446443	0
2	6004	1281.455396212096	1
2	6005	1281.799486314809	0
2	6012	1283.060599904454	1
2	6014	1283.193301236469	2
2	6016	1283.825309988272	3
2	6017	1283.959275834193	2
2	6022	1285.110660009389	1
2	6026	1285.172124855289	2
2	6027	1286.202331855544	1
2	6031	1286.699112304565	2
2	6032	1287.120184571785	1
2	6035	1288.00957461989	0
2	6039	1288.317488833152	1
2	6040	1288.958048091759	0
2	6047	1289.921613341182	1
2	6049	1289.960180346944	2
2	6050	1290.84472691298	1
2	6053	1291.781459536334	0
2	6062	1293.551797011927	1
2	6063	1293.665441030567	0
2	6067	1293.856960616451	1
2	6070	1294.803582744976	0
2	6076	1295.369562646982	1
2	6077	1295.614893308864	0
2	6084	1296.500908961577	1
2	6086	1296.563652251994	2
2	6087	1297.509688107041	1
2	6090	1298.56093684074	0
2	6103	1301.697696737183	1
2	6104	1302.21599643624	0
2	6111	1303.19790118177	1
2	6114	1304.255593021797	0
2	6122	1305.049319343994	1
2	6123	1305.438798333636	0
2	6132	1306.562210727619	1
2	6134	1306.807369372354	2
2	6135	1307.361573218859	1
2	6140	1308.263021343227	0
2	6147	1309.435642191007	1
2	6149	1309.756292784496	2
2	6151	1309.839109950681	3
2	6152	1310.186597921446	2
2	6157	1311.218607286856	1
2	6161	1311.92895301001	2
2	6162	1312.339684457172	1
2	6166	1312.40538577579	2
2	6167	1313.459481915951	1
2	6171	1313.477146231126	2
2	6172	1314.639687837873	1
2	6176	1315.207491127883	2
2	6177	1315.544842731327	1
2	6181	1315.717321673697	2
2	6182	1316.663681928281	1
2	6186	1316.899515264178	2
2	6187	1317.818232273989	1
2	6191	1317.86359900119	2
2	6193	1318.647087159493	3
2	6194	1318.697102230069	2
2	6198	1318.751252846784	3
2	6200	1319.206335555845	4
2	6201	1319.650199935053	3
2	6205	1319.659775640712	4
2	6206	1320.581936369956	3
2	6210	1320.91465603989	4
2	6211	1321.693121150535	3
2	6215	1321.710654768422	4
2	6216	1322.541591348619	3
2	6220	1322.882454014831	4
2	6221	1323.444076880001	3
2	6225	1323.579938121045	4
2	6226	1324.260091292419	3
2	6229	1325.115632528373	2
2	6232	1326.04098934506	1
2	6236	1326.5022449231	2
2	6237	1326.89785887462	1
2	6241	1327.102010966978	2
2	6242	1327.790649359142	1
2	6246	1328.477607608465	2
2	6247	1328.987426274949	1
2	6251	1329.124268886221	2
2	6253	1329.53220145186	3
2	6254	1330.068743977444	2
2	6258	1330.236535042995	3
2	6259	1331.185622756677	2
2	6263	1331.669418568558	3
2	6264	1332.26396041506	2
2	6268	1332.736285429489	3
2	6270	1333.125522128888	4
2	6271	1333.441095478209	3
2	6274	1334.470036597578	2
2	6278	1335.404035431665	3
2	6279	1335.66270953075	2
2	6282	1336.629485521214	1
2	6286	1337.239474216172	2
2	6287	1337.555816635238	1
2	6291	1337.913525476961	2
2	6293	1338.0435411453	3
2	6295	1338.255270386568	4
2	6297	1338.334436573029	5
2	6298	1338.619743175926	4
2	6302	1339.157147129873	5
2	6305	1339.64844314375	4
2	6308	1340.599357188987	3
2	6312	1340.704873878525	4
2	6313	1341.705267445678	3
2	6317	1341.905183431044	4
2	6318	1342.591992649464	3
2	6321	1343.404287721617	2
2	6325	1343.94826080968	3
2	6327	1344.182576726572	4
2	6328	1344.289714557426	3
2	6332	1345.070613093735	4
2	6334	1345.13503442063	5
2	6335	1345.322168559702	4
2	6338	1346.286231837077	3
2	6341	1347.168507537087	2
2	6344	1348.328290268434	1
2	6348	1349.089710529938	2
2	6350	1349.187626362542	3
2	6351	1349.490294670062	2
2	6354	1350.551887854496	1
2	6358	1351.447592252742	2
2	6359	1351.492529515205	1
2	6364	1352.573862622147	0
2	6368	1352.666456402935	1
2	6369	1353.601187847955	0
2	6373	1353.980038559988	1
2	6375	1354.305879775722	2
2	6376	1354.489389960961	1
2	6380	1354.521742528512	2
2	6381	1355.376114084599	1
2	6384	1356.238134461855	0
2	6388	1356.609969484229	1
2	6390	1357.305432748253	2
2	6391	1357.394078009324	1
2	6395	1357.969981260032	2
2	6396	1358.493465342866	1
2	6400	1358.86968215781	2
2	6401	1359.337264883918	1
2	6404	1360.454633996384	0
2	6408	1361.05557404239	1
2	6409	1361.336304387292	0
2	6413	1361.868630657097	1
2	6414	1362.458104190817	0
2	6421	1363.930098073683	1
2	6422	1364.42546702263	0
2	6437	1367.45115001112	1
2	6440	1368.5294655531	0
2	6444	1368.823213517616	1
2	6447	1369.386224052432	0
2	6453	1369.949605884118	1
2	6454	1370.569074995658	0
2	6461	1371.975767010152	1
2	6462	1372.691809000662	0
2	6469	1374.370821592372	1
2	6471	1374.463352693926	2
2	6472	1374.80420222695	1
2	6475	1375.951421195017	0
2	6482	1377.473697040067	1
2	6485	1378.214226346584	0
2	6497	1381.017550278296	1
2	6498	1381.078678071527	0
2	6508	1383.27199611207	1
2	6511	1384.097414030349	0
2	6527	1386.492359267684	1
2	6528	1387.039893918606	0
2	6538	1389.185182433199	1
2	6539	1390.175816612812	0
2	6564	1396.319921615086	1
2	6565	1396.32315308501	0
2	6581	1398.960141794783	1
2	6582	1399.094717485858	0
2	6593	1400.00547820932	1
2	6599	1400.684002931073	2
2	6600	1400.901504756725	1
2	6605	1402.010617200034	0
2	6612	1403.285287012371	1
2	6614	1403.917512864291	2
2	6615	1404.266677088785	1
2	6618	1405.09067009206	0
2	6622	1405.396633582499	1
2	6623	1406.239973651646	0
2	6627	1406.923622524139	1
2	6628	1407.434838238852	0
2	6643	1410.777862923827	1
2	6645	1410.815821360992	2
2	6646	1411.815538629917	1
2	6650	1411.896933326327	2
2	6655	1412.6556162393	1
2	6659	1412.720358330522	2
2	6662	1413.805619107867	1
2	6666	1414.569626670101	2
2	6667	1414.861082534427	1
2	6670	1415.969089471111	0
2	6674	1416.575765600658	1
2	6676	1416.908166809811	2
2	6677	1416.945465402054	1
2	6681	1417.466149815599	2
2	6683	1417.494549726613	3
2	6684	1418.130307219485	2
2	6688	1419.070479418823	3
2	6689	1419.138924039835	2
2	6692	1419.95874238315	1
2	6696	1420.487198545701	2
2	6698	1420.756533722929	3
2	6699	1421.086238746186	2
2	6703	1421.399525690995	3
2	6704	1422.094526057066	2
2	6707	1423.091886508306	1
2	6711	1423.414246766642	2
2	6712	1424.114927534135	1
2	6716	1424.64988509675	2
2	6717	1425.228489018818	1
2	6720	1426.127239581504	0
2	6724	1426.312073778941	1
2	6726	1426.549989383268	2
2	6728	1426.77788328037	3
2	6729	1427.305857918159	2
2	6734	1428.408840413884	1
2	6738	1428.415266076615	2
2	6740	1429.135735427815	3
2	6741	1429.261386329056	2
2	6744	1430.313959835683	1
2	6747	1431.311429361002	0
2	6751	1432.052710430183	1
2	6752	1432.246701483828	0
2	6756	1432.643299846911	1
2	6757	1433.191792043698	0
2	6761	1433.253096481845	1
2	6763	1434.168692826988	2
2	6764	1434.18213273215	1
2	6768	1434.869982099571	2
2	6771	1435.192039007255	1
2	6774	1436.170140820955	0
2	6778	1436.876409447106	1
2	6779	1437.143804866289	0
2	6783	1437.458348570958	1
2	6784	1437.987574676917	0
2	6788	1438.179978847287	1
2	6789	1438.811813109116	0
2	6793	1439.183924373119	1
2	6796	1439.827070561079	0
2	6806	1441.987948363563	1
2	6808	1442.309974305911	2
2	6809	1442.81394270922	1
2	6814	1443.639249827274	0
2	6818	1444.419602670473	1
2	6819	1444.699418097109	0
2	6823	1445.742900768122	1
2	6824	1445.773993608568	0
2	6828	1446.190999029422	1
2	6829	1446.857131641198	0
2	6833	1447.068171368744	1
2	6835	1447.265866088808	2
2	6836	1448.049549535222	1
2	6840	1448.055656057174	2
2	6841	1449.135693613372	1
2	6844	1450.030209547027	0
2	6854	1452.638691501779	1
2	6855	1452.893040646359	0
2	6864	1455.063959389897	1
2	6866	1455.064297161383	2
2	6867	1455.124218232118	1
2	6873	1455.595075300438	2
2	6875	1455.604916793266	3
2	6878	1456.259866522372	2
2	6882	1456.385166945564	3
2	6884	1456.767314255856	4
2	6885	1457.369703606636	3
2	6888	1458.203012351346	2
2	6892	1458.533892900507	3
2	6893	1459.202818316341	2
2	6896	1460.17362206078	1
2	6900	1460.952615103935	2
2	6901	1461.133758927163	1
2	6905	1461.415101930941	2
2	6907	1461.899196303756	3
2	6908	1462.288835271661	2
2	6913	1463.243150637326	1
2	6917	1463.628760130031	2
2	6919	1463.674472303013	3
2	6920	1464.316211222698	2
2	6923	1465.499611744684	1
2	6930	1466.643664056928	0
2	6934	1466.814274631379	1
2	6936	1466.885720374333	2
2	6938	1467.779944300121	3
2	6939	1467.800874152714	2
2	6943	1468.064049903467	3
2	6944	1468.987081622919	2
2	6948	1469.000208036867	3
2	6949	1469.83749604675	2
2	6953	1470.719586693797	3
2	6954	1470.760575616481	2
2	6958	1471.535514336206	3
2	6959	1471.755483345902	2
2	6964	1472.890816945611	1
2	6968	1472.90236796788	2
2	6970	1473.656445098554	3
2	6971	1473.880562856915	2
2	6974	1475.064524248643	1
2	6978	1475.249189599208	2
2	6979	1475.967910187068	1
2	6983	1476.273287424891	2
2	6985	1476.430511111835	3
2	6986	1477.143547350569	2
2	6990	1477.384264986441	3
2	6991	1478.26429562944	2
2	6995	1478.514639936118	3
2	6996	1479.234271464152	2
2	7000	1479.575109163368	3
2	7001	1480.194362365855	2
2	7005	1481.226787303661	3
2	7006	1481.349060739046	2
2	7010	1481.654174429379	3
2	7011	1482.436622581752	2
2	7015	1482.650480771217	3
2	7016	1483.537722769873	2
2	7020	1484.261344412098	3
2	7021	1484.57724675362	2
2	7026	1485.690624335809	1
2	7029	1486.514235330774	0
2	7033	1486.974844209547	1
2	7034	1487.464708491071	0
2	7041	1488.765714648913	1
2	7042	1489.493034402962	0
2	7048	1489.881605323585	1
2	7050	1490.437365923023	2
2	7051	1490.567349912814	1
2	7055	1491.059216052192	2
2	7056	1491.417461563024	1
2	7061	1492.413462385564	0
2	7065	1492.47765217996	1
2	7066	1493.29555338149	0
2	7070	1494.227701762281	1
2	7071	1494.308093761495	0
2	7075	1495.149663344223	1
2	7076	1495.501120079803	0
2	7080	1495.581804490165	1
2	7082	1496.107611061235	2
2	7083	1496.444218011881	1
2	7087	1496.533269220432	2
2	7089	1497.165384005684	3
2	7090	1497.36776120321	2
2	7094	1497.434787446564	3
2	7095	1498.405028228863	2
2	7098	1499.325922457903	1
2	7102	1500.023251925136	2
2	7103	1500.439044940687	1
2	7107	1501.212059940456	2
2	7108	1501.426672731462	1
2	7112	1501.591971293367	2
2	7114	1501.879976317122	3
2	7116	1502.052496555486	4
2	7117	1502.475241473998	3
2	7120	1503.548567345209	2
2	7123	1504.576297283295	1
2	7126	1505.693565068237	0
2	7130	1506.226063127124	1
2	7132	1506.622250763203	2
2	7133	1506.872083125572	1
2	7136	1507.76467187985	0
2	7143	1508.913417069002	1
2	7145	1508.921280423308	2
2	7147	1509.050362070251	3
2	7148	1509.615996830474	2
2	7151	1510.438825836062	1
2	7155	1510.799211982119	2
2	7158	1511.413185756869	1
2	7163	1512.250686965633	0
2	7170	1513.644188566566	1
2	7171	1514.422312075302	0
2	7183	1516.374552970911	1
2	7187	1517.295370567844	2
2	7188	1517.511696466647	1
2	7192	1517.777104869189	2
2	7193	1518.500700350322	1
2	7197	1519.177976886384	2
2	7198	1519.685031077109	1
2	7203	1520.709759625449	0
2	7207	1521.29698539283	1
2	7209	1521.518864569094	2
2	7210	1521.666327946848	1
2	7214	1522.334150937416	2
2	7215	1522.859320250555	1
2	7219	1522.938933940638	2
2	7221	1523.556346212947	3
2	7222	1523.843341752636	2
2	7225	1524.669010897196	1
2	7229	1525.674523008292	2
2	7230	1525.705572328652	1
2	7234	1526.365385224202	2
2	7235	1526.881120533711	1
2	7239	1527.310350644162	2
2	7240	1527.922606600663	1
2	7243	1529.087945501162	0
2	7252	1530.410829964795	1
2	7253	1530.713512061844	0
2	7265	1533.104178268996	1
2	7266	1533.724228444165	0
2	7270	1533.792013949806	1
2	7273	1534.812439529812	0
2	7277	1534.945724800711	1
2	7278	1535.816224577026	0
2	7298	1540.791105315663	1
2	7299	1540.857827960448	0
2	7359	1555.399354489367	1
2	7364	1556.157258250873	0
2	7374	1557.24584530249	1
2	7375	1557.297327823594	0
2	7381	1558.270459919783	1
2	7382	1558.419239453908	0
2	7393	1559.850071605886	1
2	7394	1560.323788010638	0
2	7403	1561.954917726528	1
2	7404	1562.593724782702	0
2	7413	1564.771056133869	1
2	7414	1564.971261116147	0
2	7418	1565.068206278557	1
2	7422	1565.618421062948	2
2	7423	1566.138013897121	1
2	7427	1566.39016517027	2
2	7428	1567.048220274627	1
2	7432	1567.52410908535	2
2	7433	1568.057790368546	1
2	7436	1569.021219324071	0
2	7440	1569.48787082631	1
2	7441	1570.052357706271	0
2	7445	1570.267833867115	1
2	7446	1571.111904987257	0
2	7530	1589.493367698212	1
2	7531	1589.633417469387	0
2	7540	1591.479071131117	1
2	7541	1591.559659197026	0
2	7553	1593.655330841693	1
2	7556	1594.844919881721	0
2	7565	1596.147333772586	1
2	7566	1596.712583028649	0
2	7578	1598.670135864941	1
2	7580	1598.692967663329	2
2	7581	1599.702532274865	1
2	7585	1599.95204290047	2
2	7586	1600.839699910332	1
2	7589	1601.805537446153	0
2	7593	1602.291074959641	1
2	7594	1602.834955174879	0
2	7598	1603.216850583605	1
2	7599	1603.706722304628	0
2	7606	1604.892863715274	1
2	7607	1605.933387404245	0
2	7614	1607.249857381194	1
2	7615	1607.892187662826	0
2	7622	1608.864828645465	1
2	7623	1609.71773683525	0
2	7637	1611.663370964621	1
2	7638	1612.503426771362	0
2	7645	1613.691893065601	1
2	7646	1614.549613463909	0
2	7658	1617.110923261869	1
2	7661	1617.808416654014	0
2	7668	1619.404559748675	1
2	7669	1619.834642452219	0
2	7713	1628.451896648323	1
2	7714	1629.061849364763	0
2	7726	1630.972212988569	1
2	7729	1631.789367939564	0
2	7741	1634.252647717438	1
2	7744	1634.618159900173	0
2	7753	1635.98926420885	1
2	7754	1636.910906905714	0
2	7765	1637.945928666854	1
2	7767	1638.315114825883	2
2	7768	1638.848551456291	1
2	7771	1639.728453209843	0
2	7780	1640.685064181536	1
2	7782	1641.273452703252	2
2	7783	1641.579063992515	1
2	7788	1642.604711069573	0
2	7805	1645.542386196358	1
2	7808	1646.372592664544	0
2	7815	1647.276548045515	1
2	7816	1648.298567035362	0
2	7823	1650.319932110677	1
2	7826	1650.570392942462	0
2	7833	1651.670355813451	1
2	7836	1652.464825771968	0
2	7840	1652.502833471221	1
2	7841	1653.333892546441	0
2	7845	1653.347620805336	1
2	7847	1653.375655399933	2
2	7848	1654.482491755519	1
2	7852	1655.41299628968	2
2	7853	1655.605981365066	1
2	7857	1656.126843251397	2
2	7858	1656.697893608861	1
2	7862	1657.253313314998	2
2	7863	1657.677556731772	1
2	7867	1657.971342533839	2
2	7868	1658.772407821413	1
2	7871	1659.802897709828	0
2	7881	1661.940001755654	1
2	7883	1662.016427831509	2
2	7886	1662.802852652442	1
2	7889	1663.984831929241	0
2	7893	1664.042623200415	1
2	7894	1664.960033687238	0
2	7898	1665.151676496882	1
2	7899	1665.804597605706	0
2	7906	1667.476647862861	1
2	7907	1667.698195507598	0
2	7911	1668.485404100793	1
2	7912	1668.787584951834	0
2	7916	1668.936580282022	1
2	7917	1669.877737472241	0
2	7924	1671.684061501449	1
2	7925	1671.939708512963	0
2	7935	1674.286574261819	1
2	7936	1674.596559116372	0
2	7947	1675.913558607441	1
2	7950	1676.509297158045	0
2	7959	1678.582600498491	1
2	7960	1678.702101392893	0
2	7969	1680.378483832016	1
2	7970	1680.881095994392	0
2	7977	1681.876534106475	1
2	7978	1682.709055754112	0
2	8056	1697.164378909251	1
2	8057	1697.226879500259	0
2	8072	1701.138417357897	1
2	8073	1701.462624750227	0
2	8082	1702.687300430605	1
2	8083	1703.284804190263	0
2	8097	1705.787322237105	1
2	8098	1705.987414599896	0
2	8107	1707.741969546797	1
2	8108	1707.939595380926	0
2	8112	1708.420783662933	1
2	8113	1708.999829236267	0
2	8117	1709.520243171676	1
2	8119	1709.584334290176	2
2	8120	1710.197457413969	1
2	8123	1711.249417262373	0
2	8127	1711.713137952239	1
2	8128	1712.30020607583	0
2	8132	1712.308323208182	1
2	8133	1713.242043947743	0
2	8137	1714.206385237311	1
2	8138	1714.24146509798	0
2	8142	1714.620212981633	1
2	8143	1715.397234219068	0
2	8153	1717.818152696741	1
2	8156	1718.287708274776	0
2	8162	1718.850956456744	1
2	8163	1719.431864300219	0
2	8170	1721.386868806167	1
2	8171	1721.612733814901	0
2	8180	1723.206943143921	1
2	8181	1723.424702355301	0
2	8190	1724.800354706711	1
2	8191	1725.513637886698	0
2	8203	1727.903887647639	1
2	8204	1728.530400258711	0
2	8208	1729.164871707451	1
2	8209	1729.717106038368	0
2	8216	1730.660240362367	1
2	8222	1731.237618759742	2
2	8223	1731.554242365843	1
2	8226	1732.497925327195	0
2	8235	1733.596446873538	1
2	8236	1734.325019735506	0
2	8245	1735.792035863093	1
2	8246	1736.124877153001	0
2	8250	1736.669520819001	1
2	8251	1737.320707154031	0
2	8258	1739.015640971987	1
2	8259	1739.28749582948	0
2	8266	1740.679683423921	1
2	8268	1741.021251275559	2
2	8269	1741.036922154239	1
2	8272	1742.125925067476	0
2	8279	1743.282322237765	1
2	8281	1744.033747126928	2
2	8282	1744.273665120862	1
2	8287	1745.391188475899	0
2	8291	1745.700213011464	1
2	8292	1746.541197321042	0
2	8305	1749.675857640061	1
2	8308	1750.102726233788	0
2	8317	1751.120226883689	1
2	8318	1751.988484315705	0
2	8330	1754.988440128276	1
2	8331	1755.079765990693	0
2	8340	1756.698179836831	1
2	8341	1757.14516541794	0
2	8352	1758.936842442363	1
2	8353	1759.302137211283	0
2	8357	1759.770331525455	1
2	8358	1760.349373321926	0
2	8365	1761.271798153267	1
2	8367	1761.452217079367	2
2	8370	1762.226972663069	1
2	8375	1763.330969973413	0
2	8379	1764.135838363335	1
2	8380	1764.375631852859	0
2	8387	1765.331602372095	1
2	8389	1765.511272543723	2
2	8390	1766.077346266658	1
2	8393	1767.241428292115	0
2	8400	1768.227733374083	1
2	8402	1768.669609556128	2
2	8403	1769.199645616152	1
2	8408	1770.116969228574	0
2	8412	1770.443426891967	1
2	8413	1771.290854069442	0
2	8417	1771.786777576598	1
2	8421	1771.888106700467	2
2	8422	1772.306877465118	1
2	8426	1772.771459232667	2
2	8427	1773.283163811956	1
2	8430	1774.263992306441	0
2	8434	1774.557796625993	1
2	8435	1775.232055617161	0
2	8439	1775.837732035048	1
2	8440	1776.127194670346	0
2	8444	1776.726060630384	1
2	8445	1777.073177535031	0
2	8465	1781.882009845382	1
2	8466	1782.295171054303	0
2	8480	1784.80405100989	1
2	8481	1785.366744763068	0
2	8490	1786.910873370565	1
2	8491	1787.155655895023	0
2	8495	1787.2238996841	1
2	8496	1788.182594832907	0
2	8500	1788.650318192486	1
2	8502	1789.006899809402	2
2	8503	1789.14235341776	1
2	8506	1789.970295275131	0
2	8510	1790.269695433815	1
2	8511	1791.121626969276	0
2	8517	1791.804030797146	1
2	8518	1792.060363958159	0
2	8522	1792.650762073284	1
2	8523	1793.179908327328	0
2	8527	1793.421838086491	1
2	8529	1793.680153725311	2
2	8531	1794.194301960249	3
2	8532	1794.295290946903	2
2	8535	1795.256833265012	1
2	8539	1795.488632629978	2
2	8540	1796.166326541489	1
2	8544	1796.682974655284	2
2	8545	1796.996792618966	1
2	8549	1797.870962047279	2
2	8550	1797.947034172656	1
2	8553	1798.750041475276	0
2	8560	1800.516288208062	1
2	8562	1800.618451855801	2
2	8563	1801.079866363889	1
2	8568	1802.255975698715	0
2	8572	1802.524367938103	1
2	8573	1803.143205482548	0
2	8580	1804.544482754685	1
2	8581	1805.345769748593	0
2	8585	1806.175067550359	1
2	8586	1806.36835830476	0
2	8590	1807.177263771808	1
2	8591	1807.288064620493	0
2	8595	1807.41003150435	1
2	8596	1808.42383820446	0
2	8605	1810.241341087275	1
2	8606	1810.420172882581	0
2	8610	1810.46183335135	1
2	8615	1811.361746121606	0
2	8619	1811.90235999697	1
2	8620	1812.277316184005	0
2	8624	1812.485649495875	1
2	8625	1813.166539476568	0
2	8631	1813.657936847338	1
2	8632	1814.026493574342	0
2	8636	1814.84703296799	1
2	8637	1815.191932742613	0
2	8644	1817.48232102864	1
2	8645	1817.558179349023	0
2	8671	1823.834472443624	1
2	8672	1823.997879078554	0
2	8676	1824.038053319257	1
2	8679	1825.157735052181	0
2	8683	1825.898454598921	1
2	8684	1826.309044426342	0
2	8702	1829.259724876726	1
2	8704	1829.535081098615	2
2	8705	1829.747689317667	1
2	8710	1830.668453774356	0
2	8719	1832.754622740895	1
2	8720	1832.932458055985	0
2	8724	1833.394612948357	1
2	8725	1833.843701152352	0
2	8731	1834.5059120855	1
2	8732	1834.663061998447	0
2	8736	1834.755257836714	1
2	8737	1835.6009591482	0
2	8746	1836.863937096022	1
2	8749	1837.693333989044	0
2	8756	1839.192180724608	1
2	8759	1839.854371655767	0
2	8772	1843.103927051936	1
2	8775	1843.958316744899	0
2	8786	1845.379743729259	1
2	8789	1846.224658827891	0
2	8795	1847.052953566456	1
2	8796	1847.212691109942	0
2	8800	1847.946612133933	1
2	8801	1848.12405985737	0
2	8805	1848.728453437926	1
2	8806	1849.081668214814	0
2	8810	1849.888397174284	1
2	8811	1850.140913861652	0
2	8815	1850.389714186343	1
2	8816	1851.304685360228	0
2	8820	1851.836118348906	1
2	8821	1852.151621053123	0
2	8832	1853.738789040068	1
2	8833	1854.301453818508	0
2	8843	1856.50166275312	1
2	8846	1857.37595273148	0
2	8855	1858.979970201246	1
2	8856	1859.557984840438	0
2	8867	1861.629228436538	1
2	8868	1861.770010786444	0
2	8875	1862.757656020987	1
2	8878	1863.531843882832	0
2	8911	1871.515508581688	1
2	8912	1872.283856452663	0
2	8921	1873.561876395751	1
2	8924	1874.452408405335	0
2	8931	1875.307786783828	1
2	8932	1876.14636184707	0
2	8945	1878.108004650992	1
2	8946	1878.189341798553	0
2	8976	1885.348971866969	1
2	8977	1886.047727421799	0
2	8986	1887.270626506981	1
2	8987	1887.862535335159	0
2	8991	1888.154513741025	1
2	8992	1888.888090303389	0
2	9004	1891.470202450272	1
2	9007	1892.227784433251	0
2	9011	1892.463182243509	1
2	9012	1893.07424519792	0
2	9024	1895.645300128828	1
2	9025	1896.214686018822	0
2	9029	1896.535799638664	1
2	9032	1897.273617911932	0
2	9039	1899.184412831387	1
2	9040	1899.358838662167	0
2	9050	1901.827183936548	1
2	9052	1901.902070023147	2
2	9053	1902.414365127903	1
2	9056	1903.395805449166	0
2	9060	1903.529354224944	1
2	9065	1904.440331016794	0
2	9071	1905.167064301898	1
2	9072	1905.316468652465	0
2	9269	1947.192632375856	1
2	9270	1947.203704349356	0
2	9282	1949.486260576428	1
2	9285	1950.119672022047	0
2	9291	1950.48856338606	1
2	9292	1951.238606196953	0
2	9303	1952.635622124574	1
2	9304	1953.437842876589	0
2	9318	1955.681393192772	1
2	9320	1955.685042916877	2
2	9322	1956.001786324935	3
2	9323	1956.267414313214	2
2	9328	1957.413293835832	1
2	9331	1958.236387696056	0
2	9343	1960.516783560039	1
2	9347	1960.916040887491	2
2	9348	1961.681524901217	1
2	9352	1961.983159111457	2
2	9357	1962.576651353607	1
2	9361	1962.836440470927	2
2	9362	1963.460768741308	1
2	9365	1964.335524132321	0
2	9374	1965.655448311417	1
2	9375	1966.286475276234	0
2	9382	1968.115017359645	1
2	9383	1968.28654144158	0
2	9387	1968.45946238947	1
2	9390	1969.481184754086	0
2	9399	1970.578395829454	1
2	9401	1970.772590923137	2
2	9402	1971.50172559352	1
2	9407	1972.317949669094	0
2	9411	1972.363344176252	1
2	9412	1973.24450733851	0
2	9416	1973.757658672866	1
2	9417	1974.189863898915	0
2	9427	1976.656852938062	1
2	9428	1977.290325480264	0
2	9508	1994.013344648514	1
2	9509	1994.362034367893	0
2	9518	1995.285064932663	1
2	9520	1995.66935203411	2
2	9521	1996.370394445986	1
2	9524	1997.248048375298	0
2	9539	2000.554514421591	1
2	9542	2001.125572977711	0
2	9551	2002.695247354977	1
2	9552	2002.863900997148	0
2	9563	2004.53592361108	1
2	9564	2004.538365924761	0
2	9573	2006.088537104908	1
2	9574	2006.90983502039	0
2	9581	2007.913318461501	1
2	9582	2008.838320376941	0
2	9586	2009.570938929991	1
2	9587	2009.802830133525	0
2	9591	2010.280891003327	1
2	9592	2010.745540194524	0
2	9596	2010.9974018708	1
2	9597	2011.743788200927	0
2	9601	2012.549864955972	1
2	9602	2012.657551528358	0
2	9606	2013.187192472426	1
2	9607	2013.581043625188	0
2	9611	2013.710748806975	1
2	9613	2014.473129242211	2
2	9614	2014.64970101652	1
2	9618	2015.090306297701	2
2	9620	2015.574731571469	3
2	9621	2015.630668729295	2
2	9624	2016.464080056206	1
2	9628	2016.640935543987	2
2	9630	2016.882682801664	3
2	9631	2017.506192273863	2
2	9635	2018.094760849398	3
2	9636	2018.374622763444	2
2	9639	2019.412745532144	1
2	9643	2019.721134328144	2
2	9644	2020.551264457528	1
2	9648	2020.78652099159	2
2	9649	2021.432649152477	1
2	9653	2021.635805227916	2
2	9654	2022.270951283102	1
2	9658	2023.251245743196	2
2	9659	2023.445255812381	1
2	9662	2024.415290433478	0
2	9666	2024.93978736461	1
2	9667	2025.375815063373	0
2	9671	2025.848468585246	1
2	9672	2026.329145970505	0
2	9676	2026.57940496102	1
2	9677	2027.391308158573	0
2	9681	2027.794298535014	1
2	9682	2028.400157615386	0
2	9689	2029.408722254261	1
2	9691	2030.111358671049	2
2	9692	2030.577328132589	1
2	9696	2031.282729464445	2
2	9697	2031.669572935843	1
2	9701	2032.162251754051	2
2	9702	2032.488442843624	1
2	9705	2033.545972760797	0
2	9709	2033.686120670862	1
2	9711	2034.085968373319	2
2	9712	2034.533749714151	1
2	9716	2034.642391977979	2
2	9717	2035.570336433902	1
2	9722	2036.41731019796	0
2	9726	2037.272402845477	1
2	9727	2037.449489284802	0
2	9731	2037.506543385333	1
2	9733	2037.67163364306	2
2	9734	2038.442015902914	1
2	9738	2039.044660169018	2
2	9740	2039.067052590779	3
2	9741	2039.381478820026	2
2	9744	2040.494835256629	1
2	9748	2040.516502624451	2
2	9749	2041.676252437692	1
2	9753	2042.412170181827	2
2	9754	2042.49620291575	1
2	9758	2043.178657529066	2
2	9759	2043.417353638012	1
2	9762	2044.558274901595	0
2	9769	2045.627165464563	1
2	9771	2046.053487457742	2
2	9772	2046.470623139788	1
2	9776	2047.273092959699	2
2	9777	2047.316242277187	1
2	9783	2047.930423064551	2
2	9784	2048.403673624091	1
2	9788	2048.690292121989	2
2	9789	2049.268479085278	1
2	9793	2049.781548802005	2
2	9796	2050.340431548592	1
2	9800	2050.430066925801	2
2	9801	2051.389998545714	1
2	9805	2051.623242491086	2
2	9806	2052.299194920838	1
2	9810	2053.04328494738	2
2	9811	2053.38910410668	1
2	9815	2053.834034848234	2
2	9816	2054.497226188083	1
2	9820	2055.02937716474	2
2	9821	2055.630473277376	1
2	9825	2056.695541930008	2
2	9826	2056.699510820241	1
2	9830	2057.51941516612	2
2	9831	2057.520042388172	1
2	9834	2058.505923171838	0
2	9851	2061.97232208469	1
2	9853	2061.981748150023	2
2	9854	2062.816584949505	1
2	9857	2063.821199297749	0
2	9861	2064.597941637088	1
2	9862	2064.744546487958	0
2	9877	2068.192283115487	1
2	9879	2068.545758961727	2
2	9880	2068.569703509316	1
2	9885	2069.758938097704	0
2	9902	2072.826502431994	1
2	9903	2073.337152717291	0
2	9910	2074.824706609221	1
2	9911	2075.41324378674	0
2	9968	2087.581950566537	1
2	9969	2087.635299629002	0
2	9978	2088.97489269483	1
2	9981	2089.602072023164	0
2	9985	2090.424316380064	1
2	9988	2090.734808140743	0
2	9995	2092.180923830823	1
2	9996	2092.428696281678	0
2	10065	2106.681369333537	1
2	10066	2107.756665279279	0
2	10077	2109.365301513741	1
2	10078	2109.483183175726	0
2	10092	2112.00828039801	1
2	10093	2112.655464453931	0
2	10104	2114.311582684252	1
2	10105	2114.388395201723	0
2	10114	2115.398615342819	1
2	10115	2116.292207699763	0
2	10124	2117.918705952186	1
2	10125	2118.318877160298	0
2	10132	2119.340991386622	1
2	10133	2120.442410554206	0
2	10137	2120.500346278724	1
2	10140	2121.300836984189	0
2	10144	2121.642836410592	1
2	10145	2122.415500339428	0
2	10149	2123.251385750842	1
2	10152	2123.35073409549	0
2	10156	2123.888340676515	1
2	10157	2124.354076986509	0
2	10161	2124.66491887043	1
2	10162	2125.348196040867	0
2	10169	2126.592299686257	1
2	10171	2127.115629739972	2
2	10173	2127.464089515162	3
2	10174	2127.520890231831	2
2	10178	2128.007514454612	3
2	10179	2128.429532797942	2
2	10182	2129.402999301469	1
2	10187	2130.353662774088	0
2	10191	2131.353308953641	1
2	10192	2131.398473510267	0
2	10201	2133.034822129816	1
2	10202	2133.446615191856	0
2	10206	2134.130144901296	1
2	10208	2134.182301081177	2
2	10209	2134.319779778486	1
2	10213	2134.983206678255	2
2	10214	2135.405811418807	1
2	10218	2135.532252678314	2
2	10219	2136.257431862438	1
2	10223	2137.081854790884	2
2	10224	2137.131341106659	1
2	10228	2137.857053676724	2
2	10229	2138.290456575556	1
2	10232	2139.113163655466	0
2	10236	2139.60032306022	1
2	10237	2140.217961711279	0
2	10244	2141.63536080379	1
2	10245	2142.448406002327	0
2	10249	2143.254282810264	1
2	10250	2143.291367934487	0
2	10254	2143.859468857157	1
2	10255	2144.312963360205	0
2	10270	2147.39426453165	1
2	10272	2147.412206288856	2
2	10273	2148.256053536693	1
2	10278	2149.319085557508	0
2	10282	2149.601133528511	1
2	10285	2150.297456896799	0
2	10289	2151.027850579818	1
2	10292	2151.364996883301	0
2	10296	2151.912079831061	1
2	10297	2152.503506882796	0
2	10301	2152.873899419338	1
2	10302	2153.618171239765	0
2	10306	2154.312564741849	1
2	10307	2154.783826626213	0
2	10314	2156.050786860043	1
2	10316	2156.371924970174	2
2	10317	2156.648246838553	1
2	10323	2157.582891282353	2
2	10324	2157.747586120973	1
2	10329	2158.748657907202	0
2	10333	2158.938239916155	1
2	10335	2159.032209246736	2
2	10336	2159.823614447127	1
2	10339	2160.642341734405	0
2	10346	2162.195998430065	1
2	10347	2162.546133413102	0
2	10351	2162.701080801663	1
2	10353	2162.803650726518	2
2	10354	2163.702378191456	1
2	10357	2164.649788218021	0
2	10361	2164.993715248764	1
2	10362	2165.742524829164	0
2	10368	2166.394146425803	1
2	10369	2166.626329185564	0
2	10373	2167.44309486535	1
2	10374	2167.560633646075	0
2	10381	2169.175731089161	1
2	10382	2169.189631585714	0
2	10391	2170.246641774622	1
2	10392	2171.14529060948	0
2	10401	2172.716806922932	1
2	10402	2173.226777590656	0
2	10411	2174.757240891395	1
2	10412	2175.123092399941	0
2	10421	2176.193866494721	1
2	10422	2177.214615189035	0
2	10569	2207.043624561135	1
2	10571	2207.626291348693	2
2	10572	2207.86491611752	1
2	10575	2208.686718450517	0
2	10584	2209.831220044618	1
2	10587	2210.406396904059	0
2	10599	2213.192710443868	1
2	10602	2213.608012010745	0
2	10606	2214.205679581442	1
2	10607	2214.470724551036	0
2	10611	2215.077342872071	1
2	10612	2215.430309466953	0
2	10616	2215.924826107005	1
2	10617	2216.41637860884	0
2	10621	2216.652033350573	1
2	10623	2216.670814377048	2
2	10624	2217.340219045645	1
2	10628	2217.48139491104	2
2	10629	2218.414888507156	1
2	10635	2219.251708110472	2
2	10636	2219.381140219076	1
2	10639	2220.191600967972	0
2	10656	2223.258559030802	1
2	10660	2224.106649609257	2
2	10661	2224.342534440504	1
2	10665	2224.872169360501	2
2	10666	2225.424743395978	1
2	10670	2226.039401848445	2
2	10672	2226.125187880559	3
2	10673	2226.2987382212	2
2	10676	2227.1626054087	1
2	10679	2228.123986628773	0
2	10689	2230.228797109221	1
2	10690	2231.232682796876	0
2	10696	2231.735802325486	1
2	10697	2232.22734921354	0
2	10701	2232.835783253646	1
2	10702	2233.364830240637	0
2	10706	2233.785665451324	1
2	10707	2234.409826465446	0
2	10711	2235.115527472569	1
2	10712	2235.386435733765	0
2	10730	2239.846884408642	1
2	10735	2240.472278953747	0
2	10739	2240.931497831289	1
2	10742	2241.3286618342	0
2	10749	2242.84829900918	1
2	10751	2242.94582535264	2
2	10752	2243.194534739976	1
2	10755	2244.231486392145	0
2	10759	2244.407198946331	1
2	10762	2245.255077272684	0
2	10769	2247.128440358791	1
2	10770	2247.191085911014	0
2	10789	2250.248826259024	1
2	10791	2250.334433063746	2
2	10794	2251.065196555698	1
2	10799	2252.137744072111	0
2	10806	2253.119201278233	1
2	10808	2253.245638418172	2
2	10809	2253.947579743837	1
2	10814	2254.867301635661	0
2	10818	2255.353990941966	1
2	10819	2255.916617363443	0
2	10823	2256.481595378662	1
2	10824	2256.876633201012	0
2	10830	2257.917699256035	1
2	10831	2258.027894429056	0
2	10835	2258.442763491194	1
2	10836	2259.153406014511	0
2	10840	2260.003544669297	1
2	10841	2260.01383854424	0
2	10851	2262.804154964195	1
2	10854	2263.096206559086	0
2	10874	2267.191396276994	1
2	10875	2268.113233923664	0
2	10879	2268.442562748316	1
2	10880	2269.258782625137	0
2	10892	2271.793578942027	1
2	10893	2272.308863007309	0
2	10897	2272.458466250908	1
2	10900	2273.114128761957	0
2	10904	2273.140576866615	1
2	10905	2274.267834866358	0
2	10909	2275.330992362524	1
2	10910	2275.438455442371	0
2	10917	2277.384731202387	1
2	10918	2277.735605777925	0
2	10926	2278.201009992733	1
2	10930	2278.66392850954	2
2	10931	2278.778638020003	1
2	10935	2279.051013376958	2
2	10936	2279.930924675459	1
2	10940	2280.888488896693	2
2	10941	2280.889882840807	1
2	10944	2281.739344821623	0
2	10948	2282.581021229812	1
2	10950	2282.613660623143	2
2	10951	2282.644635007842	1
2	10955	2283.574446780942	2
2	10956	2283.72046615615	1
2	10960	2284.73948951217	2
2	10961	2284.800169332265	1
2	10965	2285.339972871513	2
2	10967	2285.410833110933	3
2	10969	2285.758972770236	4
2	10970	2285.920103261839	3
2	10974	2286.155826193894	4
2	10975	2286.778046138431	3
2	10978	2287.960290139667	2
2	10982	2288.819901003734	3
2	10983	2288.927019963539	2
2	10986	2289.919361542756	1
2	10990	2290.90030630629	2
2	10992	2290.911022850442	3
2	10993	2291.007352791759	2
2	10997	2291.778074625821	3
2	10998	2291.961775423991	2
2	11002	2292.142302807731	3
2	11003	2292.958274998362	2
2	11007	2293.226124029432	3
2	11009	2293.488605425778	4
2	11010	2293.873772390126	3
2	11013	2294.745449884175	2
2	11016	2295.671498069944	1
2	11020	2295.832256782863	2
2	11021	2296.570633119842	1
2	11025	2296.609087846471	2
2	11027	2297.506029350411	3
2	11028	2297.53989207813	2
2	11031	2298.522053073472	1
2	11034	2299.537399392328	0
2	11041	2301.421846610762	1
2	11042	2301.447319935947	0
2	11057	2304.718988450896	1
2	11059	2305.177867864443	2
2	11060	2305.491755568082	1
2	11064	2305.579928291003	2
2	11066	2305.772968610682	3
2	11068	2306.326984599373	4
2	11069	2306.633459704495	3
2	11074	2307.505894571482	2
2	11078	2308.173870234278	3
2	11079	2308.318082024376	2
2	11082	2309.290049039326	1
2	11086	2309.620091425552	2
2	11087	2310.268422122146	1
2	11091	2310.400912540702	2
2	11093	2310.940505465277	3
2	11094	2311.178565238728	2
2	11098	2311.458050705212	3
2	11100	2311.488328487684	4
2	11101	2312.034408130622	3
2	11105	2312.088197495302	4
2	11106	2313.027059032241	3
2	11110	2313.412306633385	4
2	11111	2313.92454980466	3
2	11115	2314.026160359009	4
2	11116	2314.973997291675	3
2	11120	2315.073406933956	4
2	11121	2316.051482261377	3
2	11125	2316.225676594997	4
2	11127	2316.295100393292	5
2	11129	2317.036803013833	6
2	11130	2317.211958247269	5
2	11134	2317.834366592635	6
2	11135	2318.408376211519	5
2	11139	2318.433612345118	6
2	11141	2318.605551078565	7
2	11142	2319.525255688033	6
2	11146	2320.377750923029	7
2	11147	2320.387293070308	6
2	11151	2320.583452166713	7
2	11153	2320.769311454808	8
2	11154	2321.513415610171	7
2	11158	2321.839903894627	8
2	11160	2322.191292158474	9
2	11161	2322.418092412255	8
2	11165	2322.487243412349	9
2	11166	2323.409277180522	8
2	11169	2324.387176553658	7
2	11172	2325.220280157621	6
2	11176	2326.253942468391	7
2	11177	2326.352878908007	6
2	11181	2326.732866183318	7
2	11182	2327.498648126176	6
2	11186	2327.803497097404	7
2	11188	2328.040758947724	8
2	11189	2328.584135527848	7
2	11192	2329.581628954163	6
2	11196	2329.865311286601	7
2	11197	2330.661334908692	6
2	11200	2331.645396019457	5
2	11203	2332.608826418439	4
2	11206	2333.438794681741	3
2	11210	2333.624258695734	4
2	11211	2334.562102569765	3
2	11216	2335.412286167531	2
2	11220	2335.985794681037	3
2	11221	2336.370069661676	2
2	11226	2337.199190548002	1
2	11230	2337.709512717213	2
2	11232	2337.919267159715	3
2	11233	2338.220250458769	2
2	11237	2338.964130404528	3
2	11238	2339.359714557822	2
2	11241	2340.542948246501	1
2	11245	2341.111015768867	2
2	11246	2341.547557764627	1
2	11249	2342.526930791546	0
2	11253	2343.254717735216	1
2	11255	2343.255865219985	2
2	11257	2343.679178004495	3
2	11258	2343.718850051273	2
2	11262	2344.355371014832	3
2	11263	2344.821529825624	2
2	11266	2345.861638656013	1
2	11269	2346.885362486389	0
2	11273	2347.463367069824	1
2	11275	2347.60054876033	2
2	11276	2347.742605965898	1
2	11279	2348.83094125617	0
2	11283	2349.106073733218	1
2	11284	2349.966821843606	0
2	11288	2350.1182755702	1
2	11289	2350.845494280138	0
2	11293	2351.135777689743	1
2	11294	2351.929600758792	0
2	11301	2352.917616971317	1
2	11302	2353.950450889987	0
2	11306	2353.969770211389	1
2	11309	2355.111494533659	0
2	11313	2355.307212543758	1
2	11314	2356.167460294289	0
2	11452	2388.598053407013	1
2	11453	2389.47247017951	0
2	11462	2390.749262099016	1
2	11463	2391.575320342958	0
2	11476	2393.275323887959	1
2	11479	2393.439345169097	0
2	11488	2394.61475306201	1
2	11493	2395.635320981714	0
2	11502	2396.722367742648	1
2	11503	2397.641574979136	0
2	11514	2399.30617577947	1
2	11515	2399.753442142466	0
2	11552	2406.965249103104	1
2	11557	2407.608398884005	0
2	11571	2410.789749462964	1
2	11572	2410.953359037294	0
2	11583	2412.837327129603	1
2	11584	2412.867102675262	0
2	11591	2414.42021782502	1
2	11592	2414.797205951187	0
2	11650	2427.58193524322	1
2	11651	2427.607678815753	0
2	11664	2429.227636213779	1
2	11665	2429.664238846985	0
2	11672	2430.979407714544	1
2	11673	2431.62101506864	0
2	11719	2442.115204795545	1
2	11720	2442.805228155415	0
2	11769	2452.94299714322	1
2	11772	2453.107665181842	0
2	11781	2454.39945874877	1
2	11782	2455.046558203206	0
2	11786	2455.855502590078	1
2	11787	2455.98901819627	0
2	11791	2456.144416457055	1
2	11792	2457.138058014151	0
2	11796	2457.158289484801	1
2	11797	2458.262084847905	0
2	11801	2458.467490580671	1
2	11802	2459.23652550339	0
2	11806	2459.391547233129	1
2	11807	2460.248888942164	0
2	11811	2460.633096866041	1
2	11812	2461.359293327883	0
2	11816	2461.735882240253	1
2	11817	2462.424317550875	0
2	11824	2463.371959189095	1
2	11827	2464.253878061409	0
2	11836	2465.936133339926	1
2	11837	2466.126872458152	0
2	11849	2468.299119137449	1
2	11850	2469.085913186922	0
2	11862	2471.135835108897	1
2	11863	2472.118488950125	0
2	11875	2474.783649137614	1
2	11876	2474.869973211858	0
2	11900	2480.32603544527	1
2	11902	2480.892247587614	2
2	11903	2481.218246201689	1
2	11910	2482.363334983478	0
2	11917	2483.369285320483	1
2	11918	2484.16441031786	0
2	11927	2486.04244221815	1
2	11928	2486.069420792613	0
2	11937	2487.266404675141	1
2	11938	2488.218031852025	0
2	11944	2489.032304037225	1
2	11945	2489.092375095173	0
2	11949	2489.226127401157	1
2	11950	2490.004148131035	0
2	11954	2490.176255689172	1
2	11955	2491.140974507093	0
2	11959	2491.268776063739	1
2	11960	2492.330671767503	0
2	11964	2492.580330067682	1
2	11965	2493.346976313166	0
2	11977	2495.463274247655	1
2	11979	2496.263478534849	2
2	11980	2496.46760074532	1
2	11987	2497.361562749169	0
2	11997	2499.824711286304	1
2	11998	2500.327192246153	0
2	12002	2500.836069237989	1
2	12003	2501.516168929434	0
2	12015	2503.829274519297	1
2	12016	2504.562858643933	0
2	12025	2505.857479793182	1
2	12028	2506.627348976836	0
2	12032	2506.824090115099	1
2	12035	2507.723143792313	0
2	12042	2509.109873268856	1
[...]
6	114752	23739.400193444874	161.4699559672
6	114757	23740.438433924645	367.0685123281
6	114764	23741.478577091127	491.33896604979
6	114805	23748.654556844991	271.50892840423
6	114813	23750.78808457698	736.89122889348
6	114898	23765.310069400865	1451.8322782954
6	114938	23773.129505231186	996.48686746699
6	114991	23783.883645311697	62.114163051966
6	114999	23785.953127258411	948.30755817427
6	115088	23803.596989892004	69.939624330926
6	115196	23825.582278106873	259.88620860413
6	115210	23827.610168459591	1219.958341189
6	115231	23832.454839037777	934.70687719364
6	115281	23842.486094951955	141.9655792118
6	115329	23852.314729200164	233.82122102049
6	115334	23853.325595532404	229.26513484941
6	115347	23856.308929877402	1135.440498505
6	115365	23860.056171621429	428.26841115797
6	115368	23861.169956901157	90.540866690264
6	115371	23862.047352241398	650.08527428245
6	115488	23885.224186988405	362.90220920247
6	115511	23890.177303564406	84.190431447059
6	115514	23891.09215005892	1028.1001309046
6	115745	23935.118347635348	184.16153452973
6	115776	23941.87035759943	94.540212420555
6	115781	23943.058611490432	187.76566262596
6	115835	23955.067603488494	320.72969424451
6	115911	23970.83578175748	436.57790016555
6	115918	23971.759011671545	413.59795607085
6	115939	23976.507254507338	142.52053013363
6	115948	23977.330828250424	142.8288978374
6	116050	23997.874621186817	80.42450597322
6	116577	24101.239617742544	351.67614657026
6	116628	24113.946145303213	349.42236823216
6	116651	24118.937136369796	1284.493019658
6	116768	24140.396718997175	396.79841162769
6	116784	24144.29720004149	1175.5989324304
6	116787	24145.44052141797	1158.263556253
6	116798	24148.611699607543	229.70860120147
6	116801	24149.425537799153	140.60455120826
6	116875	24163.830025948158	676.53706343002
6	116952	24179.109621771371	831.76906765715
6	117045	24198.531670314484	842.43184148492
6	117075	24204.121303698179	530.36632494083
6	117105	24209.95034108948	229.26323050603
6	117368	24261.42721446933	185.41090068616
6	117418	24274.003403228277	1585.2552903769
6	117453	24283.110246665251	1676.6503053942
6	117469	24287.073909483698	499.08444261845
6	117474	24288.258566198998	405.09109538181
6	117485	24291.07630097972	490.47496665856
6	117490	24292.027869360836	728.60648232337
6	117520	24299.88195802545	893.62575997276
6	117523	24301.02733820671	260.21149502375
6	117530	24302.164531230868	69.251347730889
6	117580	24312.775588634644	1007.9055013917
6	117638	24324.464580717901	878.67193260472
6	117651	24327.797282539526	598.21306216207
6	117668	24330.967048904238	195.42424046358
6	117704	24338.646057615274	287.98438170196
6	117734	24344.4131674358	186.01141366072
6	117737	24345.310265200057	1657.4056481824
6	117771	24351.091499283009	174.98329280913
6	117803	24357.764010322776	227.71828717269
6	117813	24359.727636956361	1399.6249880019
6	117854	24367.059022476462	379.25107957113
6	117907	24378.77081415377	435.33908381718
6	117912	24379.920528754065	428.38203552738
6	117937	24384.874496420225	1665.8772130845
6	118170	24430.230183620038	1275.2397206342
6	118680	24530.306901955264	610.68730800165
6	118761	24547.033734726939	439.82515886276
6	118800	24554.065483735908	792.79713498499
6	118998	24591.743140571971	1981.7757863552
6	119428	24673.199827370176	330.8418537959
6	119458	24678.965147030297	245.21215000202
6	119685	24723.344818956442	255.04890540879
6	119861	24757.217000602222	249.70679422365
6	119891	24763.21586273428	248.58815828537
6	119984	24782.537041039524	190.64762509551
6	120050	24796.273506887109	192.11350881544
6	120095	24805.068210296278	633.13715589838
6	120128	24811.866753329281	183.43386413436
6	120133	24813.050014552046	1047.8258798889
6	120165	24819.14466920862	625.79586974612
6	120833	24950.751063704907	227.37926312464
6	120850	24953.653825287379	200.82936359328
6	120898	24963.619994321416	449.38038056093
6	120904	24965.567637908968	433.72632349019
6	121017	24988.311544968975	1114.1421435723
6	121037	24992.02132528028	563.33826051846
6	121052	24995.06698305136	111.08412969763
6	121075	25000.071943526477	431.39403822065
6	121256	25037.791831995961	960.61837817176
6	121300	25046.071820654391	223.73746482478
6	121322	25049.791416381995	146.14281519336
6	121363	25058.410356034847	842.76635361474
6	121408	25067.297109935755	120.79931248341
6	121413	25068.467729891135	850.28355542388
6	122280	25232.612883563662	866.63762884534
6	122344	25244.684459031788	981.92267343993
6	122409	25257.597974500662	449.30362871016
6	122449	25265.394517429123	1433.7445182057
6	122468	25270.193891289873	265.91815278318
6	122516	25279.840813472538	264.50545514712
6	122526	25281.66948503372	592.65475877823
6	122776	25329.538088537143	224.16431740267
6	122779	25330.591496269261	217.6355814755
6	122827	25340.801078079499	186.86888212756
6	122930	25361.802765294395	152.48143284308
6	122985	25372.86670675459	617.99153097178
6	123057	25384.962775749941	802.31606159311
6	123074	25389.89382540029	852.40537964502
6	123196	25412.274979386242	1089.7919217997
6	123262	25426.58290413194	1250.4011393534
6	123267	25427.673147195993	165.722621363
6	123270	25428.85435456405	823.19354855717
6	123307	25437.566397088901	421.08517793782
6	123315	25439.342702161097	367.22496064652
6	123381	25451.301630455856	1085.4642367392
6	123632	25500.870228803757	766.29218640527
6	123964	25566.845813640898	418.35257394709
6	124007	25575.674913934377	540.41072419515
6	124057	25585.331602453945	338.53313559494
6	124067	25587.451429646035	177.93354084728
6	124117	25597.56393043589	176.61620200702
6	124165	25607.604726888652	1033.2470598552
6	124430	25658.651549598986	212.0456569256
6	124446	25663.014201322702	355.6252182729
6	124508	25674.375678106901	595.69343169623
6	124528	25678.285704228879	643.64790766017
6	124563	25685.818364710587	127.47301915337
6	125493	25863.892745365791	287.35701144719
6	125567	25879.762696172979	1497.0384767418
6	125570	25880.771614274971	280.09071483661
6	125587	25883.54270941795	631.40409850174
6	125663	25897.976880001212	1226.3048210688
6	125713	25908.471860679267	1233.8835983624
6	125780	25923.10509289301	258.77175831161
6	125786	25924.858181323325	1459.6124964322
6	125822	25930.785843400591	447.28548118506
6	125830	25932.741693007228	445.15247332176
6	125840	25934.758980366895	446.96608013176
6	125876	25943.13611423553	860.5618629431
6	126631	26088.875132413142	911.72869806205
6	126691	26100.511652706219	383.79756170318
6	126713	26104.938018882582	355.57605003573
6	126737	26111.391684089162	355.39047474098
6	126796	26122.556791653047	348.0297123938
6	126826	26128.604401368212	344.92818802584
6	126834	26130.675367939875	340.86560630406
6	126865	26137.365559622211	315.18378669037
6	126894	26144.162289313816	767.75879325707
6	126929	26151.478776519495	568.09281799527
6	126948	26156.458512852743	746.40053833103
6	126958	26158.305274976913	742.94776305009
6	126961	26159.391628870398	1554.5136814721
6	127385	26241.275951969469	943.57270219071
6	127863	26332.014532676468	397.72053476333
6	127923	26344.052196169682	1207.7577483171
6	128016	26362.91427717967	1182.5282125538
6	128091	26378.613366728873	266.4985228146
6	128110	26383.564868844617	263.60342751892
6	128243	26407.166479889806	266.70108357287
6	128377	26435.323844638781	1052.5164532723
6	128384	26436.454128559527	1893.7059285052
6	128438	26448.008073292614	1471.0867857695
6	128443	26448.894567944982	1642.1208794268
6	128453	26450.984628641733	281.36702355229
6	128505	26460.478202396758	1518.1460824876
6	128524	26465.109305582601	833.79255863299
6	128537	26468.333117823243	814.26686147384
6	128540	26469.152102730363	1167.6452956302
6	128545	26470.339541455484	1395.4595391907
6	128579	26478.188780172108	201.46749289923
6	128602	26483.347249570335	168.29569625035
6	128629	26490.895308449432	150.40365038727
6	128642	26494.169294462759	498.07790482252
6	128690	26502.365376554371	473.60672152023
6	128705	26505.590251020563	415.97754898464
6	128733	26511.670931987219	753.92489790044
6	128752	26514.614152212476	742.55328917349
6	128774	26518.828657282551	720.25210258442
6	128789	26522.076674694417	701.3986620825
6	128807	26526.03036965992	699.86207925452
6	128812	26526.854045196005	121.60042340855
6	128843	26533.535386486199	1311.2301478437
6	128988	26563.486106994969	1155.3354134135
6	129005	26566.345278107875	2008.5759793458
6	129046	26575.735344731937	1874.0355171838
6	129057	26578.501155265271	920.84039360885
6	129074	26581.722987466808	1276.9537495697
6	129084	26583.746842790339	107.77962382849
6	129125	26592.867077045459	293.29307325117
6	129141	26596.860546242948	100.56481082307
6	129154	26599.83879274208	919.50307458446
6	129193	26606.336864959484	630.6355255078
6	129369	26641.798309021199	605.49713473742
6	129436	26654.037790828512	884.37064762893
6	129676	26702.778337750989	893.35712248565
6	129893	26747.094242348927	224.86145198656
6	129910	26750.273733219164	923.020493532
6	129916	26752.316376425638	915.16788801564
6	129919	26753.266124549541	1557.8756847609
6	129961	26761.618402168839	888.07570532807
6	130077	26783.508127930979	1380.9024778077
6	130174	26802.617682116605	549.94534601287
6	130216	26810.79788231555	1494.416475845
6	130289	26825.302983824384	1505.7991966333
6	130295	26827.380091885604	1324.0746528567
6	130314	26832.506593410332	488.22702111207
6	130324	26834.21753690898	203.68246740651
6	130335	26837.500185598186	1673.0996220992
6	130391	26847.953242575411	736.58920632113
6	130420	26855.138629104044	338.29160982864
6	130427	26856.210493267268	729.72150767647
6	130459	26863.919975223892	114.76233983842
6	130469	26866.260486704238	1488.1675194245
6	130474	26867.242491653502	110.53354778672
6	130581	26888.503004710039	997.91609679307
6	130688	26910.201022730616	109.95993612719
6	130703	26913.398727763386	1248.9562494494
6	130709	26915.14129531713	433.40624803647
6	130717	26917.380555836798	638.77830463741
6	130722	26918.226240665966	617.17772119223
6	130725	26919.410016483755	590.31168979467
6	130728	26920.272064120357	95.256757450688
6	130737	26923.096326021978	1409.1227074341
6	130750	26925.942439762631	295.73922880181
6	130789	26933.400923801155	286.215978686
6	130802	26936.041266145312	279.39563325303
6	130810	26937.824176863987	1167.571681697
6	130823	26940.498971940238	811.07929468313
6	130826	26941.515197024528	233.93315167452
6	130921	26960.796168153489	181.06438535972
6	130941	26964.888877717534	407.85534670401
6	130982	26973.492125127872	522.7561393164
6	131016	26979.524074730592	1360.2486530133
6	131030	26983.560658972094	81.425152906719
6	131059	26990.648966432212	1327.9791545199
6	131090	26995.612252428139	70.700133795552
6	131250	27025.772761347834	1319.5050430162
6	131273	27031.084046502821	1315.7318244855
6	131338	27044.395097804106	398.01992013463
6	131372	27052.077379075941	1335.0343822163
6	131382	27054.379918156509	386.79138783147
6	131504	27077.475912397297	204.96827919314
6	131538	27085.195555898862	114.91655661588
6	131548	27087.129008077958	1683.4544514663
6	131560	27089.388501663821	634.58470815789
6	131566	27091.502794370184	114.10783527652
6	131571	27092.507555764297	300.10101585168
6	131576	27093.693916292617	2157.9791501588
6	131584	27095.810751371121	108.96494077539
6	131604	27099.979906569922	907.84434057818
6	131927	27163.331037506311	2065.8123429569
6	131947	27167.180446825771	550.77871010526
6	131955	27169.458772220312	538.17929822331
6	131973	27173.624059076363	155.36693065089
6	131992	27178.320737905929	2030.3460752472
6	132292	27237.868097757773	1420.0253623794
6	132676	27311.799852090461	1438.0047812857
6	132875	27352.917941905877	562.70626606099
6	132878	27353.992225526965	2531.5302630259
6	132895	27358.517607141791	2285.2696857731
6	132903	27360.36195624456	239.73106827497
6	132909	27362.291594327001	232.11592495664
6	132947	27370.300187195876	363.67749708821
6	132961	27372.123061556873	349.18670783784
6	133016	27383.185081882347	446.10154313789
6	133077	27397.726048078147	2015.2390952475
6	133102	27402.683000718561	640.55490249651
6	133163	27413.903101059274	1256.2341601142
6	133293	27439.294468806348	967.53666871003
6	133296	27440.277816426232	318.04674986916
6	133335	27447.368863648307	1965.8109070243
6	133341	27449.284693936668	948.36648062894
6	133349	27451.236378402672	425.53804503816
6	133380	27458.410063921416	237.35874021698
6	133383	27459.547456649354	397.63122481895
6	133388	27460.716291120405	216.6155353476
6	133498	27481.202764146253	411.57883294859
6	133528	27487.22791265132	212.34414677934
6	133586	27498.950891886598	424.39148363188
6	133604	27502.89850661535	950.29183649785
6	133664	27514.966854404697	83.942850317052
6	133687	27520.039569697103	88.302564482244
6	133697	27522.153007282729	86.353322626596
6	133715	27525.979743527474	422.61793515401
6	133731	27529.976107543839	1270.3484807083
6	133743	27531.666240285282	374.74650858952
6	133834	27549.338317354994	297.48750430208
6	133840	27551.310704693517	821.06657449407
6	134488	27677.865866616037	203.1234202733
6	134494	27679.489396060113	2303.760715055
6	134504	27681.320893510844	199.35624646397
6	134601	27700.790393561724	201.56620881345
6	134803	27739.916457131266	2498.5450692519
6	134812	27742.96502342135	316.99865936142
6	134850	27750.199194604479	965.61352986865
6	134879	27755.097305098589	229.83010674023
6	134906	27760.430744315073	229.94243736347
6	134931	27765.460991726763	232.0841340634
6	134956	27770.457521589235	1501.9710938545
6	135053	27789.196511579813	571.79502249033
6	135342	27846.98959840661	152.53765995331
6	135369	27852.212226175649	539.43774705213
6	135422	27865.494535890633	344.81076934069
6	135478	27875.256771507154	962.84730353191
6	135503	27880.524484082816	1778.1357896338
6	135543	27888.235690451546	81.877328791371
6	135551	27889.890131431485	81.597502230144
6	135559	27892.190781798439	1159.3291246062
6	135577	27895.8273605565	270.07169992386
6	135624	27907.03921576379	422.56937871706
6	135657	27912.515765560271	62.420549222713
6	135682	27917.687793047485	209.71599091632
6	135757	27932.331731385962	1058.8574727382
6	135767	27934.31955019705	510.57714644589
6	136115	28003.164615298655	231.5840954381
6	136123	28005.428056775719	231.55814924352
6	136153	28011.301669599149	2230.084558193
6	136227	28026.900863337178	563.96119831098
6	136255	28033.061833699268	1630.7188594478
6	136328	28047.544804740731	139.55413067941
6	136361	28054.954476915799	765.97231002288
6	136455	28072.515234328561	565.83870257868
6	136526	28087.852851751852	136.12862964919
6	136534	28089.753261378626	1643.7994385062
6	136643	28114.266461227678	467.1416546301
6	136664	28119.337509462733	447.96173278704
6	136675	28122.280596069649	1052.9927508063
6	136695	28126.372635468964	838.18618678847
6	136701	28128.250914776728	211.70326297386
6	136741	28134.521485974485	211.9998151742
6	136757	28138.372503746239	1356.1848593666
6	136859	28158.397456651027	628.32598816408
6	136889	28164.387271757921	280.27786826233
6	137223	28228.319783343313	759.34639977994
6	137256	28235.432956983088	548.73855485091
6	137463	28274.498319088888	929.39109497924
6	137557	28294.668659005717	318.67184056776
6	137594	28301.596453159706	3357.9572912417
6	137602	28303.574806141885	1724.9016076764
6	137622	28307.255236680651	543.86780390888
6	137717	28326.340472568228	537.96800551087
6	137777	28338.695116398514	761.37567609638
6	138093	28400.132127383662	814.87622984464
6	138137	28410.302704561999	232.4065548494
6	138314	28442.765892433502	403.53672736443
6	138444	28467.591140763496	216.96587708927
6	138757	28531.156488928143	1115.4816444062
6	138760	28532.287479374781	599.32590086764
6	138780	28536.07048937384	262.53344935878
6	138790	28537.94849677667	1108.5884002481
6	138919	28566.987284834905	812.32127920504
6	138922	28568.032392820845	596.23691582177
6	139544	28688.119581421406	1230.9380599292
6	139549	28689.226781141327	1468.3036755879
6	139577	28694.977186850495	519.21532131799
6	139641	28707.665017112475	503.10860374086
6	139669	28713.935768860336	271.72244133923
6	139677	28715.661975060813	271.98624465133
6	139701	28721.282787683457	1655.2355520862
6	139733	28727.589084139224	249.4033529373
6	139739	28729.703856538366	810.05062442424
6	139787	28741.79018133659	195.81032345635
6	139806	28744.863482607753	794.49524803687
6	139813	28745.861282166877	792.65494272686
6	139892	28760.450905051305	175.47190934706
6	140072	28797.331488490793	1660.6312973217
6	140192	28820.078192473706	178.37271045598
6	140339	28850.678800471441	1043.100376482
6	140344	28851.743702397809	503.85278526076
6	140401	28864.64908332679	643.37779563956
6	140421	28869.066345497626	411.70586694815
6	140435	28873.167936969768	407.4184477911
6	140467	28877.382980139307	402.860479801
6	140583	28899.370928916926	1145.7471806866
6	140604	28904.615137608474	2005.4648349825
6	140609	28905.557836728668	606.30022634009
6	140744	28933.442716324359	268.53505731681
6	140911	28966.891746146634	2812.4823421705
6	140929	28970.906594124	479.08341984389
6	141288	29042.804976602299	778.67176709665
6	141295	29043.7277755298	772.45529525321
6	141602	29105.40012379897	1123.782170003
6	141712	29124.045361238096	510.10723136498
6	141905	29163.163509170091	729.04867168826
6	141921	29167.083327209702	721.14411077575
6	141939	29171.054379018428	717.14648739694
6	141947	29173.056550931963	714.36823597135
6	141963	29177.155302764136	209.62564802336
6	141976	29180.076504677846	918.16169878898
6	142004	29186.32289907293	291.77203891553
6	142057	29197.176028629054	1221.8197551296
6	142092	29204.354367869195	1206.6815627155
6	142229	29228.791666076829	308.86672406225
6	142312	29246.218389828721	567.61684194508
6	142365	29259.254322877838	562.00992223016
6	142373	29261.037703105374	1594.4897265005
6	142376	29262.229311032253	556.12928450866
6	142403	29269.837276332484	1420.0860465766
6	142428	29274.710461468745	1011.359445683
6	142535	29293.693939927715	258.73328083147
6	142558	29299.219017991731	106.16285187061
6	142571	29302.051858011755	207.2671341845
6	142663	29318.843101569012	552.31555477024
6	142704	29327.591819254801	208.02788085867
6	142754	29337.665773104903	214.37296176469
6	142797	29346.362385357665	131.8253272428
6	143697	29524.244999399716	2510.0263589753
6	143870	29557.864110164652	1354.9603597048
6	144069	29593.792859925265	1046.4315585991
6	144144	29608.407352784211	1304.1665431967
6	144169	29612.835099000606	491.54185245844
6	144256	29631.811750622868	1017.2850303668
6	144289	29636.877688235074	175.3063099997
6	144403	29660.947813459514	155.40327969357
6	144413	29662.948144874936	1037.8725954739
6	144469	29673.076462434541	536.94673075614
6	144527	29685.037954508542	464.28283900636
6	144557	29690.903394106152	1049.539729084
6	144595	29699.077887929725	443.35847445654
6	144612	29701.987714102521	2506.7011696158
6	144643	29708.474702183	1018.011630409
6	144697	29718.422784362389	1307.217445072
6	144725	29724.401513970858	1295.3488377185
6	144761	29732.521120969515	1886.428187262
6	144808	29740.798849846452	672.88536158107
6	144811	29741.883386579278	155.51029191049
6	144857	29751.723227081757	1811.3756589076
6	144914	29762.706640016689	141.56601427273
6	144921	29763.854690317559	554.65295804354
6	144929	29765.938105840917	422.2377257795
6	145012	29784.982208636713	94.702476887833
6	145043	29792.42371108386	1478.569238938
6	145073	29798.289471281257	88.449145761748
6	145241	29827.765507192382	846.86788790282
6	145249	29829.710368874607	839.72446694489
6	145280	29836.840571067419	89.829857509455
6	145283	29838.031583089318	249.53621268969
6	145296	29840.765973541077	249.86651021096
6	145301	29841.688135675184	3058.6076459504
6	145311	29843.993282691512	1553.6564394546
6	145324	29847.155428731099	527.9212038852
6	145373	29856.174876797976	198.95473674564
6	145453	29872.352007102161	1027.5300727063
6	145461	29874.292372821956	1187.8222619876
6	145486	29879.47664821291	323.32227616784
6	145499	29882.700398458388	1020.1834900642
6	145502	29883.567556674067	2288.765531412
6	145520	29887.727527894393	2215.7935735606
6	145555	29895.25528660159	68.382389639921
6	145594	29906.150729917674	587.12019725107
6	145674	29919.619248643179	441.65528463368
6	145797	29944.571344719119	260.5027963506

