version 2
run Second_exit_5-5-20191017-13:43:55-1933
attr configname Second_exit_5
attr datetime 20191017-13:43:55
attr experiment Second_exit_5
attr inifile omnetpp.ini
attr iterationvars ""
attr iterationvarsf ""
attr measurement ""
attr network ResponseTimeNetwork
attr processid 1933
attr repetition 5
attr replication #5
attr resultdir results
attr runnumber 5
attr seedset 5
param **.Source.interArrivalTime exponential(5s)
param **.jobPriority bernoulli(0.6)
param **.PS.serviceTimeU1 "uniform(0.8s, 1.2s)"
param **.PS.serviceTimeU2 "uniform(1.8s, 2.2s)"
param **.SS1.serviceTime exponential(1s)
param **.SS2.serviceTime exponential(1.2s)
param **.PS.exitProbability bernoulli(0.5)

vector 0 ResponseTimeNetwork.SS1 queueLength:vector ETV
attr interpolationmode sample-hold
attr title "queue length, vector"
vector 1 ResponseTimeNetwork.SS2 queueLength:vector ETV
attr interpolationmode sample-hold
attr title "queue length, vector"
vector 2 ResponseTimeNetwork.QueueU1 queueLength:vector ETV
attr interpolationmode sample-hold
attr title "queue length, vector"
vector 3 ResponseTimeNetwork.QueueU2 queueLength:vector ETV
attr interpolationmode sample-hold
attr title "queue length, vector"
vector 4 ResponseTimeNetwork.sink lifeTimeU2:vector ETV
attr interpolationmode none
attr title "lifetime of arrived jobs U2, vector"
attr unit s
vector 5 ResponseTimeNetwork.sink lifeTime:vector ETV
attr interpolationmode none
attr title "lifetime of arrived jobs, vector"
attr unit s
vector 6 ResponseTimeNetwork.sink lifeTimeU1:vector ETV
attr interpolationmode none
attr title "lifetime of arrived jobs U1, vector"
attr unit s
0	0	0	0
0	692	375.761420492759	1
0	696	376.767842341247	0
0	704	377.786193196779	1
0	706	378.273449174065	0
0	1259	598.310518531815	1
0	1267	600.267455579374	2
0	1269	600.934902937732	1
0	1277	602.20514462249	2
0	1279	603.111244986672	1
0	1281	603.228762369506	0
0	1682	830.010336191787	1
0	1684	830.655013991401	0
0	1699	833.03646023797	1
0	1704	834.20815859914	2
0	1706	834.427781202752	1
0	1718	837.39546510264	0
0	1736	840.48238401415	1
0	1746	842.791634392107	0
0	1752	844.254292470236	1
0	1761	845.44424955522	0
0	1880	890.858964440795	1
0	1881	891.39722093102	0
0	1975	927.963476519056	1
0	1976	931.480672912472	0
0	2275	1099.120072830618	1
0	2276	1099.716313694204	0
0	2759	1394.58742870477	1
0	2761	1394.829654411897	0
0	2840	1416.085486425521	1
0	2841	1416.619072564876	0
0	3067	1506.686537191089	1
0	3069	1507.027357033545	0
0	3380	1697.838125440957	1
0	3381	1700.36427632605	0
0	3480	1776.263535918498	1
0	3481	1776.449216655717	0
0	5280	2768.925495334959	1
0	5282	2768.929174645022	0
0	5390	2810.815097008836	1
0	5391	2811.139794015505	0
0	5400	2813.28945451136	1
0	5401	2813.671379753548	0
0	6045	3195.961425405237	1
0	6049	3197.19284661277	0
0	6126	3213.2597664918	1
0	6128	3213.363292341268	0
0	6355	3344.410005476937	1
0	6360	3345.782303079206	2
0	6364	3349.791851342549	1
0	6366	3350.137981335216	0
0	6527	3421.87927942282	1
0	6529	3422.639341314529	0
0	6645	3473.01093323794	1
0	6646	3473.255379539806	0
0	6820	3574.730721878535	1
0	6821	3575.104100736183	0
0	7020	3657.722247204127	1
0	7021	3658.340092223509	0
0	7027	3659.285100159141	1
0	7029	3659.860248787718	0
0	7270	3754.944475802934	1
0	7271	3755.585602989476	0
0	7645	3952.282267478901	1
0	7646	3952.613137403689	0
0	8575	4409.690666174962	1
0	8576	4411.58277249641	0
0	9685	5023.332815380419	1
0	9692	5025.267583520193	2
0	9694	5025.659106789257	1
0	9701	5027.113026163817	0
0	9870	5111.159539095045	1
0	9871	5111.703286330671	0
0	9887	5114.88551139607	1
0	9889	5115.412067259202	0
0	10074	5211.791945276283	1
0	10076	5212.367193547778	0
0	10520	5443.272352004592	1
0	10521	5443.338670232244	0
0	10567	5460.271371317977	1
0	10569	5460.398307636429	0
0	10675	5521.496393803425	1
0	10676	5521.671150468132	0
0	10974	5615.894794005577	1
0	10976	5616.034617685015	0
0	10984	5617.962283301962	1
0	10986	5618.253419328435	0
0	11012	5624.081386528307	1
0	11014	5624.783515416577	0
0	11027	5627.16508544232	1
0	11032	5628.0879604382	2
0	11035	5628.899687358693	3
0	11036	5629.197286618165	2
0	11039	5629.66451277476	1
0	11041	5629.951440854004	0
0	11044	5630.121907140072	1
0	11051	5631.274880719958	0
0	12160	6228.903983300583	1
0	12161	6230.543300986268	0
0	12686	6575.43441628698	1
0	12691	6576.628607572461	0
0	13330	6910.217954089549	1
0	13331	6910.92079388162	0
0	13607	7052.897365311076	1
0	13609	7052.917312630036	0
0	13952	7266.996742554769	1
0	13954	7267.212564630796	0
0	13967	7270.105779258456	1
0	13971	7272.755451925834	0
0	14745	7674.445604498792	1
0	14746	7674.908115968536	0
0	14785	7711.556626244505	1
0	14786	7711.817095057606	0
0	14990	7796.693165224044	1
0	14991	7797.25385004072	0
0	15012	7802.053660043279	1
0	15016	7802.599795189344	0
0	15024	7804.069777414246	1
0	15029	7805.2341046365	0
0	15035	7806.981893105104	1
0	15036	7808.257256932845	0
0	15047	7810.415953940908	1
0	15051	7811.944734716178	0
0	15057	7813.010456376658	1
0	15059	7813.58120786727	0
0	15790	8231.697293385503	1
0	15791	8234.833358320561	0
0	15915	8268.997036367858	1
0	15916	8269.260258856616	0
0	16030	8297.451094372772	1
0	16031	8299.114480777227	0
0	16040	8301.103230508559	1
0	16041	8301.208956610035	0
0	16632	8579.452653050146	1
0	16634	8579.948437507875	0
0	16900	8718.156703606571	1
0	16901	8718.273041824182	0
0	17917	9232.68747874191	1
0	17926	9235.420536634626	0
0	17970	9265.988750192916	1
0	17971	9266.235898049561	0
0	18089	9331.770731807244	1
0	18091	9332.502427086604	0
0	18099	9333.814850740996	1
0	18101	9334.112206027415	0
0	18272	9478.618905200044	1
0	18274	9478.698392804994	0
0	18504	9588.397579638962	1
0	18506	9588.410119732889	0
0	18925	9765.647493528758	1
0	18926	9766.141150002866	0
0	19302	9927.24261019782	1
0	19304	9927.979502397226	0
0	19875	10240.255678982172	1
0	19876	10241.060134842807	0
0	19982	10286.421378101185	1
0	19984	10286.74837964808	0
0	20429	10477.644579610168	1
0	20431	10477.812929249073	0
0	20442	10480.747117364439	1
0	20444	10481.732972302383	0
0	20450	10482.75931625416	1
0	20451	10484.060806100086	0
0	20804	10687.58215244998	1
0	20809	10688.928746143426	0
0	20885	10726.605078053728	1
0	20886	10727.222669069449	0
0	20920	10734.017331653813	1
0	20924	10736.159921916041	0
0	20937	10738.494711733722	1
0	20939	10738.632915786288	0
0	21074	10768.15641200379	1
0	21076	10768.590927191104	0
0	21745	11095.922858752883	1
0	21746	11096.282035846216	0
0	21775	11102.395535554479	1
0	21779	11103.145267593089	0
0	23982	12199.266681095197	1
0	23984	12199.731405409278	0
0	24672	12545.093745061479	1
0	24675	12545.931004003532	2
0	24676	12546.663644359339	1
0	24679	12546.803350197168	0
0	25040	12693.472891361102	1
0	25041	12694.013216912108	0
0	25075	12704.851838043474	1
0	25076	12705.253219511494	0
0	25535	12949.171034969818	1
0	25536	12951.270170850601	0
0	25790	13099.204525241371	1
0	25791	13099.341018078268	0
0	25800	13101.482774153703	1
0	25801	13102.756134572153	0
0	27332	13928.092782596802	1
0	27334	13928.483557828187	0
0	27339	13929.189174793871	1
0	27344	13930.617924837284	0
0	27805	14114.28692763855	1
0	27806	14115.55836768663	0
0	27810	14116.642170984675	1
0	27811	14117.831218274601	0
0	27949	14174.42306933641	1
0	27951	14175.20653570616	0
0	27982	14180.97823499828	1
0	27986	14181.877389604945	0
0	28187	14291.571578931351	1
0	28190	14292.383878201906	2
0	28191	14293.962291075998	1
0	28194	14294.168223490058	0
0	28202	14295.81652351251	1
0	28204	14295.852961826584	0
0	28615	14492.368297460511	1
0	28616	14492.418470413228	0
0	29215	14810.540276950899	1
0	29219	14810.953271761369	0
0	29232	14813.619264197557	1
0	29243	14815.097207100538	0
0	29254	14817.412401646397	1
0	29257	14818.420256146437	2
0	29259	14818.912989048026	1
0	29264	14819.61254579725	2
0	29266	14820.312241648977	1
0	29268	14820.525593790757	0
0	29271	14820.800292797035	1
0	29274	14821.778002162578	2
0	29276	14822.211694348349	1
0	29278	14822.810132677337	0
0	29281	14822.813086793406	1
0	29286	14824.257824107021	0
0	29360	14841.122801200812	1
0	29361	14842.274840941767	0
0	29570	14944.721619281208	1
0	29571	14944.949164543091	0
0	29575	14946.030038981023	1
0	29576	14946.321314273393	0
0	30017	15237.58979177641	1
0	30019	15238.54471304606	0
0	30415	15493.220515115363	1
0	30416	15493.267836851902	0
0	30630	15580.578726711698	1
0	30631	15580.596345607493	0
0	30660	15586.464090150386	1
0	30664	15587.880705000301	0
0	30670	15589.042938533231	1
0	30671	15591.05577338657	0
0	30695	15595.859676957806	1
0	30696	15596.001759058106	0
0	31255	15856.154977895493	1
0	31256	15857.259182517457	0
0	31592	16016.568548495991	1
0	31599	16018.468632366741	0
0	31602	16018.667360513953	1
0	31606	16020.073091631019	0
0	31610	16020.923162353979	1
0	31611	16022.485452268716	0
0	31615	16023.600607718971	1
0	31619	16026.745082968059	0
0	31625	16028.678158762325	1
0	31626	16028.945666438995	0
0	31630	16029.790354008881	1
0	31631	16029.978521871917	0
0	32537	16497.28358237638	1
0	32541	16499.872109261793	0
0	32557	16502.883915533484	1
0	32561	16503.863369350523	0
0	32660	16545.434289013408	1
0	32661	16546.23769822051	0
0	33057	16763.853094008664	1
0	33061	16766.264177868987	0
0	33090	16775.596497334273	1
0	33096	16777.939416776836	0
0	33115	16784.103685004828	1
0	33116	16785.599817592782	0
0	33942	17343.48616795972	1
0	33944	17344.363256039995	0
0	34045	17389.279298638644	1
0	34051	17391.068855327944	0
0	34055	17391.911819798703	1
0	34056	17392.343274411163	0
0	34137	17439.21552918998	1
0	34139	17439.524645871847	0
0	34142	17440.370395097951	1
0	34146	17442.338096639229	0
0	34162	17445.628202230181	1
0	34166	17446.70663948473	0
0	34407	17650.51382357876	1
0	34409	17651.115093518969	0
0	34690	17811.693801117365	1
0	34691	17815.067599884829	0
0	35205	18100.680397209645	1
0	35206	18100.685685459231	0
0	35220	18103.864317150866	1
0	35224	18105.029609466318	0
0	35475	18196.236340675899	1
0	35476	18198.111908668905	0
0	35720	18305.852122571305	1
0	35721	18306.517077960071	0
0	35725	18307.592910325431	1
0	35726	18308.218950710983	0
0	35820	18347.996192125054	1
0	35824	18348.598170257041	0
0	35846	18352.272497606691	1
0	35848	18352.93576725118	0
0	36177	18501.792241374306	1
0	36181	18504.407360132931	0
0	36962	18979.449797513848	1
0	36965	18980.376009003771	2
0	36966	18982.517207011174	1
0	36972	18983.351732371993	2
0	36974	18983.486842902086	1
0	36984	18985.278193500697	2
0	36986	18985.901643966502	1
0	37006	18989.59751563321	0
0	37109	19036.02833895845	1
0	37111	19036.477351309182	0
0	37275	19111.602223097472	1
0	37276	19111.653665722105	0
0	37995	19439.433001987141	1
0	37997	19439.803766476046	0
0	38094	19463.6201827352	1
0	38101	19465.919542854854	0
0	38107	19466.733808107224	1
0	38109	19467.063931258957	0
0	38282	19512.08777090357	1
0	38286	19512.95468674656	0
0	38574	19631.238097524748	1
0	38576	19631.292114537008	0
0	38732	19729.930101106809	1
0	38738	19730.16079865029	0
0	38741	19730.772905560983	1
0	38746	19732.301669509016	0
0	38752	19734.165488358242	1
0	38754	19734.475215253567	0
0	38770	19738.056206652828	1
0	38771	19738.426739766483	0
0	39232	19979.776539948757	1
0	39236	19982.875196884337	0
0	39528	20146.411282712834	1
0	39530	20146.463869218585	0
0	39533	20147.311094590237	1
0	39535	20147.833960505226	0
0	39541	20149.019641680697	1
0	39546	20150.643973025222	0
0	39549	20151.142997457979	1
0	39554	20152.90645391388	0
0	39925	20321.275848170717	1
0	39926	20322.569176792821	0
0	39940	20325.519242856468	1
0	39941	20327.541556946465	0
0	39945	20328.574789143537	1
0	39946	20329.684382895141	0
0	40035	20352.949083788826	1
0	40036	20353.022126858759	0
0	40040	20354.104339792284	1
0	40044	20354.814139632775	0
0	40052	20356.299064067	1
0	40054	20356.549125914141	0
0	40057	20357.121224119229	1
0	40059	20357.841821454035	0
0	40227	20482.117060978075	1
0	40229	20482.523969977765	0
0	41122	20901.435555315378	1
0	41124	20902.141268012421	0
0	41132	20903.387671922973	1
0	41134	20904.085191509161	0
0	41375	21050.096363822709	1
0	41376	21050.659224589884	0
0	41515	21129.359548474414	1
0	41519	21130.117769558359	0
0	41735	21266.916107253439	1
0	41736	21268.876053939273	0
0	42336	21520.114224611702	1
0	42338	21520.862702868116	0
0	43255	21951.868769046683	1
0	43256	21952.271453444615	0
0	43525	22094.848854696185	1
0	43529	22096.59128966504	0
0	43875	22282.432131856746	1
0	43879	22285.251213463574	0
0	43920	22296.036018881872	1
0	43924	22296.397582626526	0
0	44540	22730.95766255349	1
0	44541	22732.010035764744	0
0	44610	22766.994426633296	1
0	44611	22767.799042094208	0
0	44800	22856.123408399395	1
0	44801	22856.774700885749	0
0	45285	23135.547417357009	1
0	45286	23139.047969160788	0
0	45405	23199.828059625855	1
0	45406	23200.36681475631	0
0	45840	23464.087998577494	1
0	45841	23464.295700882203	0
0	45857	23467.479321916043	1
0	45859	23467.811924590651	0
0	45862	23468.650336301248	1
0	45864	23469.33131714334	0
0	46195	23644.159628224987	1
0	46201	23648.891759973186	0
0	46315	23700.418767912414	1
0	46326	23703.524981527782	0
0	46687	23911.54100596838	1
0	46689	23912.068280345867	0
0	47067	24101.952434500049	1
0	47074	24103.006989494018	0
0	47135	24126.88004217961	1
0	47136	24130.400393339959	0
0	47760	24426.826100834806	1
0	47761	24427.378210385155	0
0	49697	25434.035051457782	1
0	49701	25434.939368039366	0
0	49775	25474.997142702958	1
0	49776	25480.373094719373	0
0	49780	25481.465040912949	1
0	49781	25481.787540920875	0
0	50190	25663.74429337771	1
0	50191	25664.401023696792	0
0	50790	25980.641734492841	1
0	50791	25980.649284490231	0
0	50814	25984.851920624204	1
0	50816	25984.948714268619	0
0	50819	25985.851717877608	1
0	50821	25986.538985847623	0
0	50831	25988.083829107728	1
0	50833	25988.490181885635	0
0	50836	25988.886281864286	1
0	50838	25989.576990069413	0
0	50885	25999.822488573461	1
0	50886	26000.133119457599	0
0	50967	26026.444108195689	1
0	50969	26026.952788563898	0
0	51289	26161.057971774452	1
0	51292	26162.045925043282	2
0	51309	26165.282296630019	1
0	51311	26165.732220175488	0
0	51435	26219.517427367026	1
0	51439	26221.564690014243	0
0	51665	26364.090913314834	1
0	51666	26365.787730690795	0
0	52117	26611.055372833628	1
0	52121	26611.435412685093	0
0	52484	26795.576127657494	1
0	52486	26796.067648656782	0
0	52967	27053.171160466123	1
0	52969	27054.249377610372	0
0	52995	27072.202538255295	1
0	52996	27072.450606578863	0
0	53005	27074.311567733246	1
0	53006	27075.990216624227	0
0	53010	27077.07691942598	1
0	53011	27077.362870263054	0
0	53015	27078.286236368983	1
0	53016	27079.500310539263	0
0	53147	27144.682982986766	1
0	53149	27145.038420525992	0
0	53170	27149.848775210484	1
0	53171	27149.923667405553	0
0	53220	27165.451590013349	1
0	53221	27165.627953881488	0
0	53325	27250.201079653395	1
0	53326	27251.009107508866	0
0	53452	27307.442567004731	1
0	53459	27309.478466109029	0
0	54197	27740.073220821764	1
0	54204	27741.468464753982	0
0	54259	27752.367224260896	1
0	54261	27752.736098996763	0
0	54364	27788.506535884258	1
0	54369	27790.174822463982	0
0	54387	27793.175456361272	1
0	54389	27793.278715511763	0
0	54402	27796.428209740188	1
0	54404	27796.920580501575	0
0	54427	27801.152967455689	1
0	54429	27801.800796564073	0
0	55295	28291.43792245785	1
0	55296	28292.512396089479	0
0	55466	28376.703433131739	1
0	55468	28376.889398732766	0
0	56215	28760.973502320703	1
0	56216	28761.275358866625	0
0	56225	28763.125269321636	1
0	56226	28763.492681121437	0
0	56490	28906.124109102031	1
0	56491	28908.185386392957	0
0	56714	29043.056453589945	1
0	56721	29044.898825279407	0
0	56939	29170.492388893114	1
0	56944	29171.434011409106	0
0	57465	29480.89898160691	1
0	57466	29482.537062909547	0
0	57470	29483.391225062217	1
0	57471	29483.812120023355	0
0	57835	29641.038794716263	1
0	57836	29642.058799963193	0
0	58345	29892.710698369184	1
0	58349	29894.748420623994	0
0	58357	29896.380091376275	1
0	58369	29899.267092077887	0
0	58372	29900.028099850805	1
0	58377	29900.91235051654	2
0	58381	29902.242705987601	1
0	58384	29902.571231978121	0
1	0	0	0
1	180	114.756259266825	1
1	181	115.195139779203	0
1	270	139.128893138491	1
1	271	141.438708936797	0
1	275	142.260074025953	1
1	276	142.458803225147	0
1	732	384.041647798498	1
1	735	385.152062721201	2
1	741	386.419584347125	1
1	751	390.30664312041	0
1	779	394.741827688204	1
1	781	395.2024607708	0
1	840	408.795071840306	1
1	844	409.344513681727	0
1	2205	1060.306107576134	1
1	2206	1061.146849531462	0
1	2375	1141.011590072824	1
1	2376	1141.01685099116	0
1	2987	1483.997009574598	1
1	2991	1489.349113212504	0
1	4145	2133.087665139756	1
1	4146	2133.212307250962	0
1	4332	2232.814537948788	1
1	4334	2232.951595742876	0
1	4345	2235.840017888927	1
1	4346	2236.261181678571	0
1	4670	2509.521637756425	1
1	4674	2512.153222178654	0
1	4704	2517.70236264054	1
1	4711	2519.427858217864	0
1	5332	2780.553362341284	1
1	5336	2781.64058212916	0
1	5610	2907.531381773268	1
1	5611	2911.996867017696	0
1	6205	3247.845312317557	1
1	6206	3248.298766620791	0
1	6220	3251.180463575533	1
1	6221	3251.581464455272	0
1	7710	3966.637916695824	1
1	7711	3967.219601417668	0
1	8800	4538.702060281622	1
1	8804	4541.705782769439	0
1	8807	4541.970264764537	1
1	8809	4542.256070437838	0
1	8817	4544.077466775325	1
1	8820	4544.899597094801	2
1	8821	4546.209347942161	1
1	8826	4547.068377301364	0
1	8829	4547.210988602384	1
1	8831	4547.231361064958	0
1	10177	5252.470654696672	1
1	10184	5254.012528100187	0
1	10827	5572.64280875781	1
1	10829	5572.930427756093	0
1	11575	5956.941171563856	1
1	11576	5959.641039195668	0
1	11697	5999.861677181331	1
1	11699	6000.116604571286	0
1	11927	6123.599054943426	1
1	11931	6125.390160280329	0
1	11937	6126.45996887456	1
1	11941	6129.222958806012	0
1	11995	6157.493443932793	1
1	11996	6158.183667594637	0
1	12185	6250.890085314808	1
1	12186	6251.521853536477	0
1	13650	7065.395846459811	1
1	13651	7065.44388259863	0
1	14637	7649.269535741503	1
1	14654	7653.055193971107	0
1	14660	7654.432711058869	1
1	14671	7658.021365932085	0
1	14675	7658.881793594443	1
1	14676	7659.367178886503	0
1	15275	7930.326145333472	1
1	15276	7934.040733710121	0
1	17217	8895.724085582968	1
1	17219	8896.826743144945	0
1	17337	8934.744599695254	1
1	17339	8935.841277177072	0
1	17475	9017.817444313945	1
1	17476	9023.258826745868	0
1	18120	9338.823128137575	1
1	18121	9338.833560705792	0
1	18127	9339.871392979521	1
1	18144	9343.397801567783	0
1	19680	10108.117835363974	1
1	19685	10112.096264850258	2
1	19690	10113.758952706297	3
1	19691	10113.987027278177	2
1	19694	10114.01297744286	1
1	19697	10114.951316146653	2
1	19700	10116.092435454026	3
1	19701	10117.412071848124	2
1	19705	10118.420708039891	3
1	19706	10118.775154116764	2
1	19709	10118.993008590082	1
1	19711	10119.555540544533	0
1	19750	10127.614519795138	1
1	19751	10127.711829895382	0
1	19757	10128.582193498169	1
1	19759	10129.700210977409	0
1	21107	10774.528877262347	1
1	21111	10776.354445581667	0
1	21115	10777.230108838126	1
1	21116	10778.439611958274	0
1	21415	10927.628355528529	1
1	21416	10928.237143949297	0
1	21517	10968.602557845526	1
1	21521	10970.01738822233	0
1	22442	11464.79518726995	1
1	22447	11465.694911305567	2
1	22451	11467.011808320073	1
1	22454	11467.215668098178	0
1	22510	11522.56157328771	1
1	22511	11524.511715092445	0
1	23865	12168.304006434983	1
1	23866	12168.426597157469	0
1	23870	12169.419255508831	1
1	23874	12172.000898224264	0
1	24430	12351.420203191097	1
1	24431	12352.346892237665	0
1	24710	12553.79496855399	1
1	24711	12555.999982377709	0
1	24842	12610.057690560752	1
1	24846	12611.728237053912	0
1	24855	12613.767650911651	1
1	24859	12616.83796877697	0
1	24965	12661.833763222198	1
1	24966	12662.412239436945	0
1	26240	13362.536042053077	1
1	26241	13362.596518271027	0
1	26245	13363.479820984119	1
1	26246	13364.370032394163	0
1	26252	13365.202450343545	1
1	26256	13366.752468031156	0
1	26260	13367.929309387482	1
1	26261	13368.558115469099	0
1	26807	13640.930846676025	1
1	26809	13641.277322381738	0
1	28040	14199.114604528881	1
1	28041	14199.905156571891	0
1	30202	15335.219108581999	1
1	30204	15335.300775676073	0
1	30585	15545.680772439388	1
1	30586	15545.704039540041	0
1	30847	15650.892544604155	1
1	30851	15652.965944829019	0
1	30855	15653.872290193098	1
1	30856	15655.954266618189	0
1	31350	15899.85843760919	1
1	31351	15900.617579779999	0
1	31875	16162.936572905092	1
1	31879	16164.074449755808	0
1	32189	16338.152105582434	1
1	32196	16339.505773859344	0
1	33155	16809.711031814032	1
1	33156	16810.911302658596	0
1	35350	18155.131239115864	1
1	35360	18157.535933421049	2
1	35361	18158.191773161415	1
1	35369	18159.174808346192	0
1	35382	18162.224008884963	1
1	35386	18169.099748346838	0
1	35632	18269.895885047963	1
1	35639	18271.993451065924	0
1	36070	18455.662475840031	1
1	36076	18456.046855397556	0
1	36456	18632.036654502605	1
1	36458	18632.309177161003	0
1	37222	19094.221558432781	1
1	37224	19094.471208010123	0
1	37970	19435.137642544189	1
1	37990	19438.795296755179	0
1	38037	19449.419194107567	1
1	38042	19450.508472710912	2
1	38044	19450.903122245223	1
1	38046	19451.450701567688	0
1	38054	19452.307152918697	1
1	38060	19454.23998504632	2
1	38061	19455.468804842338	1
1	38065	19456.359438476909	2
1	38066	19456.751580298579	1
1	38071	19459.088269304301	0
1	38395	19541.066007633833	1
1	38396	19541.578539836061	0
1	39165	19950.910718814633	1
1	39169	19951.709678679452	0
1	39175	19953.145345267053	1
1	39176	19953.816527147949	0
1	39985	20338.315542264715	1
1	39986	20338.672152896391	0
1	40350	20516.324743074445	1
1	40354	20517.035883824127	0
1	40615	20641.166020980471	1
1	40621	20642.625744477876	0
1	40730	20697.796734189604	1
1	40731	20697.855192023513	0
1	41819	21285.390374202931	1
1	41826	21289.002754422246	0
1	42380	21529.811167774643	1
1	42381	21531.908919406728	0
1	42397	21534.932092094301	1
1	42399	21535.798990624313	0
1	42407	21536.905840400672	1
1	42424	21539.92142925468	0
1	42690	21683.523607020531	1
1	42696	21688.024027580129	0
1	42704	21689.11822513753	1
1	42716	21692.257495703331	0
1	44314	22548.321930235552	1
1	44316	22548.739766465234	0
1	44322	22550.08071908422	1
1	44324	22550.08209058833	0
1	44340	22555.221544795746	1
1	44341	22556.997480758231	0
1	44345	22558.05648968783	1
1	44346	22559.44271065647	0
1	44350	22560.589651117644	1
1	44351	22561.211100279963	0
1	46825	23960.969802498916	1
1	46826	23961.54164720603	0
1	46875	23984.920077320351	1
1	46876	23985.434318963348	0
1	48100	24582.341768462912	1
1	48101	24584.737286742841	0
1	48497	24755.155729768002	1
1	48499	24755.741212982152	0
1	48562	24788.131939739344	1
1	48564	24788.261017853549	0
1	48847	24974.115316102891	1
1	48859	24976.969377618024	0
1	48992	25037.366087339692	1
1	48994	25037.497197476618	0
1	49510	25336.075024983889	1
1	49519	25337.940077557903	0
1	49580	25359.811365374118	1
1	49581	25360.158402117489	0
1	50045	25605.749612958832	1
1	50046	25606.343965682593	0
1	50125	25645.3303592725	1
1	50130	25647.466708369659	2
1	50139	25651.407860592585	1
1	50144	25652.697071754453	0
1	50147	25653.21002226287	1
1	50149	25653.225701698702	0
1	50245	25691.878376944895	1
1	50246	25691.892556634146	0
1	50685	25908.278672167718	1
1	50686	25909.09269904238	0
1	51015	26055.017219914078	1
1	51016	26056.292945041735	0
1	52060	26588.004944319887	1
1	52061	26590.103597003995	0
1	52065	26591.080556927464	1
1	52066	26593.342091053039	0
1	52705	26921.518527020352	1
1	52706	26921.689998122204	0
1	52795	26980.610564014382	1
1	52796	26980.821456649549	0
1	53605	27430.078224187018	1
1	53606	27430.18143144607	0
1	54340	27784.485307153513	1
1	54346	27785.8386488675	0
1	55832	28575.039049630131	1
1	55835	28575.922024068128	2
1	55836	28576.135173759044	1
1	55841	28578.090877002789	0
1	56415	28862.536775060104	1
1	56416	28863.05724184523	0
1	56975	29178.878568131244	1
1	56976	29179.574254444596	0
1	56987	29181.865663254616	1
1	56991	29184.400638736562	0
1	56995	29185.492964908351	1
1	56996	29185.56599133616	0
1	57000	29186.597058834933	1
1	57001	29188.560518714244	0
1	57007	29189.473269499669	1
1	57011	29189.818974161351	0
1	57045	29197.239552129262	1
1	57046	29197.609300952496	0
1	57352	29412.920038479411	1
1	57354	29413.37839172316	0
1	57360	29415.054132520531	1
1	57364	29415.813502707311	0
1	57372	29417.676905170118	1
1	57379	29418.950525109355	0
2	0	0	0
2	5	1.538904756566	1
2	6	2.387631024455	0
2	10	2.69679457512	1
2	11	3.579409023502	0
2	150	103.177020125273	1
2	151	103.569101540532	0
2	160	106.919091609108	1
2	161	107.569521980722	0
2	165	107.673142544607	1
2	166	108.520431835194	0
2	205	124.678391514667	1
2	210	125.471723155327	0
2	230	130.225082900364	1
2	231	131.180585082457	0
2	252	134.680781974393	1
2	253	135.143038629391	0
2	290	145.068106386014	1
2	291	145.666934270673	0
2	350	225.429863661566	1
2	351	226.306907428793	0
2	380	241.902052796836	1
2	382	242.43991477919	2
2	383	242.580622632581	1
2	386	243.706479434914	0
2	390	244.547670323904	1
2	391	244.830593647121	0
2	400	251.953333588689	1
2	401	252.830903867437	0
2	405	253.191182595917	1
2	406	253.926364397342	0
2	440	266.926940523635	1
2	441	267.639806368188	0
2	480	293.223598352353	1
2	481	293.463861912863	0
2	510	303.186007761925	1
2	511	303.636114019297	0
2	547	320.53170360268	1
2	548	320.583631526591	0
2	552	321.216456664123	1
2	553	321.522723192448	0
2	557	321.941071815948	1
2	558	322.327862421336	0
2	565	323.477955135637	1
2	568	324.142427786538	0
2	575	325.857165749087	1
2	576	326.086925101192	0
2	640	360.498419292763	1
2	641	361.634711555316	0
2	645	362.065321513691	1
2	648	362.730411850865	0
2	655	364.449263064574	1
2	656	364.954996110609	0
2	675	372.177874350705	1
2	677	372.277024482376	2
2	678	372.622790989211	1
2	682	372.849731723525	2
2	683	373.491863161164	1
2	688	374.622967361404	0
2	697	376.767842341247	1
2	698	376.791570359306	0
2	707	378.273449174065	1
2	709	378.283204917904	2
2	710	378.984867773229	1
2	713	379.847668195912	0
2	777	394.031056701852	1
2	778	394.741827688204	0
2	789	396.352396854195	1
2	790	396.512600235386	0
2	797	397.70720803904	1
2	798	398.328681567616	0
2	804	398.948316638714	1
2	805	399.139692951764	0
2	809	399.217838834013	1
2	810	400.222656713451	0
2	814	400.945427330833	1
2	815	401.368090946438	0
2	822	402.620965500006	1
2	823	403.140961706943	0
2	852	410.573672826355	1
2	854	410.653329137405	2
2	855	411.10736429578	1
2	858	411.99977744574	0
2	900	421.121091530929	1
2	901	421.499171630791	0
2	1005	482.359534167415	1
2	1006	482.989325915459	0
2	1025	497.034225136051	1
2	1026	497.725227664903	0
2	1030	497.969319606978	1
2	1031	498.644820810136	0
2	1065	515.430294317009	1
2	1066	515.869580517264	0
2	1075	518.295115764848	1
2	1076	518.321608205036	0
2	1085	520.109117280272	1
2	1086	520.290031650952	0
2	1090	520.333849745785	1
2	1091	521.119938803474	0
2	1105	528.018931550901	1
2	1106	528.74443351231	0
2	1205	587.54104707776	1
2	1206	587.650174416669	0
2	1212	588.457465674047	1
2	1213	588.548706894249	0
2	1220	589.791823414395	1
2	1221	590.405776144445	0
2	1230	591.68671513978	1
2	1232	592.037682728655	2
2	1233	592.704537712537	1
2	1236	593.747178867772	0
2	1240	594.173229740056	1
2	1241	594.839664935447	0
2	1247	595.148604610166	1
2	1248	596.029724946093	0
2	1252	596.625217979014	1
2	1254	596.7569942945	2
2	1255	597.219290594418	1
2	1258	598.310518531815	0
2	1262	598.694499267061	1
2	1263	599.21704795187	0
2	1270	600.934902937732	1
2	1271	601.368617975652	0
2	1280	603.111244986672	1
2	1282	603.228762369506	2
2	1284	603.28159150942	3
2	1285	603.314771483034	2
2	1288	604.277418412395	1
2	1291	605.091827808447	0
2	1307	607.473228939112	1
2	1308	608.16213492715	0
2	1315	609.441482464241	1
2	1316	610.099433059536	0
2	1325	611.248824020407	1
2	1327	611.702002866787	2
2	1328	612.120920533978	1
2	1331	612.922529248067	0
2	1340	614.407334359164	1
2	1341	615.154838992574	0
2	1345	615.688922260733	1
2	1346	616.276902103436	0
2	1390	638.731675099541	1
2	1391	639.069679850222	0
2	1440	678.001510009748	1
2	1441	678.712809268766	0
2	1445	678.72694928761	1
2	1448	679.87930816804	0
2	1455	681.510567659739	1
2	1456	681.941046575931	0
2	1470	687.100881489582	1
2	1471	687.151836331025	0
2	1475	687.608942604818	1
2	1476	687.955235943221	0
2	1480	689.016231451736	1
2	1481	689.078208354045	0
2	1485	689.302670100125	1
2	1486	689.981886758771	0
2	1490	690.09021115054	1
2	1491	690.928125863172	0
2	1555	771.018705259264	1
2	1558	771.28032103326	0
2	1562	771.455549722398	1
2	1565	772.16686095638	0
2	1569	772.192974763471	1
2	1571	772.969466880493	2
2	1572	773.042501954043	1
2	1576	773.140930339276	2
2	1577	774.122325426487	1
2	1580	775.049592991413	0
2	1605	780.631666570514	1
2	1606	780.898075525144	0
2	1655	823.138702393036	1
2	1656	823.35546067558	0
2	1670	827.447951039033	1
2	1671	828.016062981004	0
2	1675	828.445283695713	1
2	1678	829.19354089929	0
2	1685	830.655013991401	1
2	1686	831.064374541512	0
2	1690	831.196391801391	1
2	1694	831.326597577674	2
2	1695	832.144374704195	1
2	1698	833.03646023797	0
2	1707	834.427781202752	1
2	1708	835.166012180896	0
2	1719	837.39546510264	1
2	1720	837.504439518435	0
2	1724	838.545864654757	1
2	1725	838.648038879337	0
2	1731	839.340130451445	1
2	1732	839.502155206932	0
2	1747	842.791634392107	1
2	1748	843.186109282748	0
2	1757	844.327802424791	1
2	1758	845.416236875784	0
2	1762	845.44424955522	1
2	1764	845.972944224425	2
2	1765	846.221240346432	1
2	1768	847.319473095443	0
2	1810	862.849620830905	1
2	1812	863.358539691719	2
2	1813	863.989200262891	1
2	1819	864.325155151065	2
2	1820	864.902681143654	1
2	1824	864.967219295243	2
2	1825	865.704470515044	1
2	1829	865.99331283143	2
2	1830	866.749624987391	1
2	1833	867.926536675242	0
2	1875	889.296866240957	1
2	1876	890.044846608499	0
2	1885	891.851886591313	1
2	1887	891.934849088818	2
2	1888	892.403912723441	1
2	1891	893.546827372726	0
2	1895	893.741061150819	1
2	1896	894.49877451966	0
2	1960	923.318269422415	1
2	1961	923.912811231855	0
2	1970	926.41323211981	1
2	1971	926.864899577156	0
2	1980	931.943697376539	1
2	1981	932.292646035445	0
2	1985	932.319098255953	1
2	1986	933.099990309109	0
2	1995	938.618024186012	1
2	1996	938.657828852121	0
2	2015	962.556383706771	1
2	2017	962.573835738662	2
2	2018	963.029193402286	1
2	2023	964.157196417283	0
2	2090	1023.503334309877	1
2	2091	1024.304503009072	0
2	2100	1025.48835131899	1
2	2101	1026.295925743388	0
2	2115	1030.793177471548	1
2	2116	1031.378338525909	0
2	2120	1031.933561035079	1
2	2121	1032.262857837602	0
2	2125	1032.479058563815	1
2	2126	1033.073623534478	0
2	2160	1048.783312468467	1
2	2161	1049.091997898296	0
2	2175	1051.69581172249	1
2	2177	1052.090922871748	2
2	2178	1052.474815422461	1
2	2183	1053.457111350053	0
2	2187	1053.66022812909	1
2	2188	1054.628491276761	0
2	2240	1074.299695506997	1
2	2241	1074.529686995946	0
2	2265	1097.000033227614	1
2	2266	1097.384673106168	0
2	2270	1097.727433955146	1
2	2271	1098.211737297904	0
2	2325	1124.080964836109	1
2	2326	1124.310124455997	0
2	2330	1124.522360426018	1
2	2331	1125.149017266323	0
2	2340	1126.589797974884	1
2	2341	1127.48147110812	0
2	2530	1275.869443393232	1
2	2533	1276.969414740719	0
2	2537	1277.054218975499	1
2	2538	1278.147084031265	0
2	2545	1279.174730555372	1
2	2546	1280.099387871299	0
2	2555	1283.136086552816	1
2	2558	1283.673151653353	0
2	2610	1308.043498403653	1
2	2611	1308.173651024764	0
2	2615	1308.310346581381	1
2	2616	1309.181375116547	0
2	2620	1309.937373499722	1
2	2621	1310.149609632203	0
2	2625	1310.260041075247	1
2	2627	1310.303038690791	2
2	2628	1311.157535877144	1
2	2631	1312.095492931614	0
2	2725	1359.409738820071	1
2	2726	1359.727501160468	0
2	2752	1393.252428167761	1
2	2754	1393.28198262727	2
2	2755	1393.758965860055	1
2	2758	1394.58742870477	0
2	2762	1394.829654411897	1
2	2764	1395.163304275992	2
2	2765	1395.429571900451	1
2	2769	1395.716538837894	2
2	2770	1396.31645568435	1
2	2773	1397.337911580716	0
2	2780	1398.562581879123	1
2	2781	1399.536467620571	0
2	2790	1401.496067964027	1
2	2793	1401.881032834437	0
2	2815	1409.528442345658	1
2	2816	1410.31270526081	0
2	2825	1412.403422035417	1
2	2826	1412.983179801019	0
2	2830	1413.416148425262	1
2	2831	1414.157402159708	0
2	2835	1414.26159437732	1
2	2836	1415.279677621523	0
2	2845	1417.329631902816	1
2	2846	1417.563479678518	0
2	2855	1419.423047032603	1
2	2856	1420.329121584194	0
2	2890	1441.946624528094	1
2	2891	1441.987903718423	0
2	2895	1442.42211944429	1
2	2896	1442.849051604286	0
2	2967	1480.359643791253	1
2	2970	1480.475561873219	0
2	2977	1481.73446974917	1
2	2978	1482.278225535876	0
2	2985	1483.552823263421	1
2	2986	1483.997009574598	0
2	3017	1495.587042755639	1
2	3020	1496.121427448564	0
2	3045	1502.062182580653	1
2	3046	1502.702215775851	0
2	3050	1502.930121802891	1
2	3053	1503.693689466458	0
2	3057	1504.469185844612	1
2	3058	1504.563549667787	0
2	3062	1505.525036724671	1
2	3063	1505.671405378267	0
2	3070	1507.027357033545	1
2	3072	1507.108046016941	2
2	3074	1507.188820016808	3
2	3076	1507.285251312958	4
2	3077	1507.631019470844	3
2	3082	1508.625808434657	2
2	3085	1509.6360027466	1
2	3088	1510.721032004434	0
2	3095	1512.398742463574	1
2	3096	1512.756806345287	0
2	3100	1513.463787579089	1
2	3101	1513.777132635567	0
2	3250	1612.473761349903	1
2	3251	1612.666485103114	0
2	3260	1613.556633628702	1
2	3261	1614.328364565397	0
2	3270	1626.231539323543	1
2	3271	1626.613122945736	0
2	3285	1630.180841057385	1
2	3286	1630.908247089514	0
2	3385	1700.722016313104	1
2	3386	1701.527888777547	0
2	3390	1702.009111116948	1
2	3391	1702.514720943265	0
2	3410	1714.557981434316	1
2	3411	1714.973225839673	0
2	3415	1715.060510471186	1
2	3416	1715.817974212816	0
2	3420	1716.791059333233	1
2	3421	1717.01767380969	0
2	3445	1763.968108963337	1
2	3446	1764.619194008108	0
2	3450	1764.871734568175	1
2	3451	1765.496212637216	0
2	3475	1774.333412226655	1
2	3476	1775.091850603668	0
2	3510	1797.774198628244	1
2	3513	1798.255951252197	0
2	3580	1827.867801905942	1
2	3584	1828.527459837707	2
2	3585	1828.610531067099	1
2	3588	1829.634134818982	0
2	3625	1843.897159177071	1
2	3626	1844.38495388017	0
2	3660	1852.706187941299	1
2	3661	1852.797387243844	0
2	3680	1857.708235811674	1
2	3682	1858.434889770422	2
2	3683	1858.6412517995	1
2	3688	1859.715445509123	0
2	3740	1879.707036544954	1
2	3742	1880.285784312545	2
2	3743	1880.476860761865	1
2	3746	1881.395878258291	0
2	3750	1881.763595710642	1
2	3751	1882.367170326262	0
2	3912	1979.7624079377	1
2	3913	1979.943248181312	0
2	3960	2002.74624075903	1
2	3962	2002.986677721774	2
2	3963	2003.204689557463	1
2	3966	2004.193992899064	0
2	3990	2048.187524802389	1
2	3991	2048.789564375466	0
2	4070	2093.324298973831	1
2	4071	2093.983198826964	0
2	4075	2094.460885676304	1
2	4078	2095.028122890572	0
2	4082	2095.103595126906	1
2	4083	2096.18511796344	0
2	4087	2096.867945184894	1
2	4088	2097.288586234319	0
2	4092	2098.195217003811	1
2	4093	2098.235207458976	0
2	4100	2099.776841181285	1
2	4101	2100.509474092927	0
2	4170	2138.491231100727	1
2	4172	2139.00500844739	2
2	4173	2139.320870878606	1
2	4178	2140.474357134442	0
2	4225	2202.136467962611	1
2	4226	2202.932561023144	0
2	4300	2226.1124659951	1
2	4301	2226.866645995094	0
2	4330	2232.623077484159	1
2	4331	2232.814537948788	0
2	4355	2237.586781422092	1
2	4356	2238.468070669048	0
2	4400	2266.843357000027	1
2	4401	2267.196027897158	0
2	4405	2267.811769322385	1
2	4406	2268.064090064773	0
2	4480	2338.930653828739	1
2	4481	2339.116770625248	0
2	4580	2414.767342261607	1
2	4581	2415.168864454826	0
2	4630	2440.035165448518	1
2	4631	2441.18174003575	0
2	4645	2449.984003378062	1
2	4646	2450.665999452516	0
2	4677	2512.224593378934	1
2	4678	2512.463308658603	0
2	4690	2514.501265500084	1
2	4693	2515.461209168437	0
2	4702	2517.01397761692	1
2	4703	2517.70236264054	0
2	4707	2517.946027334865	1
2	4708	2518.610825004301	0
2	4717	2519.894376485379	1
2	4720	2520.660606929067	0
2	4727	2522.032417499458	1
2	4728	2522.932984281018	0
2	4750	2527.902378656967	1
2	4751	2528.779876846652	0
2	4875	2588.901474981642	1
2	4876	2589.565633543755	0
2	4925	2611.784035447695	1
2	4926	2612.835863566381	0
2	4930	2613.501734305813	1
2	4931	2613.783865811006	0
2	4937	2614.125808349377	1
2	4940	2614.643534639646	0
2	4947	2616.435658421817	1
2	4948	2616.948087914549	0
2	4955	2618.074252739949	1
2	4958	2618.97546307955	0
2	4985	2635.614383677542	1
2	4986	2635.807719248505	0
2	4995	2637.028005270591	1
2	4997	2637.284371979144	2
2	4998	2637.94788131385	1
2	5001	2638.974862388958	0
2	5040	2651.693738210135	1
2	5041	2652.297159500592	0
2	5045	2652.594575480911	1
2	5046	2653.403604171504	0
2	5050	2653.902473449663	1
2	5053	2654.337297249757	0
2	5057	2655.376794147762	1
2	5058	2655.425744536411	0
2	5130	2691.509014572476	1
2	5131	2692.054192785024	0
2	5190	2730.058089021407	1
2	5191	2730.547647648143	0
2	5195	2730.831978715389	1
2	5196	2731.659035746405	0
2	5215	2736.491407415929	1
2	5216	2737.303035256705	0
2	5242	2762.667001941441	1
2	5243	2763.135877907149	0
2	5252	2764.200132780256	1
2	5253	2765.152458375844	0
2	5259	2765.880052612108	1
2	5260	2766.231559497642	0
2	5264	2767.036437784093	1
2	5265	2767.088735080103	0
2	5269	2767.35261401406	1
2	5273	2767.545535830515	2
2	5274	2768.008194333187	1
2	5278	2768.707116174124	2
2	5279	2768.925495334959	1
2	5283	2768.929174645022	2
2	5285	2769.054934289985	3
2	5286	2770.066352310369	2
2	5291	2770.947255080717	1
2	5295	2771.625604642092	2
2	5296	2771.922145073919	1
2	5300	2772.045695964413	2
2	5301	2772.972534613276	1
2	5304	2774.0165628716	0
2	5311	2775.709507411792	1
2	5312	2775.786200676172	0
2	5319	2776.852640649027	1
2	5320	2777.439347235451	0
2	5330	2780.178938738026	1
2	5331	2780.553362341284	0
2	5385	2809.239777974075	1
2	5386	2809.998331367694	0
2	5395	2811.682349343913	1
2	5396	2812.096067432028	0
2	5405	2813.961695446781	1
2	5406	2814.737085727017	0
2	5410	2814.863277840087	1
2	5411	2815.852736929778	0
2	5415	2816.168645042794	1
2	5416	2816.702550224934	0
2	5425	2819.850633876174	1
2	5427	2820.20713243718	2
2	5428	2820.226843738639	1
2	5432	2820.537672496589	2
2	5433	2821.416752261565	1
2	5436	2822.241202940968	0
2	5450	2828.575740933585	1
2	5451	2829.02619046057	0
2	5460	2829.969094276161	1
2	5461	2830.768020148206	0
2	5505	2846.351699008535	1
2	5506	2846.73479505965	0
2	5510	2846.774411422652	1
2	5511	2847.606092326264	0
2	5515	2847.648513045025	1
2	5516	2848.421904264963	0
2	5530	2856.368292691069	1
2	5531	2857.374217101593	0
2	5585	2899.581880753006	1
2	5586	2900.17752022291	0
2	5620	2913.573290228292	1
2	5621	2913.684783847506	0
2	5660	2975.310268930864	1
2	5662	2975.432387786892	2
2	5663	2975.990770689806	1
2	5668	2977.001254723815	0
2	5700	2985.848481901695	1
2	5701	2986.886416117037	0
2	5730	3004.568418016281	1
2	5731	3005.130019368543	0
2	5735	3006.00552078393	1
2	5736	3006.14975087739	0
2	5740	3006.416567624864	1
2	5743	3007.011040310966	0
2	5747	3007.315351156043	1
2	5748	3007.827420245981	0
2	5755	3009.058334201492	1
2	5756	3010.19256242284	0
2	5780	3021.558210470181	1
2	5781	3022.357016378283	0
2	5870	3092.666997621066	1
2	5871	3093.560866748917	0
2	5915	3108.380725997168	1
2	5916	3108.824240916839	0
2	5925	3115.885953753108	1
2	5926	3116.293401148592	0
2	5930	3117.249137035699	1
2	5931	3117.432666182567	0
2	5935	3118.122396188082	1
2	5936	3118.304785357744	0
2	5940	3119.405662148871	1
2	5941	3119.413542206448	0
2	5955	3124.390300892694	1
2	5956	3125.536542978567	0
2	5960	3125.589386860031	1
2	5961	3126.369396626913	0
2	5980	3145.874470316616	1
2	5981	3146.207428419928	0
2	6035	3193.222242532822	1
2	6036	3194.016964000239	0
2	6040	3194.043675151728	1
2	6041	3194.910957264955	0
2	6050	3197.19284661277	1
2	6052	3197.262243656461	2
2	6053	3197.858151216359	1
2	6056	3198.829955972565	0
2	6060	3199.058045297136	1
2	6062	3199.337008019151	2
2	6063	3199.646616061052	1
2	6066	3200.468410395013	0
2	6080	3204.672984105425	1
2	6081	3204.982143139856	0
2	6085	3205.09408472223	1
2	6086	3205.963410072232	0
2	6090	3206.977424901143	1
2	6091	3207.132376364822	0
2	6095	3207.709182459665	1
2	6096	3208.092993348761	0
2	6100	3208.465938168953	1
2	6102	3208.585837024498	2
2	6103	3209.108425814676	1
2	6107	3209.776827929753	2
2	6108	3210.030325375701	1
2	6114	3211.033236388342	2
2	6115	3211.228699793405	1
2	6119	3211.426938555835	2
2	6121	3211.710459081097	3
2	6122	3212.302145982086	2
2	6125	3213.2597664918	1
2	6129	3213.363292341268	2
2	6131	3213.968276284497	3
2	6132	3214.167860641349	2
2	6136	3214.624643338841	3
2	6137	3215.165681510065	2
2	6140	3216.152374840733	1
2	6147	3217.329784625043	0
2	6330	3337.665828297983	1
2	6331	3337.87397648986	0
2	6345	3342.144941262543	1
2	6346	3342.67679688703	0
2	6350	3343.272442225125	1
2	6351	3343.567929317203	0
2	6365	3349.791851342549	1
2	6367	3350.137981335216	2
2	6369	3350.233946179092	3
2	6370	3350.441101340797	2
2	6373	3351.30753717668	1
2	6377	3352.00347508522	2
2	6378	3352.210280880366	1
2	6381	3353.03724207034	0
2	6420	3375.708772767559	1
2	6421	3376.583617106302	0
2	6450	3398.219266670324	1
2	6451	3398.81894146366	0
2	6505	3417.786379140812	1
2	6506	3418.184636345101	0
2	6512	3418.512749429284	1
2	6513	3418.985755919167	0
2	6517	3419.171092011114	1
2	6518	3419.946383028352	0
2	6522	3420.809988044132	1
2	6523	3420.974811045979	0
2	6530	3422.639341314529	1
2	6531	3422.942212306768	0
2	6537	3423.636188096833	1
2	6538	3423.869782644384	0
2	6545	3425.186745037427	1
2	6546	3425.756623816271	0
2	6560	3432.133062816073	1
2	6562	3432.187539538585	2
2	6563	3432.519636366032	1
2	6566	3433.402748494297	0
2	6570	3433.964451452149	1
2	6571	3434.563869241234	0
2	6635	3470.263478058856	1
2	6636	3470.81876936429	0
2	6640	3470.882476517199	1
2	6641	3471.991141235221	0
2	6652	3473.797004284859	1
2	6653	3474.13550824093	0
2	6657	3474.449653583128	1
2	6658	3475.042734048034	0
2	6675	3478.29838021094	1
2	6676	3479.27373645229	0
2	6740	3537.305435335512	1
2	6741	3538.104365525572	0
2	6745	3538.163070429621	1
2	6746	3539.236731762244	0
2	6750	3539.51479668788	1
2	6752	3539.99819744544	2
2	6753	3540.414726729123	1
2	6756	3541.494210568247	0
2	6760	3541.566085669226	1
2	6761	3542.309632626818	0
2	6815	3573.052553209226	1
2	6816	3573.607779867197	0
2	6825	3575.858193908772	1
2	6826	3575.909779198606	0
2	6830	3575.941722753074	1
2	6832	3576.620902013396	2
2	6833	3576.740623184432	1
2	6837	3577.82029661136	2
2	6838	3577.902034323335	1
2	6841	3578.92689868477	0
2	6845	3579.218595085049	1
2	6846	3579.82749008783	0
2	6875	3588.411061057995	1
2	6876	3588.676584118466	0
2	6935	3625.768688327369	1
2	6936	3626.555972637195	0
2	6985	3648.421582230482	1
2	6986	3649.07290516233	0
2	7000	3653.218521773961	1
2	7001	3653.837291082515	0
2	7010	3655.048054025891	1
2	7011	3655.729881280045	0
2	7015	3656.675487626666	1
2	7016	3656.795772590524	0
2	7030	3659.860248787718	1
2	7032	3659.914765161263	2
2	7033	3660.095171117781	1
2	7036	3660.917387705853	0
2	7040	3661.531798865698	1
2	7041	3661.935791064052	0
2	7047	3662.373324173634	1
2	7048	3663.106226266826	0
2	7105	3692.12334403674	1
2	7108	3693.076491004352	0
2	7112	3693.11385918493	1
2	7113	3694.144848162897	0
2	7135	3698.97594520814	1
2	7136	3699.802778267376	0
2	7162	3712.175239710804	1
2	7163	3712.244072301169	0
2	7180	3723.8038537328	1
2	7181	3723.931420112467	0
2	7185	3724.058983179781	1
2	7186	3724.934948652117	0
2	7202	3727.339047707318	1
2	7205	3727.969967464238	0
2	7265	3753.627854781095	1
2	7266	3753.818379807348	0
2	7275	3755.7543433932	1
2	7278	3756.584989302382	0
2	7285	3758.18657401638	1
2	7286	3758.637870818898	0
2	7295	3760.669706520229	1
2	7296	3761.199634489526	0
2	7330	3784.266117023021	1
2	7331	3784.48733096992	0
2	7340	3786.088968389638	1
2	7341	3786.647075553735	0
2	7350	3788.655965377008	1
2	7351	3788.962488373679	0
2	7385	3815.424494008309	1
2	7386	3816.322113071538	0
2	7390	3816.929774089434	1
2	7391	3817.220300442323	0
2	7425	3857.431051191839	1
2	7426	3857.790545324923	0
2	7470	3897.786684511749	1
2	7471	3898.180459987244	0
2	7485	3901.959492354481	1
2	7486	3902.925580680519	0
2	7490	3903.679247780255	1
2	7491	3903.979491097908	0
2	7530	3921.942369234413	1
2	7531	3922.831679564847	0
2	7545	3924.998401279293	1
2	7547	3925.70951264376	2
2	7548	3925.888556134368	1
2	7551	3926.819884540646	0
2	7555	3926.897770144566	1
2	7558	3927.643110468558	0
2	7565	3928.496728238457	1
2	7567	3929.459283982502	2
2	7568	3929.473224212735	1
2	7573	3930.597214485745	0
2	7577	3931.041772803256	1
2	7579	3931.612497215244	2
2	7580	3931.645416380039	1
2	7583	3932.530243612866	0
2	7590	3933.999167790501	1
2	7591	3934.618797569482	0
2	7605	3937.387465788489	1
2	7606	3938.193857012871	0
2	7640	3951.031155858991	1
2	7641	3951.393716006774	0
2	7655	3954.641808460659	1
2	7658	3955.439463922817	0
2	7662	3955.936671858631	1
2	7663	3956.586179964587	0
2	7667	3956.612452804879	1
2	7669	3957.369722169209	2
2	7670	3957.416188937582	1
2	7673	3958.258260245778	0
2	7680	3959.565905316737	1
2	7681	3960.005632626329	0
2	7690	3961.361146733624	1
2	7691	3962.136645570927	0
2	7740	3972.911914238076	1
2	7742	3973.104251558673	2
2	7744	3973.145651605776	3
2	7745	3973.389313166204	2
2	7748	3974.378886392421	1
2	7751	3975.389162380329	0
2	7790	3993.731461974953	1
2	7791	3994.471623505297	0
2	7797	3995.310089193094	1
2	7798	3995.35885641856	0
2	7815	3998.984481455731	1
2	7816	3999.29184609197	0
2	7840	4012.823715073077	1
2	7841	4013.453215508491	0
2	7865	4028.850386162209	1
2	7866	4029.461300170576	0
2	7907	4040.957197148882	1
2	7908	4041.252229463131	0
2	7982	4075.392594026336	1
2	7983	4075.487735135638	0
2	7990	4076.819308045992	1
2	7992	4076.894010673567	2
2	7993	4077.81689494212	1
2	7996	4078.638425790862	0
2	8010	4081.449905633787	1
2	8011	4081.893772350688	0
2	8015	4082.114292608755	1
2	8017	4082.339336779343	2
2	8018	4082.989171142288	1
2	8022	4083.547417273388	2
2	8023	4084.034125638631	1
2	8027	4084.131293567248	2
2	8029	4084.289710664345	3
2	8030	4084.981887222797	2
2	8034	4085.377974017228	3
2	8035	4086.113208762247	2
2	8038	4086.929150132619	1
2	8041	4088.107017035287	0
2	8045	4088.273281248739	1
2	8046	4089.060325658757	0
2	8050	4089.22072181999	1
2	8051	4090.093367936246	0
2	8075	4114.172330881638	1
2	8076	4114.539644757131	0
2	8085	4116.714020051375	1
2	8086	4117.207874514356	0
2	8090	4117.506012273831	1
2	8091	4118.08692413057	0
2	8095	4118.514301145222	1
2	8096	4119.177102977045	0
2	8120	4128.151416417697	1
2	8121	4128.20351913452	0
2	8160	4157.641241131976	1
2	8161	4157.863531124286	0
2	8210	4183.417224578982	1
2	8211	4183.852724403989	0
2	8285	4258.540939508915	1
2	8286	4259.119811660478	0
2	8365	4324.660977593138	1
2	8366	4324.669056823807	0
2	8375	4326.748538436818	1
2	8376	4327.235894928371	0
2	8460	4366.158522631641	1
2	8461	4366.281751817681	0
2	8470	4368.166700171767	1
2	8471	4368.583135505288	0
2	8475	4368.738417173172	1
2	8476	4369.568390316784	0
2	8505	4389.799384382639	1
2	8507	4389.930681039638	2
2	8508	4390.277696015793	1
2	8514	4390.985807990125	2
2	8515	4391.123164955261	1
2	8522	4392.272269201572	0
2	8540	4397.714394300316	1
2	8541	4397.805768361318	0
2	8560	4406.471861800307	1
2	8561	4406.487973317321	0
2	8565	4406.545247383158	1
2	8566	4407.519271674476	0
2	8580	4412.261868253445	1
2	8581	4412.689929793656	0
2	8635	4446.247659315103	1
2	8636	4446.862494231384	0
2	8680	4461.774704705654	1
2	8681	4462.562728391123	0
2	8690	4469.299767008343	1
2	8691	4469.571467981091	0
2	8700	4470.889827112068	1
2	8701	4471.541358273266	0
2	8710	4472.48174851294	1
2	8711	4473.297104374016	0
2	8720	4474.471240548221	1
2	8721	4475.378893298166	0
2	8740	4478.788405990357	1
2	8741	4479.186655465192	0
2	8825	4546.752540692321	1
2	8828	4547.210988602384	0
2	8855	4552.7034989678	1
2	8856	4553.531575243889	0
2	8865	4554.735153343856	1
2	8868	4555.726651290309	0
2	8875	4557.130878874031	1
2	8878	4558.021002123848	0
2	8882	4558.62100283015	1
2	8883	4558.920872014732	0
2	8887	4559.297628925153	1
2	8888	4559.803606610064	0
2	8894	4560.480688569095	1
2	8895	4560.950882797473	0
2	8902	4562.220782933239	1
2	8904	4562.886931095769	2
2	8905	4563.037872200896	1
2	8908	4563.909061961313	0
2	8980	4595.889643593812	1
2	8981	4596.560908324063	0
2	8985	4596.737088639512	1
2	8986	4597.626254896239	0
2	8995	4598.828262538832	1
2	8996	4599.765317651829	0
2	9005	4601.303690934874	1
2	9006	4601.699850566664	0
2	9060	4677.62913119972	1
2	9061	4677.905491316144	0
2	9115	4713.831656348558	1
2	9116	4714.561528960411	0
2	9225	4762.577590307913	1
2	9226	4763.464329818257	0
2	9235	4765.164466750599	1
2	9236	4765.380374606134	0
2	9250	4768.642448530872	1
2	9251	4768.858528692065	0
2	9275	4790.099497873847	1
2	9276	4790.839656426793	0
2	9297	4795.131270227536	1
2	9298	4795.233501317154	0
2	9307	4796.112313584461	1
2	9308	4796.962960564333	0
2	9317	4798.435008581797	1
2	9318	4798.966964266623	0
2	9335	4802.282619426792	1
2	9336	4803.079743316169	0
2	9340	4803.839918402342	1
2	9341	4804.215510202157	0
2	9395	4831.858008081469	1
2	9396	4832.421984112349	0
2	9415	4847.148576731289	1
2	9416	4847.374425874563	0
2	9445	4874.604806439619	1
2	9446	4874.943898013992	0
2	9475	4910.964438951285	1
2	9476	4911.312593289445	0
2	9515	4943.496670623739	1
2	9516	4943.509564447619	0
2	9530	4951.400025568928	1
2	9531	4952.16794301347	0
2	9555	4965.264882438542	1
2	9558	4965.926864207157	0
2	9562	4966.867936419681	1
2	9563	4966.94770630197	0
2	9615	5003.330985596628	1
2	9618	5003.957709021559	0
2	9622	5004.576224869991	1
2	9623	5004.840217075842	0
2	9660	5014.301616641338	1
2	9661	5015.175280279871	0
2	9680	5021.658222527778	1
2	9681	5022.197403633433	0
2	9695	5025.659106789257	1
2	9696	5026.428939922288	0
2	9702	5027.113026163817	1
2	9703	5027.339131755702	0
2	9707	5027.418700266192	1
2	9709	5027.609754220611	2
2	9710	5028.28274324708	1
2	9713	5029.287177750788	0
2	9720	5030.904957605771	1
2	9721	5031.484553686104	0
2	9735	5034.112813769569	1
2	9736	5034.319142128568	0
2	9745	5036.07982851526	1
2	9746	5037.010587853086	0
2	9750	5037.861240836239	1
2	9751	5037.910766985812	0
2	9755	5038.024673696718	1
2	9756	5038.84520056535	0
2	9840	5080.991730634093	1
2	9841	5081.736362912484	0
2	9865	5109.43663057114	1
2	9866	5110.0976416533	0
2	9875	5112.150953285579	1
2	9876	5112.666065949191	0
2	9880	5113.501792459475	1
2	9881	5113.776345567022	0
2	9890	5115.412067259202	1
2	9891	5115.729911724095	0
2	9895	5115.931958658677	1
2	9896	5116.563091868245	0
2	9905	5118.962843194966	1
2	9906	5119.477456435463	0
2	9910	5119.651553969375	1
2	9911	5120.564064643434	0
2	9930	5141.939965003239	1
2	9931	5142.811129913858	0
2	9935	5142.817032372126	1
2	9936	5143.728565013788	0
2	9970	5159.771764914359	1
2	9971	5159.815597472324	0
2	9980	5164.335984587238	1
2	9981	5164.380845609586	0
2	10025	5202.154974942655	1
2	10026	5202.155680204947	0
2	10040	5204.456197018721	1
2	10041	5205.376155457012	0
2	10050	5206.946482212225	1
2	10053	5207.6660783908	0
2	10057	5208.097073553616	1
2	10058	5208.839428356536	0
2	10062	5208.901003009901	1
2	10063	5209.771574042425	0
2	10067	5210.278527988621	1
2	10069	5210.708363366488	2
2	10070	5210.859933399935	1
2	10073	5211.791945276283	0
2	10077	5212.367193547778	1
2	10079	5212.775231785793	2
2	10080	5212.939112315946	1
2	10083	5213.939985075188	0
2	10092	5215.781165821393	1
2	10093	5215.914330490087	0
2	10105	5229.278099801318	1
2	10106	5229.581774003109	0
2	10160	5249.050492751862	1
2	10163	5249.666105803641	0
2	10175	5252.021014047749	1
2	10176	5252.470654696672	0
2	10192	5255.607787764657	1
2	10193	5255.938629846759	0
2	10220	5272.995174921401	1
2	10221	5274.060367696742	0
2	10270	5300.439238983434	1
2	10271	5300.749498463706	0
2	10280	5302.128238945146	1
2	10281	5302.859669306413	0
2	10290	5305.614260335947	1
2	10291	5305.886041392381	0
2	10300	5309.356377559729	1
2	10301	5310.069029586795	0
2	10320	5319.85658272369	1
2	10321	5320.116188280978	0
2	10325	5320.398817269147	1
2	10326	5320.984477337771	0
2	10370	5364.416045891135	1
2	10371	5364.803038499618	0
2	10390	5368.089265707815	1
2	10391	5369.065721697998	0
2	10445	5407.29138541731	1
2	10446	5407.65854878417	0
2	10510	5440.36232023956	1
2	10511	5440.638036731712	0
2	10525	5443.50902972516	1
2	10526	5444.257243681703	0
2	10562	5458.582264331779	1
2	10563	5459.126818214213	0
2	10570	5460.398307636429	1
2	10572	5461.025818201526	2
2	10573	5461.243282620093	1
2	10578	5462.224657281438	0
2	10582	5462.761732689839	1
2	10583	5463.042751873141	0
2	10590	5464.28638057525	1
2	10591	5465.054582365738	0
2	10620	5481.848036675503	1
2	10621	5482.437668448675	0
2	10655	5516.721944142923	1
2	10656	5517.07711690365	0
2	10660	5517.080167006973	1
2	10661	5517.903175047027	0
2	10670	5519.732609714395	1
2	10671	5520.363274703465	0
2	10680	5522.166618396798	1
2	10681	5522.544037763523	0
2	10685	5523.106558357912	1
2	10686	5523.552704408327	0
2	10700	5526.878508856351	1
2	10701	5527.539494618959	0
2	10710	5528.830566452884	1
2	10715	5529.707599918078	0
2	10729	5532.106059810382	1
2	10730	5532.475244537554	0
2	10740	5534.577035625088	1
2	10741	5535.426440354809	0
2	10760	5555.294884988387	1
2	10761	5556.108447847581	0
2	10770	5557.36809862672	1
2	10771	5558.170967751155	0
2	10815	5569.347281370539	1
2	10816	5570.463119454955	0
2	10825	5571.619701896889	1
2	10826	5572.64280875781	0
2	10837	5574.339771734577	1
2	10838	5574.758490029997	0
2	10855	5578.913560555082	1
2	10856	5579.538151224187	0
2	10910	5600.481255325826	1
2	10911	5601.235648951289	0
2	10940	5609.267900048352	1
2	10941	5609.769708034283	0
2	10950	5611.641284818156	1
2	10951	5611.668970685408	0
2	10957	5612.680869351185	1
2	10958	5612.791129473646	0
2	10962	5613.391813576757	1
2	10965	5613.96655277028	0
2	10969	5614.009824625158	1
2	10970	5615.0068624442	0
2	10977	5616.034617685015	1
2	10978	5616.841912784663	0
2	10982	5616.847303578195	1
2	10983	5617.962283301962	0
2	10987	5618.253419328435	1
2	10989	5618.514945245804	2
2	10990	5619.132713788239	1
2	10994	5619.397490701201	2
2	10996	5620.110633811428	3
2	10997	5620.115478743849	2
2	11000	5621.17992375349	1
2	11004	5621.650071281144	2
2	11005	5622.08409617185	1
2	11008	5623.14904907863	0
2	11015	5624.783515416577	1
2	11016	5624.99323102278	0
2	11020	5625.035109148251	1
2	11021	5626.11643085792	0
2	11025	5626.462346913778	1
2	11026	5627.16508544232	0
2	11030	5627.454572693492	1
2	11031	5628.0879604382	0
2	11040	5629.66451277476	1
2	11042	5629.951440854004	2
2	11043	5630.121907140072	1
2	11046	5631.047096366286	0
2	11050	5631.079786932541	1
2	11052	5631.274880719958	2
2	11054	5631.357057901416	3
2	11058	5632.085059756584	4
2	11059	5632.196837163847	3
2	11063	5632.478261066779	4
2	11064	5633.132555855569	3
2	11067	5634.189707216565	2
2	11070	5635.299100499638	1
2	11074	5635.798679923153	2
2	11075	5636.120272935872	1
2	11079	5636.446300751875	2
2	11080	5637.244073653446	1
2	11084	5637.848905815083	2
2	11085	5638.147143878081	1
2	11088	5639.230296806936	0
2	11092	5639.688998869809	1
2	11094	5639.819642065153	2
2	11095	5640.250472644475	1
2	11099	5640.88511665517	2
2	11101	5640.90529251894	3
2	11102	5641.207758180835	2
2	11105	5642.243901573346	1
2	11109	5642.894054054975	2
2	11110	5643.350684718174	1
2	11113	5644.350205705539	0
2	11120	5645.780291787835	1
2	11122	5645.792348199985	2
2	11123	5646.077520544492	1
2	11126	5647.064102583044	0
2	11130	5647.706884444506	1
2	11131	5648.013908312415	0
2	11192	5689.904106444601	1
2	11193	5690.290867830563	0
2	11220	5697.122220822979	1
2	11221	5697.828798538255	0
2	11230	5699.694287034399	1
2	11231	5700.246245088544	0
2	11240	5703.078820713183	1
2	11241	5703.727128185791	0
2	11265	5754.559488858074	1
2	11266	5755.329812744441	0
2	11295	5777.657697842723	1
2	11296	5778.399650528994	0
2	11355	5836.496798253274	1
2	11356	5837.210702317937	0
2	11365	5838.254432159655	1
2	11366	5838.994401545341	0
2	11375	5841.136632780538	1
2	11376	5841.27690202555	0
2	11585	5960.517880927055	1
2	11588	5961.308323693194	0
2	11635	5976.008864254967	1
2	11636	5976.584409354954	0
2	11642	5977.162567615989	1
2	11643	5977.411929099402	0
2	11660	5990.122269992816	1
2	11661	5990.620824885931	0
2	11695	5999.590572617243	1
2	11696	5999.861677181331	0
2	11720	6016.841669916332	1
2	11721	6016.931896345052	0
2	11755	6040.948109594247	1
2	11756	6041.076974893011	0
2	11775	6045.80941818959	1
2	11777	6046.029383985822	2
2	11778	6046.58363028689	1
2	11783	6047.437083036068	0
2	11787	6047.883264574285	1
2	11788	6048.25207703578	0
2	11795	6049.995063208347	1
2	11796	6050.144040745764	0
2	11860	6089.19954759572	1
2	11861	6089.507024709353	0
2	11895	6114.657735619931	1
2	11896	6115.713417075534	0
2	11900	6116.420220396253	1
2	11901	6116.757816348836	0
2	11925	6123.269416714406	1
2	11926	6123.599054943426	0
2	12045	6190.937161079058	1
2	12046	6191.943501150693	0
2	12050	6192.810456178216	1
2	12051	6193.017189343265	0
2	12105	6211.102451452411	1
2	12106	6211.686606402787	0
2	12155	6227.746541130213	1
2	12156	6227.945996061557	0
2	12165	6230.626359821624	1
2	12166	6231.368077114389	0
2	12280	6396.832607258845	1
2	12281	6397.720692268823	0
2	12285	6397.752869192728	1
2	12286	6398.528794769355	0
2	12290	6398.589652557599	1
2	12291	6399.647822952987	0
2	12295	6400.481928473347	1
2	12296	6400.831591324852	0
2	12300	6400.931770924428	1
2	12301	6401.925870821689	0
2	12405	6460.97604012422	1
2	12406	6461.118407954879	0
2	12410	6461.545266872352	1
2	12413	6462.107332908314	0
2	12420	6463.496112525411	1
2	12421	6464.035693677559	0
2	12440	6474.331698434468	1
2	12441	6474.695040949175	0
2	12470	6484.112206896277	1
2	12471	6484.894466943692	0
2	12505	6510.803446304983	1
2	12506	6511.135521834219	0
2	12510	6512.139626787552	1
2	12511	6512.273086939348	0
2	12520	6513.801867236372	1
2	12522	6513.851064234488	2
2	12525	6514.852478827014	1
2	12530	6515.891268030498	0
2	12534	6516.221377123866	1
2	12535	6516.778010655418	0
2	12607	6559.639996812615	1
2	12608	6560.063861590702	0
2	12627	6563.876844829352	1
2	12628	6564.246202691511	0
2	12634	6565.267730989748	1
2	12635	6565.324728882831	0
2	12642	6566.317997230866	1
2	12643	6567.311479408905	0
2	12652	6568.484277268387	1
2	12654	6569.364249849409	2
2	12655	6569.537408973236	1
2	12658	6570.520362592075	0
2	12672	6572.684118600956	1
2	12674	6573.026690716051	2
2	12677	6573.459991877765	1
2	12681	6573.480392607303	2
2	12682	6574.468476917927	1
2	12685	6575.43441628698	0
2	12692	6576.628607572461	1
2	12695	6577.750780844835	0
2	12699	6578.659387135847	1
2	12700	6578.92489770591	0
2	12704	6579.536741031	1
2	12705	6579.997717760463	0
2	12712	6580.858836685552	1
2	12713	6582.011859028933	0
2	12720	6583.351446210108	1
2	12721	6584.078459547328	0
2	12745	6590.523539181298	1
2	12746	6590.566615631465	0
2	12775	6608.708799190334	1
2	12776	6609.602496507109	0
2	12790	6621.821292558639	1
2	12791	6622.741420425979	0
2	12835	6653.065532633552	1
2	12836	6653.829034105801	0
2	12840	6654.299152335641	1
2	12841	6654.658131570575	0
2	12845	6655.418529720455	1
2	12846	6655.464813138471	0
2	12850	6655.685477827529	1
2	12851	6656.371888948903	0
2	12860	6667.831243085474	1
2	12861	6668.751730955369	0
2	12880	6674.030991230037	1
2	12881	6674.200505061454	0
2	12885	6674.769804336855	1
2	12886	6675.39288568488	0
2	12890	6675.478581035636	1
2	12892	6676.106762800536	2
2	12893	6676.319956475223	1
2	12896	6677.210920972756	0
2	12900	6678.152516768167	1
2	12901	6678.349547069433	0
2	12975	6732.281532973018	1
2	12976	6732.751606426118	0
2	12985	6734.664205259378	1
2	12986	6734.940990097126	0
2	12990	6735.057436200361	1
2	12993	6735.827071816618	0
2	12997	6736.482356684443	1
2	12998	6736.811713485564	0
2	13005	6738.584487004161	1
2	13007	6738.673323722283	2
2	13008	6739.153675289504	1
2	13011	6740.271898117527	0
2	13037	6762.237886606699	1
2	13038	6762.661740323924	0
2	13052	6764.988866754118	1
2	13053	6765.355795914965	0
2	13057	6765.670594787879	1
2	13058	6766.402961045603	0
2	13062	6766.813733436929	1
2	13063	6767.518350589282	0
2	13070	6768.724154817083	1
2	13072	6769.340491775421	2
2	13075	6769.735156701046	1
2	13080	6770.54022408026	0
2	13084	6771.328341653712	1
2	13085	6771.63232997908	0
2	13092	6773.4945607945	1
2	13093	6773.655114723935	0
2	13105	6775.835301847486	1
2	13106	6776.718095824688	0
2	13125	6783.968139939267	1
2	13127	6783.97371305389	2
2	13128	6784.676550504603	1
2	13131	6785.749526552987	0
2	13162	6795.54910066391	1
2	13163	6795.670479600974	0
2	13180	6803.155211608578	1
2	13181	6803.315312328584	0
2	13235	6844.205920027198	1
2	13236	6844.417500928044	0
2	13265	6865.066378820864	1
2	13266	6865.746798764403	0
2	13290	6877.118047728778	1
2	13291	6878.073410560367	0
2	13320	6907.541475616807	1
2	13322	6908.201122731909	2
2	13323	6908.428182853349	1
2	13326	6909.327737915293	0
2	13335	6911.06288406105	1
2	13336	6912.077679435423	0
2	13400	6958.898984874108	1
2	13401	6959.213665989447	0
2	13470	6995.952445498518	1
2	13471	6996.840045557707	0
2	13550	7038.669310160054	1
2	13551	7038.910382039176	0
2	13570	7045.616804067485	1
2	13573	7046.333186177453	0
2	13577	7046.541463342486	1
2	13578	7047.35751519558	0
2	13582	7047.36303315429	1
2	13583	7048.445502312584	0
2	13587	7048.476263950663	1
2	13588	7049.453022559369	0
2	13595	7050.919420016709	1
2	13596	7051.206260701464	0
2	13600	7051.359779277935	1
2	13601	7052.093942115278	0
2	13610	7052.917312630036	1
2	13611	7053.882243634862	0
2	13855	7228.766137567693	1
2	13856	7229.637973886618	0
2	13870	7234.790799782839	1
2	13871	7235.390252268657	0
2	13955	7267.212564630796	1
2	13956	7267.821054785434	0
2	13960	7268.579076508307	1
2	13961	7269.016458503824	0
2	13975	7273.046101880497	1
2	13976	7273.739396007908	0
2	14120	7389.488946632728	1
2	14121	7390.13027766928	0
2	14125	7390.207675302881	1
2	14126	7391.200213990211	0
2	14167	7415.131531463509	1
2	14168	7415.936307318103	0
2	14177	7417.705717813659	1
2	14178	7417.912620210428	0
2	14200	7422.546966506853	1
2	14201	7423.469643202989	0
2	14205	7423.78553393722	1
2	14208	7424.313757733634	0
2	14240	7432.035720120405	1
2	14243	7432.766189741443	0
2	14249	7433.847223614347	1
2	14250	7433.912349113177	0
2	14257	7435.398702654797	1
2	14258	7436.043565233432	0
2	14272	7438.801558394485	1
2	14273	7439.207408937464	0
2	14335	7477.90522035743	1
2	14336	7478.62737261967	0
2	14355	7492.438773424194	1
2	14356	7493.275680645408	0
2	14420	7532.432629616614	1
2	14421	7533.394774926952	0
2	14425	7533.966650004232	1
2	14426	7534.388130786954	0
2	14490	7569.912926082362	1
2	14493	7570.153852426921	0
2	14500	7571.365075560095	1
2	14503	7572.32615899966	0
2	14517	7574.574606841308	1
2	14518	7575.410206076791	0
2	14535	7578.804058955682	1
2	14536	7579.890584254738	0
2	14540	7580.099896860145	1
2	14541	7580.907890263394	0
2	14545	7581.101841906959	1
2	14546	7581.980652536925	0
2	14610	7644.065603385707	1
2	14611	7644.313697142391	0
2	14620	7645.51497403245	1
2	14622	7645.534567451812	2
2	14623	7646.266562107313	1
2	14626	7647.159573881063	0
2	14635	7648.398853926117	1
2	14636	7649.269535741503	0
2	14640	7649.375235817849	1
2	14641	7650.323160356297	0
2	14645	7650.588895696913	1
2	14647	7650.711510001092	2
2	14648	7651.371506100069	1
2	14651	7652.255903379447	0
2	14680	7660.232515579527	1
2	14683	7660.509846128736	0
2	14700	7664.608755453178	1
2	14701	7665.321359434458	0
2	14707	7666.15907318542	1
2	14708	7666.209682276207	0
2	14715	7668.016622888105	1
2	14716	7668.371328411358	0
2	14725	7670.356490761247	1
2	14726	7670.40571329297	0
2	14730	7671.055377320049	1
2	14731	7671.335019397284	0
2	14735	7672.15744381118	1
2	14736	7672.264054262932	0
2	14740	7672.540389656904	1
2	14741	7673.283047639127	0
2	14750	7675.166359049921	1
2	14751	7675.825257162339	0
2	14755	7676.299908650574	1
2	14756	7676.690418137758	0
2	14780	7710.477919622224	1
2	14781	7710.630766723082	0
2	14790	7711.968181271383	1
2	14791	7713.002379658851	0
2	14795	7713.245675209521	1
2	14796	7714.198075900818	0
2	14940	7784.466640838544	1
2	14941	7784.950573878822	0
2	14945	7785.473589929898	1
2	14946	7785.870180789095	0
2	14965	7790.765686518227	1
2	14966	7791.58842944959	0
2	14970	7791.726907981823	1
2	14972	7792.046150549919	2
2	14973	7792.712363348527	1
2	14977	7793.044646827788	2
2	14978	7793.604475219267	1
2	14982	7793.910298096046	2
2	14983	7794.579572529158	1
2	14986	7795.619164799804	0
2	15000	7799.999274155853	1
2	15001	7800.243897407079	0
2	15005	7800.288452963656	1
2	15006	7801.106579933917	0
2	15010	7801.496273887241	1
2	15011	7802.053660043279	0
2	15015	7802.438595518418	1
2	15017	7802.599795189344	2
2	15018	7803.173588010712	1
2	15023	7804.069777414246	0
2	15030	7805.2341046365	1
2	15031	7806.117919326245	0
2	15040	7808.601956318401	1
2	15042	7808.8400620153	2
2	15043	7809.282880768655	1
2	15046	7810.415953940908	0
2	15055	7812.935257335645	1
2	15056	7813.010456376658	0
2	15060	7813.58120786727	1
2	15062	7813.674115203974	2
2	15063	7813.872080377625	1
2	15066	7814.842412878429	0
2	15115	7855.890346350644	1
2	15116	7856.391159075929	0
2	15155	7879.612060188926	1
2	15156	7880.432847325376	0
2	15200	7910.141199877961	1
2	15201	7910.25760697909	0
2	15240	7922.833467693779	1
2	15241	7923.007014285169	0
2	15245	7923.029599130569	1
2	15246	7924.145586510609	0
2	15255	7925.603298565393	1
2	15256	7926.014467528976	0
2	15295	7940.061509656403	1
2	15296	7940.194566349863	0
2	15335	7958.698657198591	1
2	15336	7959.2778365736	0
2	15355	7969.119869027494	1
2	15356	7969.845589672851	0
2	15360	7970.045608377466	1
2	15361	7970.9350528227	0
2	15365	7970.972412240638	1
2	15366	7971.785130669719	0
2	15400	7988.20125946222	1
2	15402	7988.213182814502	2
2	15405	7989.094373298581	1
2	15408	7990.136121460567	0
2	15425	8005.237406340317	1
2	15428	8006.252355755298	0
2	15520	8062.848895148794	1
2	15521	8063.590361379761	0
2	15605	8146.712422146499	1
2	15606	8147.224436646943	0
2	15620	8164.732543856112	1
2	15621	8164.947967718512	0
2	15630	8166.055620710568	1
2	15633	8167.014288965791	0
2	15640	8168.327669610934	1
2	15641	8168.810453089133	0
2	15665	8184.100481539473	1
2	15668	8184.90690814089	0
2	15695	8201.70169181009	1
2	15698	8202.768899904272	0
2	15702	8202.970332956955	1
2	15703	8203.576087019207	0
2	15707	8203.987449290367	1
2	15710	8204.64923721979	0
2	15735	8215.538319077719	1
2	15736	8216.250580065034	0
2	15760	8224.537436981018	1
2	15761	8224.744517201038	0
2	15770	8226.855389326111	1
2	15772	8227.314436252338	2
2	15773	8227.790161912528	1
2	15777	8228.061530004231	2
2	15778	8228.934703645867	1
2	15782	8229.675640286917	2
2	15783	8229.803052136314	1
2	15786	8230.775289717236	0
2	15800	8236.476696731977	1
2	15801	8236.935894433045	0
2	15819	8240.705513545619	1
2	15820	8241.086881767506	0
2	15829	8242.532372822879	1
2	15830	8243.050294638997	0
2	15845	8247.098933984506	1
2	15848	8247.438421736857	0
2	15852	8248.090010496155	1
2	15853	8248.428975041317	0
2	15860	8249.766916198942	1
2	15861	8250.152226682951	0
2	15910	8267.797727754266	1
2	15911	8268.02466691166	0
2	15922	8270.114206284428	1
2	15923	8270.3980273327	0
2	15930	8271.98127377686	1
2	15931	8272.387224161453	0
2	15945	8274.841964821283	1
2	15948	8275.832893605996	0
2	15955	8276.840491725537	1
2	15956	8277.965694270748	0
2	15965	8281.856964937172	1
2	15966	8281.93915909979	0
2	15970	8282.224974681934	1
2	15971	8282.993330222028	0
2	15975	8283.264440699225	1
2	15976	8284.087943446948	0
2	15985	8288.492710630052	1
2	15986	8288.616559584247	0
2	15995	8290.484186915451	1
2	15996	8290.718156390861	0
2	16005	8292.310170269036	1
2	16006	8292.678082188979	0
2	16015	8294.097449829751	1
2	16016	8294.609459603034	0
2	16020	8295.373091783013	1
2	16021	8295.429336287376	0
2	16025	8295.731501981064	1
2	16026	8296.559274021551	0
2	16035	8299.703138626734	1
2	16036	8300.294629527119	0
2	16055	8304.359953124049	1
2	16056	8305.314941177436	0
2	16090	8321.723301794902	1
2	16091	8321.834017659294	0
2	16095	8322.982070967171	1
2	16096	8323.027530565708	0
2	16147	8357.888744777356	1
2	16148	8357.974619145577	0
2	16180	8365.207987924929	1
2	16182	8365.237890531079	2
2	16183	8366.045588714652	1
2	16188	8366.966246694815	0
2	16192	8366.974207672072	1
2	16193	8367.789920595591	0
2	16225	8375.188463267313	1
2	16226	8375.378880446214	0
2	16265	8425.711453236984	1
2	16266	8426.074549137956	0
2	16270	8426.838786028889	1
2	16271	8426.941947570226	0
2	16280	8428.15908320416	1
2	16281	8428.863577292451	0
2	16285	8429.413997025875	1
2	16286	8429.790315473323	0
2	16290	8430.160304175683	1
2	16291	8430.760694898163	0
2	16295	8430.791633526704	1
2	16296	8431.905985643026	0
2	16300	8432.907973882682	1
2	16301	8432.975608975683	0
2	16315	8436.203201856883	1
2	16316	8436.790601000517	0
2	16420	8486.529764022329	1
2	16421	8487.132595322222	0
2	16565	8563.843762351309	1
2	16566	8564.599729958836	0
2	16575	8566.197815496275	1
2	16576	8566.529691306043	0
2	16580	8567.175612231687	1
2	16582	8567.206612409386	2
2	16583	8567.505111410196	1
2	16587	8568.025736124954	2
2	16588	8568.661612923822	1
2	16591	8569.751029710198	0
2	16595	8570.434179876796	1
2	16596	8570.77823686917	0
2	16602	8571.684322549363	1
2	16603	8571.83180681924	0
2	16625	8577.320655631681	1
2	16626	8578.260064073655	0
2	16635	8579.948437507875	1
2	16637	8580.136539613821	2
2	16638	8580.346072537548	1
2	16641	8581.444975169285	0
2	16645	8581.587824368778	1
2	16646	8582.406391721221	0
2	16650	8582.583470927532	1
2	16651	8583.421908663029	0
2	16695	8626.288679046667	1
2	16696	8626.849449864408	0
2	16750	8655.64633268174	1
2	16751	8656.411492764685	0
2	16760	8657.461865261218	1
2	16761	8658.480687365603	0
2	16775	8679.617455541363	1
2	16776	8680.130332312039	0
2	16785	8681.47962469593	1
2	16788	8682.203823227766	0
2	16795	8683.788395619104	1
2	16796	8684.005280023585	0
2	16855	8707.963737984141	1
2	16856	8708.229760628773	0
2	16875	8711.558898378312	1
2	16876	8712.11331932685	0
2	16880	8712.444861908305	1
2	16881	8712.961759450665	0
2	16890	8715.476852593461	1
2	16891	8716.321981537572	0
2	16895	8717.293109584714	1
2	16896	8717.315035048357	0
2	16905	8718.454200062534	1
2	16908	8719.470204625396	0
2	16920	8730.26589238965	1
2	16922	8730.480066285725	2
2	16924	8730.484472893808	3
2	16925	8731.137829491725	2
2	16930	8732.00925950524	1
2	16933	8732.834284625711	0
2	17015	8796.314264073554	1
2	17016	8796.381931079751	0
2	17057	8809.039622371023	1
2	17058	8809.743685854329	0
2	17065	8811.308610481567	1
2	17066	8812.001610751833	0
2	17100	8827.707301282515	1
2	17101	8828.273933074909	0
2	17105	8828.446547916503	1
2	17106	8829.413311603858	0
2	17140	8866.26047568122	1
2	17141	8866.504144026351	0
2	17150	8867.826940187413	1
2	17151	8868.606411585131	0
2	17155	8868.665729431316	1
2	17156	8869.525284383831	0
2	17160	8869.659226278327	1
2	17161	8870.359411424318	0
2	17205	8893.669045756725	1
2	17206	8893.716627480171	0
2	17215	8894.980989173982	1
2	17216	8895.724085582968	0
2	17275	8922.483390314838	1
2	17277	8922.679761690146	2
2	17278	8923.405705100376	1
2	17281	8924.348610260416	0
2	17295	8926.20580688383	1
2	17299	8926.891573971135	2
2	17300	8926.951982152354	1
2	17303	8928.134654253334	0
2	17312	8928.977577563312	1
2	17313	8929.798928533759	0
2	17335	8934.019623289954	1
2	17336	8934.744599695254	0
2	17345	8935.95374259116	1
2	17348	8936.920082257904	0
2	17390	8962.664984937652	1
2	17391	8963.41890649959	0
2	17435	8991.944420582191	1
2	17436	8992.677698919295	0
2	17515	9048.5248891091	1
2	17517	9049.461728852014	2
2	17518	9049.483935174182	1
2	17523	9050.644575202394	0
2	17550	9058.179145297247	1
2	17551	9059.048948292111	0
2	17570	9069.675622988246	1
2	17571	9070.160335069146	0
2	17575	9070.244020819201	1
2	17576	9071.020677139048	0
2	17590	9073.836050975242	1
2	17591	9074.560195408006	0
2	17635	9118.50292814093	1
2	17636	9118.723676773433	0
2	17640	9118.819191594848	1
2	17641	9119.564503634062	0
2	17645	9120.173447627015	1
2	17646	9120.377834859111	0
2	17785	9178.423848241563	1
2	17786	9178.961006065106	0
2	17810	9190.617810859124	1
2	17811	9190.689695314924	0
2	17815	9190.878505294782	1
2	17816	9191.608099841374	0
2	17820	9192.543556718445	1
2	17821	9192.80433132914	0
2	17870	9208.373013363439	1
2	17871	9209.17977911253	0
2	17910	9231.081866641895	1
2	17912	9231.204030650684	2
2	17913	9231.752803961653	1
2	17916	9232.68747874191	0
2	17940	9240.949505544378	1
2	17941	9241.446246259029	0
2	17975	9266.52648927188	1
2	17976	9267.100463813835	0
2	17995	9301.705704699287	1
2	17998	9302.899393265514	0
2	18050	9323.888992809255	1
2	18051	9324.725442896622	0
2	18055	9325.346178106668	1
2	18057	9325.603907718969	2
2	18058	9325.863686330455	1
2	18063	9326.666258268642	0
2	18067	9327.067166253522	1
2	18068	9327.82956792249	0
2	18075	9328.905779023519	1
2	18079	9329.431125970648	2
2	18080	9329.819429333532	1
2	18085	9330.67689631742	0
2	18092	9332.502427086604	1
2	18093	9332.630174655304	0
2	18102	9334.112206027415	1
2	18104	9334.677227274998	2
2	18105	9334.979149207403	1
2	18108	9335.790336214122	0
2	18125	9339.519666553791	1
2	18126	9339.871392979521	0
2	18130	9340.439898450366	1
2	18131	9340.954961089838	0
2	18135	9341.673702352931	1
2	18136	9341.801306301683	0
2	18250	9473.152759442447	1
2	18251	9474.171064790825	0
2	18260	9475.79409432759	1
2	18261	9476.26883438507	0
2	18265	9477.314592915	1
2	18266	9477.45644921556	0
2	18270	9478.495518375565	1
2	18271	9478.618905200044	0
2	18275	9478.698392804994	1
2	18277	9478.92707797887	2
2	18280	9479.681995064186	1
2	18283	9480.864409528466	0
2	18365	9528.909013503472	1
2	18366	9529.427087828479	0
2	18370	9530.176449126756	1
2	18371	9530.605073342621	0
2	18395	9551.814999332882	1
2	18396	9552.480401676708	0
2	18460	9579.689037576668	1
2	18462	9580.735643599557	2
2	18463	9580.775698269647	1
2	18467	9580.79907662665	2
2	18468	9581.583564494666	1
2	18473	9582.768136090994	0
2	18477	9583.702824579628	1
2	18478	9583.941867534094	0
2	18485	9585.6731904201	1
2	18486	9585.73422494803	0
2	18490	9585.898450269756	1
2	18493	9586.547167924814	0
2	18497	9586.781990560794	1
2	18500	9587.466250129905	0
2	18507	9588.410119732889	1
2	18509	9588.965430250626	2
2	18510	9589.577317113359	1
2	18513	9590.397182912682	0
2	18519	9590.623856707187	1
2	18520	9591.265725049493	0
2	18530	9594.107443668134	1
2	18531	9594.154838531861	0
2	18620	9638.404579928024	1
2	18621	9638.525652480498	0
2	18630	9640.09874147871	1
2	18633	9641.111019612628	0
2	18642	9642.362635910809	1
2	18643	9642.875807586557	0
2	18740	9715.871596141766	1
2	18741	9716.191114887885	0
2	18745	9716.796621276175	1
2	18746	9717.018449804011	0
2	18750	9717.019931238958	1
2	18751	9718.077427954517	0
2	18755	9718.695769018295	1
2	18756	9719.020850853074	0
2	18760	9719.346764852016	1
2	18761	9719.844862706504	0
2	18775	9723.407668130017	1
2	18777	9723.739432407404	2
2	18778	9723.913258629511	1
2	18781	9724.956549569066	0
2	18800	9738.22172723573	1
2	18802	9738.348683635724	2
2	18803	9738.510592753322	1
2	18807	9738.550518448777	2
2	18809	9739.188357056338	3
2	18810	9739.63113809123	2
2	18813	9740.495756954675	1
2	18816	9741.429058355068	0
2	18820	9742.041975135371	1
2	18821	9742.476049959728	0
2	18825	9742.555397810768	1
2	18826	9743.3144516316	0
2	18830	9743.799365801175	1
2	18831	9744.323284364747	0
2	18835	9744.719405773249	1
2	18836	9745.315184087562	0
2	18850	9748.023158461924	1
2	18851	9748.161064796239	0
2	18865	9750.8667312738	1
2	18866	9751.390096643259	0
2	18885	9756.60492452903	1
2	18886	9757.674657056295	0
2	18890	9757.851480288611	1
2	18891	9758.507309021615	0
2	18897	9758.927338512201	1
2	18898	9759.643149002828	0
2	18902	9760.596699149547	1
2	18903	9760.616936758999	0
2	18907	9760.676535111404	1
2	18908	9761.70202639373	0
2	18915	9763.218900883826	1
2	18916	9763.455094711203	0
2	18930	9766.242330018452	1
2	18934	9766.45618230665	2
2	18935	9767.266388492226	1
2	18938	9768.321324422709	0
2	18955	9773.893978051135	1
2	18957	9774.421445299969	2
2	18958	9774.666102922758	1
2	18964	9775.423989461726	2
2	18965	9775.552904916791	1
2	18968	9776.356635994235	0
2	18995	9787.993550957038	1
2	18998	9788.846764788765	0
2	19005	9789.969890340287	1
2	19006	9791.040784208279	0
2	19055	9830.69771691526	1
2	19056	9831.411753293535	0
2	19185	9888.430683367135	1
2	19186	9889.355586176499	0
2	19195	9891.222610763993	1
2	19196	9891.470290641248	0
2	19207	9893.090740469688	1
2	19208	9893.624720812458	0
2	19212	9894.363430793337	1
2	19213	9894.6656159381	0
2	19217	9894.678411440813	1
2	19218	9895.775567246563	0
2	19222	9896.34156952634	1
2	19223	9896.821650264467	0
2	19230	9898.193347846365	1
2	19231	9898.484727280921	0
2	19245	9901.918757255551	1
2	19246	9902.497395763659	0
2	19250	9902.737804962555	1
2	19251	9903.383146713228	0
2	19275	9917.117321619752	1
2	19276	9917.570497715846	0
2	19290	9924.099184019311	1
2	19292	9925.062380096447	2
2	19293	9925.246638717529	1
2	19296	9926.408464118865	0
2	19305	9927.979502397226	1
2	19307	9928.065793232423	2
2	19308	9928.25511089091	1
2	19312	9928.283890060614	2
2	19315	9929.187482460707	1
2	19318	9930.071962181039	0
2	19380	9991.538551314323	1
2	19381	9991.792360858991	0
2	19465	10024.931773113636	1
2	19466	10025.629296082484	0
2	19470	10026.034122951614	1
2	19471	10026.674510689492	0
2	19480	10029.747678539171	1
2	19481	10030.220500866137	0
2	19485	10030.561754529832	1
2	19487	10030.771101895873	2
2	19488	10031.204794634878	1
2	19492	10031.522872473546	2
2	19493	10032.163665514252	1
2	19496	10033.272064142301	0
2	19500	10033.516534023464	1
2	19502	10033.519311246128	2
2	19503	10034.4684459256	1
2	19507	10034.556538785072	2
2	19508	10035.363403800967	1
2	19512	10035.540669265585	2
2	19513	10036.50223751217	1
2	19517	10036.5573717992	2
2	19518	10037.617215781192	1
2	19521	10038.672869246917	0
2	19530	10040.360977383187	1
2	19531	10040.720873284803	0
2	19545	10045.683932879007	1
2	19546	10046.322035500139	0
2	19620	10085.368748616821	1
2	19621	10086.272300605071	0
2	19642	10091.597652924664	1
2	19643	10091.897785437544	0
2	19667	10105.11876734605	1
2	19668	10105.211435435381	0
2	19724	10121.834875566865	1
2	19725	10121.844944785549	0
2	19734	10123.068356719563	1
2	19735	10123.484473765935	0
2	19755	10127.722574036362	1
2	19756	10128.582193498169	0
2	19802	10174.961534383677	1
2	19803	10175.382381164169	0
2	19825	10196.736626955493	1
2	19826	10197.524945299754	0
2	19830	10197.805041959379	1
2	19831	10198.505678026991	0
2	19835	10198.74498665089	1
2	19836	10199.470290155949	0
2	19840	10200.172764071054	1
2	19841	10200.611710554043	0
2	19870	10239.15087566861	1
2	19871	10239.4296882984	0
2	19880	10241.47624229184	1
2	19881	10241.914704060742	0
2	19955	10279.646851789178	1
2	19956	10279.940451262099	0
2	19975	10285.121564148408	1
2	19976	10285.530006843116	0
2	19980	10285.797479239235	1
2	19981	10286.421378101185	0
2	19985	10286.74837964808	1
2	19987	10287.443540289399	2
2	19988	10287.456014966182	1
2	19991	10288.473175549656	0
2	20079	10340.300220338323	1
2	20080	10340.309120328783	0
2	20084	10341.151008886596	1
2	20085	10341.501310509036	0
2	20100	10345.73393847863	1
2	20103	10346.463058653568	0
2	20110	10347.672482845732	1
2	20111	10348.277416654678	0
2	20130	10353.242551903711	1
2	20131	10353.631895104975	0
2	20145	10356.598221950256	1
2	20147	10356.704976889592	2
2	20148	10357.066977438305	1
2	20151	10357.880179160901	0
2	20155	10358.265721228265	1
2	20156	10358.961233060036	0
2	20165	10362.23792928132	1
2	20166	10363.040267403845	0
2	20170	10363.902588542493	1
2	20171	10364.03862009817	0
2	20190	10370.569670306408	1
2	20191	10371.546092420889	0
2	20195	10372.100939009025	1
2	20196	10372.526888641788	0
2	20200	10373.192764285484	1
2	20201	10373.597506244647	0
2	20220	10377.805302263832	1
2	20221	10378.716461882584	0
2	20230	10380.088445733326	1
2	20231	10381.196374493449	0
2	20280	10429.911899335153	1
2	20281	10430.947418617957	0
2	20285	10431.518939565858	1
2	20286	10432.044477252044	0
2	20305	10439.120925537189	1
2	20306	10439.859510253802	0
2	20330	10453.008112557274	1
2	20331	10453.720821439681	0
2	20342	10457.470641618649	1
2	20343	10457.629323548732	0
2	20347	10458.721181019344	1
2	20348	10458.823623297924	0
2	20365	10466.093000853356	1
2	20366	10466.173598283003	0
2	20375	10467.862903408981	1
2	20376	10468.412981436062	0
2	20385	10470.203060961139	1
2	20388	10470.329122268907	0
2	20395	10471.441417779823	1
2	20397	10471.908428119214	2
2	20398	10472.17848700074	1
2	20401	10473.012985172528	0
2	20405	10473.293084540311	1
2	20408	10474.053937682542	0
2	20412	10474.340357797705	1
2	20413	10474.9365124971	0
2	20417	10475.054309531976	1
2	20419	10475.09123365638	2
2	20420	10475.754996871608	1
2	20424	10476.138071391048	2
2	20425	10476.833770482368	1
2	20428	10477.644579610168	0
2	20432	10477.812929249073	1
2	20433	10478.812352179489	0
2	20437	10479.862771035317	1
2	20438	10479.897423044345	0
2	20445	10481.732972302383	1
2	20446	10481.797401611353	0
2	20455	10484.389574419193	1
2	20456	10484.972789880369	0
2	20460	10485.441440640132	1
2	20461	10485.812321408108	0
2	20502	10507.199287464772	1
[...]
6	50705	25919.199323285038	1.109501394257
6	50710	25931.638557305115	1.086625357717
6	50735	25957.304134861407	1.238281299249
6	50757	25970.200829330913	1.605187930816
6	50760	25971.335520044702	6.801994628092
6	50765	25973.094003154076	1.023049486615
6	50787	25979.571360960386	3.15326123219
6	50841	25989.755142864526	2.834511261438
6	50851	25991.838227745831	16.826981153784
6	50864	25995.001943799049	15.611165218959
6	50892	26001.076184593898	19.816296520098
6	50895	26002.034336940304	3.257282615398
6	50935	26015.884171428538	1.099869523011
6	50947	26019.122136013896	2.723586797744
6	50982	26029.246689567615	5.68019160023
6	50985	26030.083047675521	6.467302560384
6	51049	26062.472273305007	5.319305900601
6	51069	26066.763761565875	7.716499386781
6	51072	26067.698474886775	3.940613965897
6	51087	26073.653423638652	2.171513543178
6	51100	26077.275617645124	5.881094886074
6	51119	26084.094923309931	1.170384776499
6	51141	26088.066034374149	2.822217589211
6	51144	26089.173585541961	5.436865154297
6	51197	26127.607018023687	1.542651207281
6	51200	26128.492290482628	1.863093559848
6	51205	26129.4368742579	9.846334999968
6	51215	26137.482852574687	0.802894711029
6	51227	26141.670922887189	0.911499446258
6	51245	26151.931917584998	3.116590101645
6	51276	26157.77189624211	3.767761487781
6	51281	26158.814437684921	2.794258070313
6	51321	26167.49640035476	12.190035519112
6	51331	26169.251173893785	8.193243826473
6	51336	26170.341649176696	3.952741700105
6	51359	26175.602550785388	17.70985101602
6	51387	26187.894141925964	1.741025117875
6	51400	26200.304390788554	0.991768437717
6	51410	26207.196637661337	1.13411130188
6	51417	26213.262616984576	0.880692311376
6	51442	26222.113289335819	1.02131399652
6	51447	26223.024396852108	6.695569739933
6	51462	26227.743313137196	1.172403353546
6	51465	26228.563358842429	10.101691601964
6	51475	26234.591212311433	1.163028598763
6	51485	26236.952184642248	4.695179682051
6	51512	26254.148084952999	3.015900090523
6	51525	26257.649709551272	8.076372821483
6	51535	26284.282803263532	1.99056809754
6	51555	26289.917247768604	4.589496454552
6	51570	26303.367013204952	2.05526107631
6	51582	26308.781789424135	2.205992328735
6	51595	26312.392907081931	4.213751315096
6	51615	26319.467577306082	2.796555400867
6	51620	26323.460627788916	0.800749386102
6	51635	26343.082936205337	3.721399995081
6	51640	26351.085981808479	0.969135146122
6	51650	26359.283257910288	1.088225424848
6	51657	26362.431970728278	1.091902618948
6	51677	26367.866594944945	5.106279083022
6	51682	26368.886761074005	2.999641438679
6	51690	26371.437285865686	9.441776412735
6	51705	26376.108492511203	1.549785079491
6	51725	26382.880931690341	5.365043304304
6	51730	26391.892464938004	0.935520079918
6	51742	26405.481013509616	1.108323914465
6	51745	26406.461609892253	3.063269639957
6	51762	26415.036309257413	2.124147429341
6	51772	26417.011450933091	1.41023231249
6	51792	26420.863664015088	1.370809229815
6	51809	26425.355469394429	1.269278771939
6	51814	26426.327935857093	2.217714906363
6	51817	26427.144922625041	1.827509660179
6	51825	26434.496621726665	1.168841029704
6	51842	26440.498647386913	2.976476369798
6	51845	26441.61348702382	1.448991715107
6	51855	26452.688681678979	2.447251829754
6	51874	26466.643000378819	3.482195772154
6	51897	26472.151647532766	6.388566453823
6	51900	26473.339504535438	3.55786807416
6	51910	26481.706113239699	1.842942424041
6	51922	26488.509259668514	2.896539721514
6	51925	26489.468974199202	1.862616862531
6	51930	26495.392652005386	0.965883637033
6	51935	26521.834801700665	0.968438394461
6	51952	26530.289020981853	1.019662750233
6	51957	26531.322499933214	4.288822796199
6	51965	26533.525413972725	1.928071639565
6	51970	26539.801573062522	0.864772036206
6	51995	26554.847256833264	2.061465448793
6	52005	26557.252160463081	2.241495092485
6	52010	26562.952107623497	0.942984483112
6	52025	26567.747879628563	3.97300877928
6	52030	26570.701836544091	1.162578594964
6	52042	26573.785583181244	1.932065852464
6	52047	26574.934758995318	3.385700197518
6	52050	26575.812635031932	2.025279405737
6	52085	26600.127932514061	4.519300295405
6	52097	26604.018296472371	0.905659477133
6	52126	26612.226482850667	2.312498579446
6	52129	26613.390215022005	4.457852385287
6	52132	26614.55834100198	5.435907641544
6	52147	26618.534903291815	1.120985952951
6	52175	26625.135975575565	3.304380617446
6	52187	26633.150188127012	0.900266967155
6	52202	26655.000271936435	0.877798523288
6	52210	26677.981472859827	0.879339903686
6	52239	26709.947749165051	1.320082507385
6	52242	26711.036550579571	3.144372270536
6	52274	26723.084875068804	1.800677937845
6	52295	26733.04617916774	0.818778768554
6	52320	26743.6779602358	7.559418796893
6	52335	26749.697814445346	4.205225992752
6	52340	26751.446363323447	0.982234698907
6	52374	26761.612362620628	6.423826308652
6	52377	26762.794741593229	2.578071801516
6	52405	26768.877588167621	2.060269225661
6	52410	26772.290165656093	7.7140006901
6	52424	26774.948617971583	0.986519967485
6	52429	26775.811572367034	1.832160860595
6	52432	26776.973585685144	1.287061876105
6	52445	26780.358391227925	2.151270512861
6	52474	26793.651359826154	4.976265229738
6	52489	26796.671195410392	2.899092690907
6	52497	26798.718198387339	10.473480915373
6	52510	26802.096818611717	13.1429881379
6	52527	26821.605219512775	0.93427703809
6	52545	26830.954277781853	12.898185410269
6	52550	26835.613410254562	1.169805142377
6	52560	26844.097480422918	2.692254574516
6	52565	26847.372342776655	1.127771212254
6	52570	26849.353647814843	0.85289252596
6	52590	26871.336263378053	2.236429332832
6	52604	26885.04671174164	1.128367738599
6	52629	26890.373874303299	5.766539850334
6	52648	26893.622256128463	2.62545146975
6	52656	26895.74847532834	5.22618686686
6	52666	26897.68734520997	1.513073143523
6	52669	26898.751750748019	5.340277633056
6	52720	26927.622632274504	0.914450296573
6	52725	26930.24440591602	0.886922800448
6	52732	26937.695562379903	1.071140053961
6	52742	26950.668638524989	1.076637733076
6	52760	26957.228284211978	2.224340278822
6	52765	26961.493058518481	1.184569506068
6	52787	26978.415345688231	4.092000327209
6	52817	26984.713691528443	0.911005946926
6	52840	26991.031266583342	2.899222166371
6	52862	27020.236054371167	1.594616171967
6	52876	27022.052046891358	3.809802672081
6	52879	27022.882466160283	1.923969769542
6	52942	27041.639078414338	4.643306711246
6	52950	27043.589687314371	3.005662753843
6	52972	27054.278029766485	4.379969697073
6	52975	27055.382384542648	4.725537504897
6	52980	27057.132013663435	6.11765980583
6	53020	27080.52833284372	10.574992687046
6	53030	27083.487397490956	14.169933843783
6	53035	27086.244974358697	0.829843498953
6	53070	27104.065327908459	5.902596812568
6	53077	27119.166564151903	1.099572657328
6	53095	27124.464096725158	0.901217198558
6	53117	27129.36894643016	3.082817535009
6	53130	27133.380477859743	6.530294376252
6	53159	27146.739755594145	5.14169345338
6	53162	27147.794608350444	4.458816200501
6	53179	27150.925476800285	6.463060722734
6	53252	27171.690792547163	8.002772085876
6	53265	27174.434965302463	25.81476161682
6	53275	27215.048979632777	1.072460776102
6	53295	27229.429034470205	1.593714540808
6	53300	27232.227735553826	0.93310051458
6	53312	27244.332761696421	1.089483535103
6	53332	27251.954432826659	8.536501011499
6	53339	27252.855416604394	0.957777482256
6	53342	27253.867625911983	4.795674101614
6	53350	27258.801538573205	0.867604574747
6	53360	27263.162603868605	10.598912766614
6	53370	27270.876647538417	0.884942955431
6	53380	27273.731130450615	2.776700269655
6	53392	27282.966488476329	1.151414172298
6	53404	27284.967268570744	3.799739638157
6	53407	27286.014916612905	2.328810113811
6	53410	27286.953920580119	4.823019725418
6	53435	27302.320208116885	3.202969294713
6	53469	27311.213858722186	7.829796610696
6	53472	27312.09001018958	5.848355251107
6	53495	27322.33623861323	1.746144876995
6	53509	27324.541932607557	6.230008335542
6	53532	27330.032363848931	1.449163624441
6	53540	27335.263673639044	5.966882135617
6	53554	27384.152520711839	2.57746332692
6	53557	27385.239465897929	1.431958710253
6	53565	27400.437072090857	1.090035769902
6	53570	27407.579422009458	0.820470738877
6	53575	27412.240566506577	1.165808964428
6	53585	27422.560393371707	1.100657051895
6	53597	27428.082068701042	1.52851992756
6	53619	27431.832588508477	1.543201104344
6	53699	27448.409774067799	1.843859921012
6	53702	27449.28394091929	1.450099247074
6	53705	27450.391232007357	24.314548588485
6	53722	27458.202181422979	1.442623573196
6	53732	27460.324810035423	1.544905735981
6	53740	27462.37765627642	1.531556138529
6	53760	27477.318624415023	8.283969278667
6	53770	27482.423217379643	1.143120794278
6	53780	27492.936537266806	2.343257822914
6	53822	27506.947110313398	13.122709829492
6	53825	27508.016464600747	3.577891998547
6	53830	27512.450401289149	0.949129349925
6	53845	27532.981809245775	1.135260771494
6	53852	27550.092305547256	0.854640342016
6	53855	27551.209629094206	1.240037298569
6	53860	27561.058086420029	1.089782215748
6	53885	27570.182657999777	6.694932117016
6	53895	27573.919638749903	2.363756884368
6	53939	27586.871842682064	3.508595221264
6	53944	27587.85389583882	4.905830872618
6	53985	27597.856999601302	5.695062553629
6	54045	27637.857950157065	1.122227975633
6	54055	27648.781553085692	5.077141853072
6	54065	27667.864969084727	3.52870539549
6	54080	27676.719196778631	2.689600620559
6	54102	27705.985689857974	0.991496809386
6	54125	27718.479780362218	13.425149626023
6	54165	27732.843219559625	3.191574503457
6	54180	27736.249765759575	3.166778926831
6	54221	27744.100619551644	4.924511701517
6	54242	27749.473078279953	1.136924443088
6	54264	27753.380070498503	15.873892303925
6	54269	27754.504225103195	4.551572615252
6	54272	27755.562555075261	5.250558780313
6	54300	27769.321952558939	3.002987511363
6	54432	27802.000742617142	1.677270460048
6	54437	27802.841382281654	18.24452272274
6	54450	27808.775680603412	22.882539393224
6	54460	27816.428580279646	3.705272988663
6	54470	27841.0606278542	0.850426416937
6	54475	27850.558955965525	0.947299969848
6	54480	27859.847240018321	0.857536669727
6	54490	27891.171715272975	2.302187930204
6	54507	27897.653273943434	0.955376475956
6	54525	27904.265872217483	2.470030500175
6	54542	27910.147067959683	0.93482884299
6	54562	27916.31955074783	6.948599916189
6	54570	27920.713556004414	1.127405318338
6	54582	27924.957002265386	1.829892689358
6	54590	27927.071736417252	2.029335580666
6	54607	27930.74206290972	1.991583060506
6	54615	27932.569827321922	9.64775603758
6	54620	27938.845189168043	1.18211194491
6	54640	27964.371263178463	4.25216472544
6	54657	27971.834278871252	2.109481106976
6	54699	27985.100632082775	1.786105773141
6	54719	27988.951373969402	11.024487743134
6	54722	27989.951087063376	6.40864515176
6	54747	27997.782643885787	1.479982423191
6	54760	28000.81586990253	3.976041440031
6	54775	28008.041069670233	4.598170585817
6	54804	28014.779763004016	1.367134986199
6	54807	28015.682329753525	7.01048407832
6	54815	28022.273393563168	0.880348729808
6	54857	28037.619571107443	7.465014549737
6	54879	28041.92988053691	4.916269624232
6	54882	28043.113942944169	3.912537283529
6	54955	28083.212761797902	1.839847476558
6	54960	28084.260933054549	2.963397805371
6	54965	28103.328099424907	0.922585957497
6	54975	28109.327468547384	2.696863809598
6	54980	28115.88766002726	1.144910262711
6	54990	28132.952291834164	1.102275570668
6	55000	28142.652304215575	1.10261828173
6	55020	28152.305203728128	1.142874549329
6	55040	28166.210116516953	0.959441965539
6	55081	28177.225841598301	1.202705541681
6	55084	28178.409033657326	9.584065860537
6	55087	28179.356756011019	2.162841943257
6	55104	28182.319284524205	2.029391949073
6	55122	28187.731547408385	0.983152689319
6	55125	28188.613330409417	9.194706364923
6	55145	28202.556655280848	1.030302615743
6	55160	28211.305377655765	0.966447019018
6	55185	28221.567507511615	5.868997781412
6	55200	28231.163203780266	4.370055911267
6	55212	28233.139061973523	1.744859130396
6	55225	28251.921699291429	1.021523257531
6	55245	28258.051009757539	2.778278758843
6	55260	28266.879134919415	4.576894700778
6	55277	28284.387622320172	1.064607987925
6	55280	28285.500275771864	1.559478757119
6	55302	28293.59964578294	4.272698400975
6	55305	28294.792912598818	4.78899356813
6	55335	28316.073495061623	0.973043158278
6	55340	28322.607361947355	1.145570674818
6	55360	28342.498359486503	6.249625767666
6	55375	28358.962718879906	0.875134901982
6	55428	28369.005874474006	9.056333454406
6	55443	28372.136437956742	1.595854482523
6	55460	28374.975044936906	6.98280888008
6	55476	28378.923996384009	4.907422718379
6	55486	28380.964596003793	8.055787275779
6	55532	28392.690118803568	3.20072619899
6	55547	28400.466211538841	1.197661102191
6	55555	28407.004326145897	1.057080573216
6	55560	28409.8933286756	1.182537967339
6	55592	28428.599341978364	7.962670152779
6	55630	28440.322112401915	1.354212240209
6	55644	28456.722261089982	1.907473992155
6	55654	28458.542236708534	3.827620514016
6	55667	28461.321454934817	6.442739158647
6	55685	28466.472331057697	0.842403683532
6	55690	28468.719138418927	6.335013646916
6	55695	28495.861825555114	0.951226947829
6	55720	28505.229663795449	6.090211460875
6	55735	28516.152515919555	0.892195391562
6	55770	28545.878710095338	0.933148516715
6	55775	28548.137600734363	1.025743001699
6	55780	28549.271568017322	1.115743351728
6	55797	28552.870680338063	3.286606930637
6	55852	28581.095490095289	1.050362181105
6	55877	28601.866453613317	1.017523932829
6	55880	28602.770001870929	3.599032712098
6	55885	28604.024552344717	0.812729452923
6	55910	28622.488922104086	2.683314345347
6	55917	28624.99393472652	1.186317877658
6	55925	28643.842088321082	0.88268418815
6	55969	28670.812523185736	8.740942832528
6	55990	28676.646185223146	1.621640120802
6	55995	28678.188687508259	0.904850188456
6	56015	28686.16581443518	0.836276687123
6	56106	28723.954567697554	6.221477741003
6	56162	28744.984160985589	2.14353092169
6	56204	28758.052241371199	1.518073955432
6	56234	28764.62688525187	7.360778265303
6	56240	28766.813231098356	2.457635236715
6	56245	28767.892361638354	10.795989004236
6	56280	28780.354943766044	1.73335739481
6	56290	28793.451844259515	1.035834551509
6	56305	28815.50464669473	1.000885615218
6	56322	28819.970662634088	1.497076400512
6	56325	28820.80774041993	3.027635527309
6	56330	28825.277449564355	1.19756486956
6	56354	28836.872841870136	6.538943095558
6	56357	28837.966655205845	2.99593584463
6	56372	28840.896237576663	1.551209940745
6	56375	28841.911236672759	3.716315888406
6	56402	28859.322789838178	1.65135419091
6	56445	28879.952377652077	1.994376646902
6	56464	28887.024258920665	2.583641921371
6	56497	28909.008505318052	7.587938865778
6	56500	28910.167399580422	5.099087527131
6	56515	28928.951667870132	1.068982717674
6	56540	28972.810981631409	1.129566761386
6	56562	28981.836620264008	1.184871008899
6	56570	28983.6016753406	1.531225216688
6	56582	28989.543561917981	0.853683997784
6	56610	29010.376280870859	3.688471843559
6	56615	29013.703579984041	1.02166131828
6	56631	29018.352627246474	2.029608537705
6	56634	29019.360149732717	1.675706483623
6	56647	29022.547436057273	6.281145306526
6	56660	29027.373658629861	1.070913897641
6	56682	29033.906795017758	2.470183999777
6	56685	29034.88103030218	1.461108904012
6	56692	29038.750609299391	0.974247125071
6	56717	29043.917862543872	1.108628032384
6	56727	29045.739472245395	6.786604399764
6	56740	29048.91290054784	7.02192934307
6	56755	29064.274116393939	3.485294580455
6	56765	29071.508284517428	1.744000032726
6	56775	29075.913288895738	0.986825714819
6	56810	29100.955671651207	1.078514006548
6	56825	29109.744151103147	2.457640211571
6	56857	29127.607280504792	1.151178452
6	56870	29133.650981223646	13.581640467534
6	56895	29161.623539375136	7.079757411756
6	56902	29162.887809676979	1.160124890506
6	56934	29169.67737031226	2.80845795361
6	56956	29173.228779336633	10.456692125383
6	56959	29174.111318359347	5.006972937849
6	56990	29182.806897020136	1.663561810839
6	57020	29190.671320707647	1.963302903503
6	57025	29191.591370033024	0.987050149993
6	57028	29192.560653379576	1.928606961616
6	57077	29203.653525376897	1.883072309047
6	57090	29208.571217380506	1.856850575707
6	57105	29229.291864048705	6.274593598224
6	57117	29233.94499688029	1.183938465143
6	57142	29250.987331678783	1.555040388772
6	57150	29256.658047644651	6.319090646594
6	57170	29262.568191251828	4.582096362768
6	57182	29266.200285085371	1.022424670216
6	57185	29267.235148180263	1.046118938448
6	57205	29284.870021583992	4.288809985011
6	57215	29288.829458882015	2.094021916311
6	57220	29292.765725685114	1.169307204243
6	57225	29305.582441466256	0.929874960519
6	57230	29307.85133706279	0.935029597674
6	57260	29331.766267453374	4.022668679119
6	57280	29345.232465291371	3.810150810465
6	57300	29368.990415389181	1.005026995484
6	57305	29372.687712921135	1.072943522688
6	57357	29413.983060405527	1.713448110627
6	57402	29424.170467356644	8.425554770807
6	57430	29444.871630962931	2.30939127107
6	57440	29452.605500510469	1.998353132553
6	57450	29457.309979382177	4.240083717327
6	57477	29484.895342599213	5.730313622333
6	57480	29485.995419720638	8.199661581086
6	57485	29488.71016752874	0.96305932384
6	57502	29496.527343888652	3.320793642011
6	57510	29499.24976067049	4.201472513191
6	57535	29517.796562988866	1.187405481562
6	57574	29535.505731442184	6.711920336392
6	57592	29539.699252093972	1.00536732655
6	57595	29540.894909326003	7.538399399491
6	57605	29552.477610462814	2.256757995253
6	57610	29553.562842322221	0.866430150531
6	57622	29557.713843958954	1.470852092402
6	57650	29569.244311074376	4.966207314754
6	57660	29572.118118526664	2.313406538396
6	57680	29582.980785104557	0.827399816178
6	57712	29593.467989685969	3.436376757172
6	57724	29595.473770852411	1.847303480115
6	57727	29596.570939684963	2.618199088052
6	57742	29599.685588443117	7.308299999066
6	57745	29600.582032450685	3.585958358157
6	57750	29604.695492287306	1.127333768178
6	57759	29606.509935650978	1.167593427189
6	57762	29607.70183483912	2.245665483196
6	57810	29630.528311504821	6.908320981967
6	57817	29632.290809879372	1.095714165457
6	57820	29633.33685665579	1.249847574258
6	57840	29643.041510714339	6.006703998171
6	57849	29644.99298968535	5.81707965618
6	57854	29645.796410932728	1.615112807743
6	57857	29646.896296317839	2.440716773131
6	57884	29668.137675954859	0.875223975256
6	57907	29673.001492268026	5.307596636303
6	57912	29674.097032559469	8.509304607647
6	57925	29685.393670952698	3.056720062794
6	57952	29701.989477329581	1.189785707649
6	57960	29705.02576812556	3.543121349088
6	57965	29725.129992066373	0.987634784821
6	57972	29739.829869875947	0.807594270073
6	57999	29745.152941633713	5.582783207982
6	58002	29746.11963140345	1.22627188388
6	58046	29756.589605547531	1.776400668582
6	58054	29758.650605877718	6.735948701296
6	58057	29759.560959019182	3.98268174398
6	58080	29765.50901140192	5.62476700914
6	58122	29791.926338577623	4.665802444596
6	58155	29803.476211700804	1.928302597222
6	58180	29810.503672608475	5.20714180849
6	58185	29814.925178389495	1.078100263793
6	58190	29823.113730675357	0.807165043429
6	58205	29828.004121876589	4.502394091335
6	58210	29833.690279571776	1.012267893273
6	58232	29840.526853796903	1.218882760303
6	58235	29841.691315753821	6.762604398206
6	58265	29871.528849944237	1.101231792849
6	58307	29884.104216182457	5.493239017443
6	58332	29889.574833208827	2.808063625266
6	58362	29897.51538987276	14.990421142931
6	58387	29903.115612000714	12.505708083124
6	58390	29904.195127112999	5.073455272769
6	58400	29906.075233342378	11.447045091188
6	58405	29908.583222464432	1.121460171789
6	58410	29910.676116886945	1.182026174292
6	58425	29919.758977371605	1.867289676746
6	58450	29927.474936337486	2.691201411782
6	58455	29928.890026113748	1.059244526364
6	58472	29938.605061003337	2.962314570553
6	58490	29948.099998550968	10.170277116218
6	58520	29965.329868709764	3.079938970322
6	58525	29970.931155077419	1.046091655828
6	58530	29980.642613083558	0.966911882535

