version 2
run Second_exit_2-17-20191114-11:42:32-8896
attr configname Second_exit_2
attr datetime 20191114-11:42:32
attr experiment Second_exit_2
attr inifile omnetpp.ini
attr iterationvars ""
attr iterationvarsf ""
attr measurement ""
attr network ResponseTimeNetwork
attr processid 8896
attr repetition 17
attr replication #17
attr resultdir results
attr runnumber 17
attr seedset 17
param **.Source.interArrivalTime exponential(5s)
param **.jobPriority bernoulli(0.6)
param **.PS.serviceTimeU1 "uniform(0.8s, 1.2s)"
param **.PS.serviceTimeU2 "uniform(1.8s, 2.2s)"
param **.SS1.serviceTime exponential(1s)
param **.SS2.serviceTime exponential(1.2s)
param **.PS.exitProbability bernoulli(0.2)

vector 0 ResponseTimeNetwork.sink lifeTimeU1:vector ETV
attr interpolationmode none
attr title "lifetime of arrived jobs U1, vector"
attr unit s
vector 1 ResponseTimeNetwork.sink totalServiceTimeU1:vector ETV
attr interpolationmode none
attr title "the total time spent  by arrived jobs U1, vector"
attr unit s
vector 2 ResponseTimeNetwork.sink lifeTime:vector ETV
attr interpolationmode none
attr title "lifetime of arrived jobs, vector"
attr unit s
vector 3 ResponseTimeNetwork.sink totalServiceTime:vector ETV
attr interpolationmode none
attr title "the total time spent  by arrived jobs, vector"
attr unit s
vector 4 ResponseTimeNetwork.sink lifeTimeU2:vector ETV
attr interpolationmode none
attr title "lifetime of arrived jobs U2, vector"
attr unit s
vector 5 ResponseTimeNetwork.sink totalServiceTimeU2:vector ETV
attr interpolationmode none
attr title "the total time spent  by arrived jobs U2, vector"
attr unit s
vector 6 ResponseTimeNetwork.QueueU2 queueLength:vector ETV
attr interpolationmode sample-hold
attr title "queue length, vector"
vector 7 ResponseTimeNetwork.QueueU1 queueLength:vector ETV
attr interpolationmode sample-hold
attr title "queue length, vector"
vector 8 ResponseTimeNetwork.SS1 queueLength:vector ETV
attr interpolationmode sample-hold
attr title "queue length, vector"
vector 9 ResponseTimeNetwork.SS2 queueLength:vector ETV
attr interpolationmode sample-hold
attr title "queue length, vector"
0	12060	10005.585643683386	0.970743419416
0	12080	10025.877778976868	1.116471720487
0	12100	10034.628636387626	0.914341014158
0	12115	10078.051412270134	2.334870094296
0	12120	10093.76163358261	0.803731135279
0	12130	10102.382090047935	0.923629942164
0	12135	10109.158480528625	1.078639814444
0	12142	10123.364195104614	1.16458770195
0	12147	10124.20230400797	1.230566944794
0	12165	10131.287017711401	2.300212369037
0	12175	10141.488132440945	0.94352881182
0	12180	10143.485503284985	0.885687583592
0	12185	10144.755457178319	1.073280484136
0	12190	10147.089288013388	0.859255876485
0	12200	10153.094544518559	1.133466757089
0	12215	10164.975058116203	0.878713053558
0	12220	10177.577738531376	1.112983871251
0	12239	10183.989206582099	1.236150645719
0	12265	10216.158507384641	0.936341794115
0	12284	10220.883942158195	2.925982488132
0	12287	10222.04827978504	2.439204768131
0	12295	10236.01422934281	0.86700991597
0	12304	10247.733460191074	0.8371758922
0	12307	10248.841163680698	1.480517281076
0	12325	10255.359253717636	4.219221503466
0	12332	10259.136298332318	0.97737950217
0	12347	10267.032521243136	0.885640450567
0	12355	10280.607316783192	1.085081032198
0	12360	10287.305062299969	1.144614865258
0	12384	10299.609282267184	1.732633151947
0	12389	10300.553844820146	1.859467859597
0	12392	10301.709428335723	4.058378435857
0	12460	10389.906336268635	1.181866737176
0	12480	10427.824468879469	0.806549691316
0	12497	10437.432292533696	4.068020506366
0	12500	10438.262783750736	2.912994764564
0	12505	10443.171914552432	0.855541386176
0	12520	10458.803342245677	3.472808940009
0	12525	10473.077997044948	1.020625498239
0	12530	10482.070316034729	0.95272075804
0	12535	10485.396509208691	0.907436802983
0	12540	10487.82363939319	0.839611946046
0	12555	10507.763432599328	1.006975534186
0	12570	10516.03000354237	2.728679469138
0	12575	10528.251300696259	0.861859701108
0	12585	10539.916457002567	2.110150250162
0	12595	10548.7733388906	1.148741380963
0	12600	10554.363020062932	1.131944597885
0	12609	10562.631722886405	1.154084947053
0	12620	10569.160288907631	1.171305473614
0	12625	10575.590007543119	1.024855011236
0	12632	10579.675789001349	1.119059545454
0	12655	10591.771696805534	0.979064526875
0	12670	10614.302825580712	2.768058725976
0	12692	10628.540658894883	1.602860674343
0	12702	10636.615546562928	1.183999269921
0	12715	10646.493330358061	0.848137232102
0	12720	10661.970277040564	1.17953190729
0	12725	10664.37430059242	0.837226418033
0	12730	10665.624556129418	1.111691665091
0	12735	10673.681612864638	0.929060939606
0	12742	10675.480999142224	1.187945545465
0	12745	10676.51355194637	1.153634494842
0	12750	10678.306391937814	1.17697224943
0	12762	10685.873211136836	1.108731686231
0	12785	10691.560956160539	1.226128274347
0	12795	10714.636521648578	1.150199960824
0	12800	10731.331470370215	1.101771397609
0	12812	10737.62129020454	1.189120528754
0	12815	10738.664210820995	4.109342935519
0	12820	10747.131062676436	0.858091147151
0	12825	10748.693042951324	1.087436215207
0	12835	10751.979284228256	1.029069014266
0	12857	10800.133494233308	1.011271165684
0	12885	10817.283236550655	1.068129961938
0	12905	10858.20845810626	0.920511824172
0	12915	10866.763917107245	1.045750807039
0	12920	10868.565239334456	1.061796737462
0	12950	10881.76423542859	3.781177562444
0	12955	10884.879823759483	0.802268582769
0	12975	10892.284370154404	0.854274910502
0	12990	10908.388593777253	2.696913260408
0	13010	10919.693609750348	4.566407498252
0	13015	10930.303809739446	1.052952532936
0	13027	10939.245474627042	0.997211452667
0	13030	10940.081640040768	3.709518945613
0	13035	10947.396330668677	1.102790699527
0	13045	10966.30578335817	0.824705917295
0	13050	10979.329352222161	0.903919352405
0	13060	10989.501243577507	0.812169982493
0	13065	10995.953566158805	1.012370970007
0	13075	11000.211092914844	1.604255483769
0	13102	11032.795713497252	0.871874321159
0	13124	11038.582885669537	1.844386376266
0	13127	11039.600041308433	7.091246559876
0	13145	11058.461047742431	2.225188932168
0	13150	11066.553625896033	1.118727819063
0	13162	11079.451706837547	0.883347245585
0	13169	11080.453003585768	1.668601886526
0	13172	11081.473616545611	1.761743745236
0	13182	11085.167199108494	0.889352386538
0	13187	11086.213263486163	1.355135401245
0	13200	11089.751560172161	9.574174011655
0	13227	11102.509377221929	0.976404993795
0	13235	11105.356520417946	5.839969284641
0	13240	11108.543710467577	1.133597012423
0	13250	11119.986312548285	1.054621925578
0	13277	11134.831607163865	8.737649496851
0	13295	11141.126520591397	2.953762696031
0	13305	11153.776551670844	1.165197107289
0	13335	11181.42879950481	2.384857799203
0	13350	11194.759260874631	0.801700979751
0	13355	11204.853801200563	0.823289627582
0	13365	11218.115909927404	0.88007772183
0	13377	11222.637908107058	0.951121263113
0	13394	11225.551625849323	0.899244655468
0	13405	11228.487568653857	5.44343638844
0	13425	11253.729185151677	0.838344794884
0	13435	11265.727918962897	3.797838750543
0	13440	11268.882090446631	0.856557246204
0	13445	11272.23778749976	1.101926063281
0	13455	11279.478460494576	0.93219571542
0	13460	11284.369993172359	1.18427441977
0	13470	11292.260402747274	2.142426696496
0	13485	11300.037026041715	1.296942544642
0	13490	11303.610719242215	0.950428631902
0	13500	11313.384794199458	1.750470083321
0	13510	11319.543420381691	2.973847434934
0	13538	11324.859917869885	4.138535796372
0	13543	11325.949991643336	4.512899567811
0	13546	11327.046299453918	2.135723142277
0	13560	11336.49022667386	0.918001975585
0	13570	11353.517152093615	0.906103258114
0	13589	11364.684619981458	1.097348948754
0	13592	11365.690018002724	1.579018409328
0	13610	11389.515313597535	6.037679583842
0	13615	11399.917062034816	0.804890675936
0	13620	11404.291913028562	1.198310132977
0	13640	11420.821027366947	2.999177216449
0	13645	11425.565124162379	0.812243805267
0	13650	11433.439343952707	1.144672096614
0	13657	11434.806825040039	1.074444704037
0	13660	11435.838389227763	1.089306316734
0	13665	11437.063718665741	0.819217162952
0	13681	11439.817499364945	1.576086084505
0	13694	11442.772434497192	4.865595518984
0	13710	11446.868887273535	1.683171100142
0	13717	11457.791361781776	1.047338222433
0	13720	11458.811495728985	1.065084275438
0	13730	11476.420276151286	1.085088599846
0	13755	11486.345914793424	3.32870593321
0	13770	11492.531968621516	4.231899680981
0	13775	11495.999563350428	0.948015855253
0	13787	11508.628275366142	1.029246269166
0	13800	11522.671879504824	1.540961557857
0	13805	11526.669596382383	0.893512802385
0	13835	11551.466219872803	0.993886131234
0	13840	11553.52454117024	1.122427590564
0	13855	11558.71285280634	0.981945116818
0	13862	11559.630676786527	0.898513770476
0	13865	11560.571060968302	1.64872784577
0	13872	11562.233706557575	0.860954230744
0	13875	11563.364376673672	1.324987511595
0	13885	11590.775280796733	0.860279804654
0	13900	11595.944118637246	5.00517422521
0	13905	11598.406848647017	1.148310676403
0	13917	11608.113834830239	2.297595715862
0	13920	11609.132916133716	1.862415635521
0	13930	11613.47135947357	2.683744529425
0	13960	11640.572110120269	0.884114062972
0	13975	11649.490530835939	5.973820583744
0	13980	11650.706635263035	1.143042311817
0	13992	11666.559227150046	1.139063726459
0	13995	11667.636307028887	3.20159144933
0	14010	11672.155532853487	1.008452561032
0	14020	11677.644311648884	1.675160118156
0	14035	11696.478419475194	0.905357738305
0	14052	11703.138420336686	2.96039720515
0	14055	11704.137723393265	2.078685991388
0	14065	11710.534069124355	0.91714215083
0	14070	11715.558922314582	1.040949707292
0	14075	11723.472239423332	1.020377325919
0	14080	11730.731658988227	1.078521104902
0	14087	11732.882232062498	1.16126143476
0	14105	11746.623865229384	1.112640542258
0	14115	11754.3828749536	2.927890739987
0	14122	11756.648312794966	0.882327207085
0	14125	11757.814612343525	1.56144970917
0	14130	11759.872646152961	1.194538310822
0	14140	11765.405628119516	2.426710239939
0	14155	11783.755969697733	1.041351998039
0	14165	11792.906604340573	0.838128194399
0	14175	11796.547350222442	2.595835810991
0	14180	11803.926248498541	1.197247813921
0	14185	11813.47033446534	1.157961225882
0	14210	11821.758172226161	3.995656089267
0	14222	11837.413003603646	0.875442864001
0	14230	11839.457720685227	2.632321619095
0	14255	11850.185869715337	5.859197021725
0	14267	11852.600064486597	1.826375853818
0	14277	11854.687419448379	1.588023669806
0	14280	11855.609974036976	1.514975519605
0	14305	11882.420194398092	1.043488160335
0	14310	11886.709944571449	0.839089009352
0	14317	11889.593881201125	0.941105382331
0	14320	11890.449940694995	1.234544761013
0	14325	11895.20250259555	0.8087449288
0	14330	11902.426119407948	1.168516424671
0	14335	11903.664915250356	1.172199057322
0	14347	11908.259121446955	1.153386998456
0	14357	11910.282745468329	1.651916976591
0	14375	11927.352937599068	1.154096158314
0	14380	11939.411463380949	0.945674380194
0	14390	11949.169822975776	0.836872723978
0	14397	11951.589845449386	4.270565172926
0	14400	11952.71262645526	1.629463759798
0	14405	11960.410057916076	0.928486975934
0	14435	11976.41045742922	9.370970725467
0	14440	11979.85141267979	0.978718518
0	14445	11983.542914309424	1.152127480414
0	14460	11995.038673066824	2.951651018765
0	14470	12020.367025006832	0.903106130287
0	14475	12025.123016071508	0.927432275377
0	14480	12032.470143005801	0.972323559504
0	14500	12043.452396335697	1.091720433068
0	14510	12051.851146878671	0.975048691407
0	14535	12076.018247825204	1.06501648929
0	14540	12083.210464348551	0.97256899951
0	14552	12094.489910961004	1.251554251642
0	14559	12095.508829790415	1.205942514794
0	14562	12096.342330189204	1.386343684646
0	14570	12107.235642771638	0.822327462491
0	14575	12108.327564104447	1.079460939206
0	14592	12118.961158592723	2.51472197521
0	14602	12120.783965811323	1.611848303103
0	14605	12121.604877629134	2.932604530632
0	14639	12142.441541604601	0.894567723293
0	14642	12143.371837223131	1.128360944928
0	14670	12150.465048656909	4.762634121339
0	14675	12157.076924924654	0.993327985611
0	14685	12160.091981113666	2.634827608758
0	14700	12171.079269576417	0.975230248366
0	14710	12178.3052408978	0.954482604191
0	14715	12193.510227842722	0.818656883482
0	14735	12221.120304119113	1.166475385986
0	14745	12225.813509756663	0.800895386096
0	14757	12228.756001321158	0.805246714968
0	14762	12229.820599518555	6.000743610042
0	14772	12231.919339060016	2.775375280429
0	14775	12232.744464942139	0.86079345365
0	14787	12236.884015742483	2.569532573159
0	14790	12238.057224991618	2.057304906743
0	14805	12255.388127747614	0.919448392373
0	14820	12267.275830485418	2.170122508716
0	14825	12271.995646302102	1.063929853216
0	14832	12276.085146062249	1.103842019197
0	14835	12277.081003382137	1.791028450629
0	14845	12279.850517589781	1.045212365128
0	14850	12284.431643816635	1.181980707496
0	14855	12285.992558611662	0.813807059452
0	14865	12294.938002794978	0.900371248741
0	14877	12301.496752847385	3.333010877412
0	14880	12302.423522761956	1.375179557565
0	14890	12305.761225027047	3.205585045409
0	14897	12309.803525624249	1.09261533916
0	14900	12310.60960867434	1.095500275081
0	14909	12313.885341071972	0.96612672694
0	14927	12318.61729443104	5.50083522629
0	14932	12319.793267941968	1.270155665276
0	14935	12320.874912385484	2.133076215928
0	14945	12325.147622013977	3.473293156159
0	14965	12333.863198905097	1.501532633528
0	14982	12337.560155170836	2.031872971804
0	14990	12363.772227091392	1.142053323705
0	15005	12369.77008848117	1.926574922006
0	15030	12389.922463283287	0.877555024717
0	15035	12393.300382480138	1.02425782159
0	15040	12395.841064599916	1.160447970405
0	15047	12402.349812545057	0.839002752863
0	15052	12403.264021684311	1.263110229527
0	15055	12404.34567845593	1.765128977261
0	15060	12406.619407551506	1.034606766887
0	15065	12408.306011223847	0.902517527808
0	15075	12414.447343485079	1.000011298805
0	15080	12424.516750193047	0.971363573801
0	15090	12432.149847477502	1.192351502459
0	15097	12440.480879301496	0.926346411556
0	15100	12441.497181443881	1.413295976907
0	15115	12459.317035598314	0.958475618716
0	15132	12469.046916647632	4.014527144581
0	15135	12470.100504002445	1.719345231781
0	15142	12475.500842789649	0.950717603695
0	15180	12506.59793988731	2.03191467648
0	15192	12517.749988153185	1.602277665257
0	15195	12518.57619181469	2.753231759183
0	15200	12529.833952482407	0.985861987714
0	15207	12535.649801411311	1.099053207505
0	15210	12536.727488238568	1.265283375154
0	15217	12543.390613675356	0.849676674791
0	15225	12547.999400510606	0.879611430131
0	15235	12564.107659068259	1.064605913684
0	15265	12574.719855273588	1.09465535162
0	15270	12575.988818425675	3.676587385087
0	15295	12584.310860392646	0.905680922791
0	15300	12592.619378055253	0.84298577169
0	15305	12594.139460902675	0.998512705509
0	15322	12609.337664702856	1.117669867072
0	15325	12610.438414135617	3.283380635965
0	15330	12613.387621250473	1.048446537368
0	15350	12628.0821685204	1.17655113237
0	15365	12647.36662795039	1.10434875302
0	15397	12668.686947671367	1.003029383626
0	15400	12669.616880732073	1.554429968897
0	15405	12678.062478390186	0.916941604298
0	15415	12689.092862364439	1.191970016621
0	15420	12690.434218154936	1.067423840612
0	15432	12699.49257516496	1.195143841207
0	15437	12700.420775724092	1.141890632436
0	15457	12732.771771391443	1.162135158759
0	15467	12735.556649630003	1.170706247631
0	15470	12736.597319852513	4.569776026511
0	15475	12744.132196272609	0.892064109817
0	15485	12747.916201880306	0.907904167939
0	15497	12754.070805914318	0.949451765511
0	15520	12766.338422554771	1.149085980654
0	15525	12770.76306453939	1.091282464005
0	15540	12780.262943810447	1.990134442742
0	15545	12781.587882775488	3.360429788205
0	15550	12782.662772308455	0.95335954288
0	15605	12826.189563929054	0.876359175518
0	15629	12836.844120964908	2.857645855565
0	15632	12837.760031680145	2.669148268628
0	15639	12838.604189390723	3.865153377752
0	15662	12850.445645494235	1.003783003148
0	15675	12856.173511472389	2.541200334666
0	15700	12875.76821906648	1.641229808917
0	15725	12898.201113677199	0.984299222007
0	15730	12900.742171061526	0.965396052413
0	15737	12907.421565131561	1.134904263169
0	15740	12908.313749323596	1.121326399863
0	15777	12921.822708959464	6.0767437323
0	15780	12922.816857141029	4.759616481757
0	15822	12953.410938980138	1.013714686502
0	15835	12958.011198786114	2.948885973998
0	15850	12965.027869481826	1.166563972793
0	15860	12971.442830128098	2.662794965997
0	15870	12973.86791993868	2.039674519864
0	15885	12980.554754502945	1.274431350645
0	15892	12985.050027071711	1.111427134741
0	15900	12987.125098710999	2.016482777984
0	15920	13003.789188309442	0.916174248047
0	15934	13005.932111258428	1.271097115947
0	15939	13007.120745008248	3.314378446899
0	15942	13007.963916070568	1.872801830683
0	15950	13010.593812229204	1.120552451164
0	15957	13011.956272296435	1.176758184284
0	15974	13028.587390238	1.810200755208
0	15977	13029.513115096511	2.365348333881
0	15985	13031.587753689663	4.927897190444
0	15990	13034.056270553261	0.937168045621
0	16000	13046.883481589151	0.933858661819
0	16005	13051.589642045737	0.81636383459
0	16015	13053.989551631755	1.389130202865
0	16025	13057.199581820002	0.838426652458
0	16042	13066.49000649172	1.256715408448
0	16057	13069.535107238862	5.977911236992
0	16067	13072.033685924422	1.060210678075
0	16084	13081.828737527332	0.891245362022
0	16087	13082.966557376752	1.890363798602
0	16090	13084.059700851063	4.206309578475
0	16100	13103.827435046985	0.985693120491
0	16105	13107.118743925221	0.943084997218
0	16110	13111.313258416101	0.94565189546
0	16115	13112.382966068524	0.998972198647
0	16140	13132.897640619442	1.096491828188
0	16159	13148.250442962386	1.403530947954
0	16162	13149.151217791569	3.20071154777
0	16177	13164.883168120962	1.029797969107
0	16182	13165.757881919481	0.883393450906
0	16195	13173.381791068005	2.579673673553
0	16200	13181.591932052184	0.983410815895
0	16217	13195.43413324627	0.98380169291
0	16220	13196.424529059892	1.971377520017
0	16227	13197.314632628339	0.874345611036
0	16230	13198.406200698989	1.151743544812
0	16245	13209.759505587826	1.099959705397
0	16257	13213.659332826538	1.265889930568
0	16272	13220.564100864969	2.733733390104
0	16280	13225.613932196324	1.177588116471
0	16290	13231.428550639121	3.32297007347
0	16295	13234.685671985319	0.895681335032
0	16300	13243.502281582738	0.914331444353
0	16305	13246.292705324415	1.095172476396
0	16310	13252.532945675015	1.05481953891
0	16330	13258.412153774308	4.35386554749
0	16335	13259.988894786629	1.034004379436
0	16340	13266.962992494598	0.844678766094
0	16345	13278.305784995178	0.872739886306
0	16365	13306.530273882386	2.047857827462
0	16382	13322.845328128975	0.922937970236
0	16390	13326.124878841561	1.065055051353
0	16395	13327.73200426658	0.905013336521
0	16400	13333.405919309014	0.875994549692
0	16405	13335.948368355401	0.914088905789
0	16410	13337.594057130839	1.020635919925
0	16415	13340.259529794562	0.983998095524
0	16425	13357.657912635851	0.999513023533
0	16432	13358.875668554978	0.934277120512
0	16437	13359.996397003756	1.463081793885
0	16450	13379.474335200394	1.028467553668
0	16455	13385.33727058883	1.073628285993
0	16465	13393.265699228832	2.11044335888
0	16475	13405.833375726462	0.849961324688
0	16480	13416.400415908547	0.803667730652
0	16495	13432.159559675559	1.458716362022
0	16500	13433.413853316418	3.278775958966
0	16505	13439.131797692836	1.064826532546
0	16510	13445.732049014734	1.127090998832
0	16535	13477.824682295023	1.116012432426
0	16540	13478.957494523025	0.865337447543
0	16547	13480.374098279044	0.826239412278
0	16559	13482.523433806371	1.481081469681
0	16562	13483.585988050137	3.952218123431
0	16565	13484.712090621978	2.317797512317
0	16580	13501.262525864538	0.925843768351
0	16585	13505.084331988676	0.805687574111
0	16590	13506.650288834671	1.060715363827
0	16605	13523.771752056885	1.060459502321
0	16625	13534.328039859458	2.692539658646
0	16635	13537.863123830451	3.407315001368
0	16650	13541.037071614319	2.316525971074
0	16675	13556.646705332146	2.088632219046
0	16685	13561.875514112812	1.784316876274
0	16692	13566.838731771643	0.949083568621
0	16707	13569.647752953071	3.173453865785
0	16710	13570.544688746642	2.12929959558
0	16735	13588.71902495985	1.065530028008
0	16750	13629.606724440034	1.060957399569
0	16775	13638.973505431695	0.822946842294
0	16780	13642.937570523227	1.132023685239
0	16790	13659.08504988565	0.913342331164
0	16807	13673.472296040235	0.824753909465
0	16810	13674.444002143582	1.701801048365
0	16827	13685.13485568003	1.958484672905
0	16835	13687.458122353666	3.051955850126
0	16840	13691.114562007144	0.989413350075
0	16857	13699.380205584466	3.534159161003
0	16867	13701.136130301519	0.820331510808
0	16895	13706.827130574225	7.962902770116
0	16902	13709.372122267253	0.837248558272
0	16910	13711.966902849838	1.140231686458
0	16922	13715.934060218931	6.579743248139
0	16940	13736.981878289595	1.144895751029
0	16950	13743.378798034653	1.053501325753
0	16955	13751.704563215407	0.813237683009
0	16972	13760.250559027666	0.89229671089
0	16980	13762.354918933274	1.294076217504
0	16990	13772.354608242488	1.071878556255
0	17000	13802.862021386576	0.959717567731
0	17005	13808.057016412255	1.029261148255
0	17010	13813.667471562954	1.138289891742
0	17025	13824.940254054643	0.811654266901
0	17035	13832.560209585918	1.173605351429
0	17059	13843.272045987216	1.621549406621
0	17062	13844.152074124594	0.928561246841
0	17087	13851.041939450144	4.838778839067
0	17090	13851.903217326193	1.801605092015
0	17095	13860.875148131804	0.804024136439
0	17105	13868.697848632964	1.419399490331
0	17115	13877.031897611922	0.908903427608
0	17130	13890.335561695026	1.5964721039
0	17135	13892.027787211994	1.024245043378
0	17140	13896.225590785225	1.091206484754
0	17145	13907.795560145493	0.850570815988
0	17152	13915.557492924594	1.125218442827
0	17155	13916.676018155013	1.285186820498
0	17160	13918.48695221519	0.812744815461
0	17165	13928.266347808071	1.108565635141
0	17185	13941.109593440739	2.181050454478
0	17195	13952.770617919006	0.955291960388
0	17200	13956.78468434808	1.105980971549
0	17205	13959.36428030174	0.943187904358
0	17210	13964.239123922066	1.148653974012
0	17230	14008.677102134267	1.002294796705
0	17235	14010.915359541634	0.989843952004
0	17250	14015.513352328801	0.805069836881
0	17265	14024.179840757464	4.299658339673
0	17280	14032.988871830095	0.858833494876
0	17299	14038.830826155316	3.546674150746
0	17309	14040.587188084829	1.548107727346
0	17329	14044.325252166703	6.308466098738
0	17337	14046.587790142592	2.13490857083
0	17345	14048.717611264284	6.854584056303
0	17360	14072.376791915944	1.099038224574
0	17385	14080.995945881145	3.750757252052
0	17397	14089.398366333689	1.036383087002
0	17410	14102.761992572506	0.986971768644
0	17452	14126.922069153811	1.496731539437
0	17455	14128.112124526191	1.690325944365
0	17467	14135.455493230711	2.079827110179
0	17470	14136.626824184007	3.287554297596
0	17482	14141.736862890693	1.122711427789
0	17510	14151.387833989167	0.879809112288
0	17515	14153.076436838304	0.851660878677
0	17520	14155.247987478227	0.809793384001
0	17525	14156.105171420745	0.820032747276
0	17530	14158.231726787217	1.170582458936
0	17540	14163.645314255139	1.244245087661
0	17555	14169.445233068306	1.09285128573
0	17580	14206.281408317785	3.098727743823
0	17590	14220.038226224222	3.635784049985
0	17595	14229.017112755621	1.175364343077
0	17602	14231.031291448277	1.182093182113
0	17610	14233.410742485632	3.531513266517
0	17622	14240.06085127368	1.126507821679
0	17629	14240.880660684401	1.903577343476
0	17632	14241.710831755487	1.107793976081
0	17640	14243.921902774269	1.808862884302
0	17655	14277.761541413863	3.072942899633
0	17660	14281.134720179659	6.048088707784
0	17665	14282.247580109294	1.100531105045
0	17670	14283.771381871403	0.994066309743
0	17677	14289.359790172923	1.040711249039
0	17709	14299.249818461802	1.83276351258
0	17740	14322.675859614932	0.894661546126
0	17765	14338.601076118744	4.645178272148
0	17770	14342.34832214827	1.130051453598
0	17775	14364.617546163805	0.994931473956
0	17780	14368.597426542932	1.096673094016
0	17800	14387.565409369148	4.129822867767
0	17805	14389.422393561293	3.86991923968
0	17820	14398.390009434037	4.146417289973
0	17837	14416.212897548517	1.639927739267
0	17840	14417.365712363431	3.036835078988
0	17854	14422.76880944295	2.265147436024
0	17875	14429.864659434531	4.772902418698
0	17882	14462.949227983627	1.061744463816
0	17900	14470.75654903649	0.925122645777
0	17910	14475.915822192808	1.71402750467
0	17915	14489.199716016451	1.187879152875
0	17925	14493.138659366186	0.830682194978
0	17962	14510.347018492355	0.826124639716
0	17975	14518.460382542995	1.163713812083
0	18010	14533.9817813151	1.026682829764
0	18025	14538.496834008051	0.853354271688
0	18040	14545.064567194319	4.018684566289
0	18045	14552.207720301793	1.063685586024
0	18074	14583.326609379987	1.345073872143
0	18082	14585.354441008161	2.014067357964
0	18100	14591.103603474163	0.841701611038
0	18125	14603.20924549389	2.513407754773
0	18135	14608.878888593856	3.374091644298
0	18145	14617.931665544422	0.910265541077
0	18150	14622.170748521175	0.929597085156
0	18160	14630.458071140721	0.820843270794
0	18175	14654.146040023734	0.8577702282
0	18180	14658.836588261418	0.997421598714
0	18185	14666.568862039464	0.909521399718
0	18195	14673.807185591349	3.312426540202
0	18200	14690.28192064168	1.079431774653
0	18217	14706.188917151956	1.079575205687
0	18239	14710.429207582274	0.989262630697
0	18244	14711.503008215097	1.593472012705
0	18252	14713.737879048535	3.158768076422
0	18255	14714.7162282081	8.52290543427
0	18280	14732.375809947041	2.262766830155
0	18285	14738.091997588916	0.925465745851
0	18297	14747.19584449794	1.098264775425
0	18305	14750.217625789779	0.995943318401
0	18310	14760.551815728567	0.888825271279
0	18315	14763.549190094147	0.869829245564
0	18339	14775.937182057626	1.328030989604
0	18344	14777.093375461339	1.157867768202
0	18347	14778.044858905277	1.797877570777
0	18362	14781.8614008234	1.406258039607
0	18375	14787.707973918646	1.067442449182
0	18380	14789.180357704221	0.809470499959
0	18385	14790.966688416407	0.855996689294
0	18405	14799.328205535239	1.967396940514
0	18415	14813.682752546629	1.034161307849
0	18420	14817.496834621715	0.802771584503
0	18430	14826.386939849331	1.008294120803
0	18440	14830.395459651574	3.13821117865
0	18445	14835.218578224534	0.974814749882
0	18450	14836.976078500412	1.116040679533
0	18455	14856.948964494693	0.97157645924
0	18460	14858.205696780558	1.133090498112
0	18472	14867.523573287022	0.892961738724
0	18475	14868.373336657886	1.603201210903
0	18480	14874.256011671962	0.890131437313
0	18529	14898.223080141362	0.967929520924
0	18532	14899.325918390215	1.765489546245
0	18537	14900.370197160807	6.485813329394
0	18549	14902.357416484025	1.874388853617
0	18552	14903.229848632109	3.579367389112
0	18572	14935.924910310134	1.064554705471
0	18587	14947.550197509881	1.001689534634
0	18590	14948.479003892671	1.475410630445
0	18595	14960.581328335867	0.804172839038
0	18600	14965.420786688352	0.825384789333
0	18607	14969.186534657117	0.83834598409
0	18614	14970.023261718612	0.931109758375
0	18617	14971.123136632491	1.669069937822
0	18620	14972.322938631449	2.76710153156
0	18625	14975.554886254168	0.951169808209
0	18630	14979.933237752802	0.892425542604
0	18635	14982.549402625622	0.917021341901
0	18640	14987.347229859731	1.095284181461
0	18645	14994.757715814198	0.861625144724
0	18650	14996.863597521071	0.9481956698
0	18660	15001.818118469743	1.092408054136
0	18672	15009.320013117199	0.848747764248
0	18680	15012.699290514883	1.007944867387
0	18695	15025.014875049549	0.816200437862
0	18700	15035.610323185783	1.133905122615
0	18705	15037.942075433562	0.952821887936
0	18710	15039.944764480865	0.88423981024
0	18715	15041.444717375533	1.037856552284
0	18720	15043.761363024376	1.153142195847
0	18759	15069.065355350534	2.06409888192
0	18774	15072.328045705138	2.739456766542
0	18787	15075.688110949343	8.148653860078
0	18790	15076.825543779565	11.543807991617
0	18805	15087.261201998805	0.868924991321
0	18810	15091.027384319712	0.959773285035
0	18820	15101.200391657927	1.734821748278
0	18835	15109.340354786537	2.434781311864
0	18850	15117.539831204236	1.013500620958
0	18862	15124.143132712562	0.857983111776
0	18865	15125.134535994344	1.428421912222
0	18870	15126.336509576554	1.146717439592
0	18880	15129.262907568567	2.338117814073
0	18887	15131.292330418888	1.069219260104
0	18925	15176.522364497518	2.180104485476
0	18930	15177.968856174186	1.03822996337
0	18935	15179.341238535115	1.130478572566
0	18954	15186.805042334223	2.157507148715
0	18957	15187.736142767915	5.717642480173
0	18970	15195.348526899732	1.128476440068
0	18982	15206.956128208803	1.411047143928
0	18985	15207.820771278067	1.766105950355
0	18990	15213.782231393629	1.035821842588
0	18995	15216.495598570258	1.00390602136
0	19030	15235.833589480248	0.878858664818
0	19040	15239.718357720189	1.019393927604
0	19045	15242.117025660226	0.85751554165
0	19050	15246.050853263252	0.924551730789
0	19060	15250.016770889628	3.271503645892
0	19100	15274.10767237209	3.00358438734
0	19110	15280.202424977179	0.894697288983
0	19120	15285.728474632467	2.049444939879
0	19132	15291.466638018074	1.820659141007
0	19145	15298.932468211152	0.889044080116
0	19150	15300.322421831549	0.87494146768
0	19160	15311.487095125049	0.832296370156
0	19170	15317.554431980957	2.694918462373
0	19185	15329.706320067454	0.893388037197
0	19202	15338.896529683233	1.475298255582
0	19210	15342.871145885743	4.499400814285
0	19215	15347.013960292079	0.812814512104
0	19225	15356.123290192862	0.876127958018
0	19237	15359.769130660729	0.907007883475
0	19240	15360.655968051912	2.986454714463
0	19250	15371.870108084135	2.961201075983
0	19260	15374.024458434432	1.112997526102
0	19272	15378.556417986948	0.907616967242
0	19282	15381.721411872854	1.123163419031
0	19285	15382.616160997388	1.313815735807
0	19290	15384.742419881753	1.028349124175
0	19300	15395.354890146595	0.943174736854
0	19315	15417.245273602624	1.129495234881
0	19320	15418.337170222027	1.012949535903
0	19345	15433.832942717129	1.447428053437
0	19355	15440.846880517147	2.487411150954
0	19360	15442.513855474246	0.903232705407
0	19375	15451.186286980483	0.828500955552
0	19425	15475.477693537058	1.186505013332
0	19430	15481.941046220352	0.901102375705
0	19435	15484.568336176463	0.825933950022
0	19442	15486.376482050475	0.815305091441
0	19445	15487.21664583914	0.977667703616
0	19452	15494.094434256835	0.99274277119
0	19457	15494.947734332441	1.531233419591
0	19465	15497.453204375141	0.989814521559
0	19475	15501.304422072607	1.790194191167
0	19482	15507.299292746753	1.076364102494
0	19499	15525.058788326302	0.827842223551
0	19515	15552.735135969662	1.180964621808
0	19530	15569.536108950038	2.843230298254
0	19555	15579.299033055674	6.515608914539
0	19560	15582.180463035351	1.114968308061
0	19565	15584.371066225221	1.028926417604
0	19570	15590.625525172908	0.989400362503
0	19585	15596.283993177201	1.233179541148
0	19590	15599.839270167048	1.103597850259
0	19610	15608.640334813165	2.169050107221
0	19622	15611.92866207127	0.961813130695
0	19625	15612.936950755571	1.00958437934
0	19630	15626.254559187512	1.192645691149
0	19635	15629.428349736075	0.971051260829
0	19640	15640.500920592501	1.04123131251
0	19660	15651.306941605941	3.558153468403
0	19665	15654.477813149522	0.841207680944
0	19670	15655.504048935218	0.928524345718
0	19685	15666.470965203988	1.642432357026
0	19690	15681.168305552738	1.053464820702
0	19705	15686.019095364186	0.974159334507
0	19720	15698.629033900506	0.851475696918
0	19730	15702.652427142105	1.172264073955
0	19790	15742.314793785036	1.056999315415
0	19795	15743.418418515133	0.979567749985
0	19810	15762.225616444779	0.829015813954
0	19844	15778.180548983548	0.987885421592
0	19849	15779.139031403527	6.690203284383
0	19860	15786.604128501439	0.875757300295
0	19872	15829.044384855222	1.132931994926
0	19880	15846.148286800275	1.151091648173
0	19909	15879.605652241212	1.051502774563
0	19912	15880.526599958156	1.73688802261
0	19915	15881.5234108474	2.703549371044
0	19927	15893.196060745831	1.091291525215
0	19930	15894.071748247038	1.10409420764
0	19937	15910.247767584351	1.104597845487
0	19940	15911.386201899451	2.1736206543
0	19945	15916.156714875088	0.968075057678
0	19960	15934.815870649926	1.099657560107
0	19975	15945.010819678848	5.248253245897
0	19980	15946.104503143183	1.047442626487
0	19999	15950.4904733849	3.257711539019
0	20002	15951.358972615307	2.733771777991
0	20015	15967.10820030982	1.008190945536
0	20020	15969.737512548226	0.996233527642
0	20035	15986.227598387986	2.245921723487
0	20047	15992.416535510845	0.817500526179
0	20050	15993.529432060174	4.100042560782
0	20057	16007.788398780719	1.106935921218
0	20062	16008.605764983081	1.09975791969
0	20067	16009.436943807871	1.445349239936
0	20072	16010.432821865146	1.16332330061
0	20075	16011.533396849641	1.95883978014
0	20085	16018.391339499704	2.856625075936
0	20090	16026.318252484281	0.872235469148
0	20095	16027.622195307238	0.948339726403
0	20107	16030.173639847918	1.669048654101
0	20112	16031.05522919765	2.649983857945
0	20115	16032.195002249556	1.861794776008
0	20120	16036.503199435281	1.13662926564
0	20132	16039.075478595097	1.244083862162
0	20145	16046.809503506303	1.810292091721
0	20155	16064.719960034237	0.978455603868
0	20160	16068.551636707382	0.949511853792
0	20165	16071.192504454621	0.859475774504
0	20170	16072.310766703368	0.861673047673
0	20185	16088.925633660361	3.128530397868
0	20202	16098.475496439979	0.807254082244
0	20215	16102.389816163399	2.231167286303
0	20240	16118.755877675973	0.831106245611
0	20245	16127.966739499457	1.118270591926
0	20250	16132.378753913198	1.121236715373
0	20274	16155.832825386594	1.413631805789
0	20282	16158.007895488175	4.236257788352
0	20290	16159.934198017674	4.502518062619
0	20302	16172.966986915053	1.183241245312
0	20322	16178.422163659261	0.89460268775
0	20325	16179.590457166844	7.391746945647
0	20342	16187.224198013531	1.029264279641
0	20352	16189.23055268264	1.502224907883
0	20355	16190.111714133887	3.429133286891
0	20365	16202.712817960842	3.514248027205
0	20370	16204.531530045242	1.002341379877
0	20375	16209.516780683831	1.101412543654
0	20385	16215.333912767013	0.987717709034
0	20390	16217.82277416363	4.34659256403
0	20397	16231.291194059537	1.056796744466
0	20412	16244.235591970398	0.939149170369
0	20430	16265.183305888548	2.756776314184
0	20440	16267.204951418926	1.914873016231
0	20470	16284.991631691325	2.986960127282
0	20482	16291.093541086443	2.537603295123
0	20492	16293.592045879062	1.17699073758
0	20500	16296.855108901045	6.107820069795
0	20510	16300.272192565025	1.827716048783
0	20515	16301.1479197403	0.832227719296
0	20527	16306.119364177162	0.971649036743
0	20535	16307.919880987061	1.858570498187
0	20567	16319.567716571212	6.60626174218
0	20570	16320.47252482063	0.995077548373
0	20595	16356.544071981685	1.558303749986
0	20630	16381.960233611173	1.172026224434
0	20635	16383.814602179054	0.855198812205
0	20650	16401.114958497547	1.06853188565
0	20655	16405.938059897298	1.060562451091
0	20665	16410.668963639479	2.079516260168
0	20670	16415.247354413154	1.03099697791
0	20677	16417.864472920479	1.069228161126
0	20682	16418.910216372119	1.928095491064
0	20690	16423.258962611475	0.984792695288
0	20705	16447.499861180826	1.187793291081
0	20710	16452.191546297344	0.933679633867
0	20719	16453.131433041875	0.831055362243
0	20722	16454.034913198479	1.250518407656
0	20730	16457.603627558578	1.19562136149
0	20735	16467.731898059261	1.126592493057
0	20740	16475.885997725101	1.069050537888
0	20745	16477.13325970724	1.14658404151
0	20755	16488.842427935945	0.837803361844
0	20782	16518.35381936838	2.036608374552
0	20787	16519.37437032356	8.182043749128
0	20790	16520.280707035745	1.729583780761
0	20795	16530.198318964797	0.87482584957
0	20800	16534.382912525245	1.189965016861
0	20810	16545.218655785724	1.023981537111
0	20815	16553.430334574456	0.976701494306
0	20827	16562.331147915133	4.552414711232
0	20840	16568.031940258374	0.963782955799
0	20857	16575.147097794483	1.15506403558
0	20870	16578.842567415137	3.767924112399
0	20875	16582.099641861235	0.844353187084
0	20882	16589.587926846958	1.154506344628
0	20892	16591.723185701294	0.990024883114
0	20910	16599.848021871633	1.30885084401
0	20915	16601.761855564325	3.997001604386
0	20930	16605.726213339035	0.996817707364
0	20945	16633.364352866906	0.873791188281
0	20965	16647.41947589845	0.837156009488
0	20970	16650.249077505001	0.841320573259
0	20982	16660.318807345491	1.047094394173
0	20985	16661.126433330171	1.612083743719
0	21002	16673.779213102368	1.054782073896
0	21007	16674.631394487639	0.880773900046
0	21010	16675.688531109617	4.424620524701
0	21020	16679.391937070531	1.197319098469
0	21045	16710.650460482525	3.022450158646
0	21050	16712.077247792489	1.09664878929
0	21060	16718.256608496475	1.130340810213
0	21065	16721.839723130335	0.87575501753
0	21075	16725.899509799376	0.823674700316
0	21080	16726.83998780149	0.811661024857
0	21085	16730.323756913596	0.971363041922
0	21120	16750.564046738407	0.857384864055
0	21157	16781.7311726971	1.83143872389
0	21165	16783.629051556106	5.024127029814
0	21170	16784.871383701785	1.140773618687
0	21175	16788.055642973439	0.816315827891
0	21200	16809.899652043184	2.674850653092
0	21217	16815.647161753676	3.211806212825
0	21230	16833.494170573898	0.948368753307
0	21235	16838.677834749149	1.194685580302
0	21245	16859.586097841332	1.158830381185
0	21250	16871.526080745143	1.022844089661
0	21255	16875.64360741469	1.075162509177
0	21267	16882.659597047122	3.430066049587
0	21270	16883.728586807737	1.449625043359
0	21275	16889.55601724402	0.933767267689
0	21290	16899.177050710537	2.702175079867
0	21295	16902.469151863894	0.805612125527
0	21310	16913.960472942163	1.153719327226
0	21339	16926.979060685786	4.681167295102
0	21370	16934.456700791477	8.464236252931
0	21375	16936.299547516125	7.012931265019
0	21390	16950.843664169985	0.983121237904
0	21405	16958.938309224032	1.083517149277
0	21415	16962.175857795439	2.081420523181
0	21420	16966.635664285162	0.991062369663
0	21430	16972.312583497956	1.430717632504
0	21435	16974.338076144686	0.961045288388
0	21455	16981.211245179412	5.209991071473
0	21475	16993.357630749838	0.852337169368
0	21482	17000.625317687755	1.157438481133
0	21485	17001.673048223489	1.307974440275
0	21490	17006.979949921226	1.05431005368
0	21510	17040.672475918822	0.967449697852
0	21520	17046.619531610078	5.482952144441
0	21527	17055.649516312539	1.13330530487
0	21530	17056.50460789841	1.711179728645
0	21551	17066.348612134645	2.215689994372
0	21554	17067.253913535664	1.547127198566
0	21559	17068.200342921375	2.048152941516
0	21572	17072.164847455327	1.103409139346
0	21577	17072.98224672914	5.4783374232
0	21585	17075.386669787797	2.816912180018
0	21590	17079.65251355602	1.173728496209
0	21610	17095.306312804353	0.815281932242
0	21615	17096.227515542603	0.811807101686
0	21640	17116.796776033342	1.023733386863
0	21657	17131.489236031663	1.10808523763
0	21672	17134.477347074266	1.536364676444
0	21705	17165.576979002392	6.598684045536
0	21720	17176.395099807671	0.929408284277
0	21727	17181.586164726568	0.81679488197
0	21735	17184.906764821027	3.484314862331
0	21755	17200.400040122331	2.394104865002
0	21765	17203.83630886602	2.166529237178
0	21770	17218.548621560956	1.05380819058
0	21792	17231.268272834783	1.17830791194
0	21812	17235.256451851269	3.684724722302
0	21815	17236.29607257531	1.842820917446
0	21820	17241.614195888171	0.850731730089
0	21825	17245.056487302701	0.879004834685
0	21835	17247.422122212126	1.003607837369
0	21842	17248.806583156526	3.130527373401
0	21845	17249.667466594834	0.980513081159
0	21850	17252.758030084651	0.900794079434
0	21855	17255.736358860365	1.010965007264
0	21860	17260.633748045078	1.093476990424
0	21865	17270.480151805271	0.946687393263
0	21870	17274.168149994701	1.122969287075
0	21880	17288.409626049753	3.455683283708
0	21885	17289.394485342174	0.924132523779
0	21915	17306.73217306185	1.471233385728
0	21925	17315.753007106878	1.104678413152
0	21932	17317.921264596443	1.164151735511
0	21940	17337.540627832562	1.027191594522
0	21945	17339.220545509599	1.090057283361
0	21952	17345.854966752982	0.881227637362
0	21955	17346.990960940259	1.823318287284
0	21960	17353.347606024938	0.947897520754
0	21965	17354.591625951778	0.838373234589
0	21975	17364.670800644035	1.587680324842
0	21985	17373.997767297132	2.72309290229
0	21995	17391.333772737612	4.169211344644
0	22000	17419.986310435321	0.909927051235
0	22025	17441.619804694183	0.943263424188
0	22030	17449.562658179052	1.023822010588
0	22035	17467.522822910645	1.113637153246
0	22045	17473.287106649268	0.909491750784
0	22057	17477.556890018608	1.093376117758
0	22070	17482.583600935093	1.042858128157
0	22080	17486.522364109272	1.029843866453
0	22087	17501.644207526823	0.920319285337
0	22090	17502.501000180268	0.983438362189
0	22095	17503.751858350533	0.881604137179
0	22105	17509.184863122808	2.286345323172
0	22110	17514.600093810616	1.079037918523
0	22127	17528.103903254935	0.975753813051
0	22130	17529.202149299414	1.926268019122
0	22145	17539.897307446703	2.454819121813
0	22157	17545.011355402469	1.103267152607
0	22172	17548.143560388497	2.121592225042
0	22180	17550.270200251693	1.005302109544
0	22185	17552.049679268101	0.817662507389
0	22202	17573.144397621831	1.841119192304
0	22236	17590.616601713911	1.969602990918
0	22250	17599.439866768536	0.946984454058
0	22255	17603.930740803589	0.842505748291
0	22265	17610.358405940859	2.551437048291
0	22270	17613.575126940445	0.887288146745
0	22290	17624.232833917442	3.770340648024
0	22305	17643.461973121702	0.987216792908
0	22315	17651.937014004575	2.11906904441
0	22322	17654.907650451782	0.919703097735
0	22330	17657.915879064203	0.857308831345
0	22335	17664.528220979433	0.890633864142
0	22340	17666.491067388702	0.871584551316
0	22360	17691.940971803573	3.102067935253
0	22382	17698.74727155638	0.823330477886
0	22390	17703.057760775113	1.082701348513
0	22415	17713.886597320912	4.065555258021
0	22425	17718.039835708327	1.603879332047
0	22469	17742.963285186803	1.664872385755
0	22474	17744.080674896305	2.546426098173
0	22477	17745.250517201991	5.507151400763
0	22505	17774.944795135361	0.979015527386
0	22510	17778.70420824093	0.848035376053
0	22515	17786.907253019593	0.970059473161
0	22520	17789.657381737609	1.055965579022
0	22555	17816.727834471599	0.843237574585
0	22576	17820.610978522498	3.230992521438
0	22600	17828.982998250524	0.912727922424
0	22620	17836.688998741461	7.027221286043
0	22625	17841.430541409034	0.925670513511
0	22637	17850.867913046373	1.077456804179
0	22640	17851.841358743129	1.617508619287
0	22647	17853.999177395038	1.122258428019
0	22650	17854.815266157172	1.459290128823
0	22670	17869.566393196255	1.009825190809
0	22705	17896.783196471614	2.48739017491
0	22725	17902.14921713147	0.997577004414
0	22730	17904.344575347851	1.102858396526
0	22735	17908.233513031592	0.822806114983
0	22740	17919.012042298659	0.856287817378
0	22745	17924.28236825214	0.9774065556
0	22750	17931.879999775469	1.172187230643
0	22765	17936.396306497213	3.201466989367
0	22789	17946.513133437952	1.588222988805
0	22800	17950.619113980694	4.892855845779
0	22807	17953.481291412065	1.143828577083
0	22815	17956.894397270017	3.523163461592
0	22841	17963.27680752464	2.230280781289
0	22849	17965.170117733631	3.142194169385
0	22852	17966.339172492459	5.846008718776
0	22855	17967.386375940688	9.667972816011
0	22860	17971.273927363069	1.033928316552
0	22870	17973.977677542592	1.899837876531
0	22875	17975.311129109198	3.333987260744
0	22890	17991.889254910408	0.917116188351
0	22895	17994.404645669962	0.94319435209
0	22917	18009.165872836276	5.379746014458
0	22920	18010.277138932026	6.109198060696
0	22925	18023.188776711551	1.185793189052
0	22930	18025.047732464862	0.90538674267
0	22935	18027.573940837732	1.017140810564
0	22940	18039.327275441497	0.966438580863
0	22957	18046.804266431477	3.166327954154
0	22975	18057.82243351686	3.295841731157
0	22980	18063.93633587259	0.862152966112
0	22985	18070.963408525974	0.998525017686
0	23005	18077.018010162933	5.337933367516
0	23017	18094.69207975051	0.953435369674
0	23040	18105.496485001102	4.864623451875
0	23045	18107.918776267664	0.860173549689
0	23055	18117.106487575172	0.99987180708
0	23065	18119.698103639993	1.348394694027
0	23080	18134.830517642364	2.429427396948
0	23090	18145.137177193345	0.997762943059
0	23095	18147.514187385326	0.805828689598
0	23105	18157.787629659737	2.530991306446
0	23110	18172.395822063568	1.175801930483
0	23115	18177.309866929274	0.952586569171
0	23135	18193.807779539832	2.534210925679
0	23140	18199.209454092132	1.047187748458
0	23177	18224.725332212451	6.125927955631
0	23200	18241.87436729335	0.810844945628
0	23205	18282.843600774066	1.192267925106
0	23215	18292.424190192969	1.220423725443
0	23232	18295.924616111897	3.000026309397
0	23240	18298.938564836321	1.089581712335
0	23245	18301.965785764965	0.965440072492
0	23250	18317.823450282724	0.845099487621
0	23257	18327.59769858417	0.812093762029
0	23260	18328.430316967395	1.541829176696
0	23265	18337.802297851357	0.842756078299
0	23277	18341.809486071052	1.239772120105
0	23285	18344.429980165049	4.744449334563
0	23290	18354.810976215833	1.030683071818
0	23310	18371.425885461887	2.741549405696
0	23320	18376.338484085471	1.987410603769
0	23325	18385.085694893717	0.802647265047
0	23340	18392.523181673733	3.902583322693
0	23350	18401.230766768579	2.386702242747
0	23377	18429.51060211313	0.906220637355
0	23380	18430.402237354862	1.24598996174
0	23390	18434.260426912511	2.342254953394
0	23395	18441.120118898621	0.800138913002
0	23400	18443.560903568737	0.913888034225
0	23420	18457.394125176713	0.80260974206
0	23435	18470.677800622251	6.361591935677
0	23445	18475.234504822991	0.954339143634
0	23460	18488.778334709407	1.127318595815
0	23475	18508.623390543933	1.023006220069
0	23480	18511.808235505745	5.404296256082
0	23492	18518.257629569986	1.503072246804
0	23500	18520.449345337776	3.136346878198
0	23510	18523.138062194663	1.15205725655
0	23520	18533.868085498238	2.891384496792
0	23527	18542.956600733079	1.108888833318
0	23530	18543.771252092883	1.494666758059
0	23535	18549.674195576656	0.890773098078
0	23542	18552.614088897514	0.942035632115
0	23560	18559.088045486965	7.180793154442
0	23577	18563.98781123846	2.097109995985
0	23580	18565.0450839479	1.251238284015
0	23585	18569.144934692031	1.095137524605
0	23595	18574.107799502133	1.746710324167
0	23612	18582.052096117056	0.920987069327
0	23630	18589.280455029621	3.317174817463
0	23652	18594.735486564768	1.148107706669
0	23660	18597.089238795066	5.061806265601
0	23677	18615.872764831144	3.385876484402
0	23680	18617.055782838553	1.84094218389
0	23695	18622.068904871805	1.331548828832
0	23700	18623.569839451098	1.116428896599
0	23710	18646.221989551422	1.478816251364
0	23720	18659.893086648796	1.113511444815
0	23725	18662.191606916107	1.055032912176
0	23735	18666.465731845152	0.903884037863
0	23740	18681.176503500298	0.924452587217
0	23752	18697.450411370228	0.821721067559
0	23755	18698.464469125139	1.323621432603
0	23762	18700.01234168329	0.904789270088
0	23765	18700.886753907546	0.992190877474
0	23777	18711.408276083675	0.810564788897
0	23810	18762.884142926698	5.41404455276
0	23817	18765.272978949569	0.991283979174
0	23822	18766.341190748777	1.947387661724
0	23839	18769.300432933796	1.233973333457
0	23862	18781.317806022274	0.872511995398
0	23865	18782.140433934643	0.995002279659
0	23880	18792.408724539637	1.145954497531
0	23885	18797.181569701429	1.126527359337
0	23890	18799.468139633502	0.817351215333
0	23907	18818.709276411346	1.268529499066
0	23920	18823.260016222882	4.913510412941
0	23930	18832.031719103261	0.803731416259
0	23947	18839.804615880837	1.223071475751
0	23960	18844.128788237738	2.596204801558
0	23972	18858.034721818762	1.996914003619
0	23982	18860.008442841945	1.05165204988
0	23995	18864.167607865763	6.556542500427
0	24000	18880.453617418328	1.102519636229
0	24010	18886.023096972026	2.992663520933
0	24040	18900.670865092679	3.005054155718
0	24045	18918.605449061496	1.099163737707
0	24055	18933.859263140747	0.848882580362
0	24060	18940.550368356202	1.003868244216
0	24072	18946.878374858651	1.236934604348
0	24085	18952.838684564802	0.803479468264
0	24097	18961.239831363945	1.714157823179
0	24100	18962.193055142997	3.277182703278
0	24124	18999.818949733353	1.01100741839
0	24130	19001.959585992391	2.539803406287
0	24135	19003.044697981733	3.664602651174
0	24140	19011.057038247623	1.074525011331
0	24145	19016.285123488604	0.913417035155
0	24150	19017.297873650406	0.866269524023
0	24155	19018.91272465344	0.853673397284
0	24160	19023.394513972376	1.139830818307
0	24165	19030.067947667789	1.097945867479
0	24172	19046.199209629718	1.060987257957
0	24175	19047.048427346509	1.329947179154
0	24180	19057.180096180981	1.134316590801
0	24190	19063.445597482805	1.074752165936
0	24195	19067.451728020937	1.048690408003
0	24207	19070.540035556808	2.458834911065
0	24210	19071.558986517407	1.135448400873
0	24247	19114.599148251787	1.184127193224
0	24250	19115.569536768384	1.51610239224
0	24257	19119.791547717054	0.934987528622
0	24274	19123.460100299405	1.781832072391
0	24302	19132.176749336439	2.666209733207
0	24315	19136.817622226375	0.993012049329
0	24330	19150.509754563445	0.904464856908
0	24335	19161.584170875746	0.930315880105
0	24371	19170.151491665644	0.976051916341
0	24374	19171.015725055606	5.025638085574
0	24385	19176.336725793614	1.026399566885
0	24390	19177.589275351816	1.095032964461
0	24395	19180.021030687346	1.114434444904
0	24427	19190.437858181589	1.369703255173
0	24445	19202.296525287861	14.863137498648
0	24452	19203.897509591006	1.039020242356
0	24465	19210.26424492201	2.001836474386
0	24492	19226.304421947047	3.141834599686
0	24495	19227.498046057939	3.286160266027
0	24505	19237.40866483358	3.429981627407
0	24520	19245.468564368648	1.073075647838
0	24532	19248.783786874878	3.261837880504
0	24540	19260.50473777526	0.954627048317
0	24552	19263.467778430561	2.771829763011
0	24555	19264.332899152914	1.542558607706
0	24560	19266.928629140128	1.191382936947
0	24581	19285.625856887112	1.733405954479
0	24584	19286.81209175515	2.060636485208
0	24587	19287.89588390396	2.312616872265
0	24602	19292.016467895043	0.82233673241
0	24622	19297.898797252491	5.15895799389
0	24627	19298.883156585969	1.513176313687
0	24640	19302.779084522814	1.13774799807
0	24660	19310.901222617906	0.914335097559
0	24665	19315.715989219126	0.946359409485
0	24670	19319.5411934778	1.183949688263
0	24675	19324.216306392861	1.004190599732
0	24717	19354.154228344349	1.089446648943
0	24720	19355.048679275041	3.553142703403
0	24740	19366.699834510375	0.921617350075
0	24745	19374.111830253543	1.120781179611
0	24757	19386.286573804769	1.505946714475
0	24760	19387.13083576415	2.634156275447
0	24772	19400.992397262017	0.921231472399
0	24780	19402.723724663211	1.593991839222
0	24790	19405.5978673026	0.995123976097
0	24800	19411.606662155685	0.812148025911
0	24812	19414.51747078224	1.901497785417
0	24820	19416.836122972491	4.418542647158
0	24837	19421.384636203738	1.981053440959
0	24850	19424.423521513378	3.206029411557
0	24855	19425.60568662982	4.063295953379
0	24860	19427.935492828592	0.92865615543
0	24870	19439.131534911961	2.301122991206
0	24884	19455.020878618084	1.519994635741
0	24887	19455.929207271304	2.048559798317
0	24900	19464.299394340981	1.096589476056
0	24915	19482.948816841134	1.12568303505
0	24960	19523.524093332871	0.813851195388
0	24965	19535.363418985079	1.178256880958
0	24970	19537.289601382263	0.950720958598
0	24980	19547.061349233822	0.865714023355
0	24990	19553.025035623014	1.177569651883
0	25005	19562.72885710248	2.662800631483
0	25010	19564.319669289543	1.021018436924
0	25015	19572.894747515874	1.092907877546
0	25025	19578.595503746782	1.171126739401
0	25035	19582.873639251306	2.156507514719
0	25045	19606.544212268459	1.060044930317
0	25060	19628.318031672829	1.17473802343
0	25065	19632.768487288484	1.133627540059
0	25097	19643.744536248986	4.249071043899
0	25100	19644.809629915208	5.608878291081
0	25105	19648.94646958771	1.11039065253
0	25115	19653.907558949586	1.131910784039
0	25127	19657.105559786556	1.782352388624
0	25140	19686.029177857725	1.063385595195
0	25152	19689.664589872202	1.19139174432
0	25160	19691.616164727407	1.26035593007
0	25165	19701.226259670457	1.151067952998
0	25170	19706.545741182384	0.923515030835
0	25185	19722.018866911186	4.973600622156
0	25190	19727.698398615153	0.938334400952
0	25200	19740.954500371258	1.100102400873
0	25207	19744.845998282213	0.808723251708
0	25215	19746.779067323585	1.088690796026
0	25230	19771.722126612905	0.909542328492
0	25240	19776.349345540874	0.999410343356
0	25245	19782.241545380804	0.864718522131
0	25250	19791.197288090089	0.805196148064
0	25255	19801.75239568528	1.054554830957
0	25262	19810.055486917942	1.172361935955
0	25265	19810.870651098694	1.355182157432
0	25275	19816.582950165009	0.954610746935
0	25285	19827.435739614511	1.093790566083
0	25302	19845.434566438871	1.895732363969
0	25305	19846.500919243156	3.062348203175
0	25320	19854.483109136268	1.040267100092
0	25330	19869.173047847582	2.414632080978
0	25337	19875.302102845055	0.952455108892
0	25345	19883.732259507561	1.157803962845
0	25350	19886.830179634335	1.142660518177
0	25355	19889.127775964903	0.973253550567
0	25360	19896.086789067672	1.116275420226
0	25370	19911.692249074926	1.060211091861
0	25375	19915.843595696235	0.959587331302
0	25400	19942.926685899282	3.073184748826
0	25429	19972.829778216637	1.669286933629
0	25437	19974.832542917083	5.483206492987
0	25440	19975.863713363416	4.478221238305
0	25449	19979.178679643159	1.160949473549
0	25452	19980.285126162932	1.73900985331
0	25475	19990.595622296776	1.176913519576
0	25480	20005.883116967859	1.164339004084
0	25485	20007.431726896852	1.118121472839
0	25497	20011.732474076787	1.114000936227
0	25502	20012.772896259317	3.028267592657
0	25520	20030.680914595375	0.863555470947
0	25537	20036.251170219446	1.084864263702
0	25540	20037.104838883097	4.462480582741
0	25550	20041.12594272232	0.980527588446
0	25560	20046.162963945585	1.083102647792
0	25570	20055.731811607598	3.906821364546
0	25575	20056.9761997473	1.183470125403
0	25585	20080.162393766864	0.810411997791
0	25590	20084.631568794473	1.091352913063
0	25597	20096.726764156249	0.845539858751
0	25600	20097.61870902893	1.140264800471
0	25610	20114.526698032788	1.166366887186
0	25620	20144.15825274637	0.976927027479
0	25625	20145.406430880202	1.18305391334
0	25632	20151.517460392263	0.899435467552
0	25637	20152.391662571334	1.731054157508
0	25645	20154.032750454831	1.870369824833
0	25655	20170.814029027636	1.096281933784
0	25662	20176.840347727402	0.852156507317
0	25674	20178.74366325824	0.849180653132
0	25677	20179.605324845802	3.076825585964
0	25690	20184.562664003383	6.250799878501
0	25742	20219.505428376873	1.685831121301
0	25745	20220.376165500083	1.127729847254
0	25750	20223.773729540739	0.862963583972
0	25755	20235.366973539849	1.097345395293
0	25765	20254.186818754512	3.493114447353
0	25770	20257.774487062964	0.978680030257
0	25775	20258.968694824824	1.141753063444
0	25780	20260.453214064923	1.193703487888
0	25785	20268.922501094183	0.819779734686
0	25795	20275.976649197384	0.8502805572
0	25805	20288.871529304883	1.468031962521
0	25810	20291.650697699991	0.812335258722
0	25815	20308.563028527505	1.184326129127
0	25820	20324.942721019212	1.039519553166
0	25827	20327.433940239937	0.959300848097
0	25830	20328.459236381796	1.804715194879
0	25847	20335.320980027226	0.877778226323
0	25862	20343.00748711729	2.134302244384
0	25865	20344.071664383612	1.887991224648
0	25880	20380.291809000278	1.156403557397
0	25890	20388.583060383263	1.217386557361
0	25904	20392.528862589454	5.858454414661
0	25912	20394.644084913513	4.160135612079
0	25940	20408.124027348032	2.638526908355
0	25945	20415.591469085602	1.08492015712
0	25950	20425.849621060215	0.938691943884
0	25960	20430.774529730988	1.122256197967
0	25979	20442.119014756707	1.4540376874
0	25995	20455.982804784961	1.340477266879
0	26000	20461.410272430329	0.948159263935
0	26010	20465.712938429453	1.160249250568
0	26037	20479.414242917854	4.076434962863
0	26047	20481.263369754419	1.801887890646
0	26060	20492.704506842883	1.1505215724
0	26077	20505.952056104745	1.186949946638
0	26087	20507.840014720856	1.847238713458
0	26090	20508.691555698923	1.751538179734
0	26100	20520.092629667259	0.918961377628
0	26110	20527.258724404402	1.136796917673
0	26117	20533.462237595537	0.815767954662
0	26125	20536.083474346997	2.750769359041
0	26140	20568.882730679965	0.924776312709
0	26174	20581.195087494963	4.824675557088
0	26185	20584.545262306352	1.689895823527
0	26197	20591.678348859355	1.165129809268
0	26200	20592.764067053192	1.167518911085
0	26215	20601.764833482924	1.39353073285
0	26220	20602.958153657501	5.633335504262
0	26225	20607.678440244229	1.144758857321
0	26230	20630.011701973018	0.865308307577
0	26237	20631.37561939784	1.012310003582
0	26245	20635.826224124447	0.911204859056
0	26257	20641.348869476036	0.833712214977
0	26267	20643.716272452774	0.813191196136
0	26270	20644.811451976581	1.502983013066
0	26282	20651.222390558058	2.375484069989
0	26290	20655.505842920981	1.120694920607
0	26302	20663.500363937573	1.019872895628
0	26305	20664.430163921969	3.903940953115
0	26325	20672.917225852606	7.467922458342
0	26335	20674.968191815462	1.969237448391
0	26340	20680.360859210846	1.018304479867
0	26352	20683.083133037541	2.125837017069
0	26390	20707.207705934776	11.849352445595
0	26395	20711.508973183524	0.865192863997
0	26400	20715.61891600133	1.006805459037
0	26415	20721.032918880999	1.18273101164
0	26420	20722.542757182549	1.181512984354
0	26445	20738.628924851147	0.961823352054
0	26457	20744.68733335577	1.738051167594
0	26467	20746.672801051122	1.418673562449
0	26475	20752.161994474544	0.820512992702
0	26490	20765.540458199686	1.730684516957
0	26500	20770.610778998433	3.594480099217
0	26522	20775.334996080534	3.477107135265
0	26537	20781.695477346991	1.974755045611
0	26545	20783.808288765952	1.023619652539
0	26550	20785.106482607892	1.077677538618
0	26555	20797.447107321396	0.978261392377
0	26572	20813.264503703301	3.47897910207
0	26575	20814.340921487042	1.327367314444
0	26599	20846.320428776658	1.092173554376
0	26602	20847.419593286245	1.92571856028
0	26610	20849.210434115409	1.175241248826
0	26630	20876.042704556407	1.145870305505
0	26635	20884.76957968289	0.894825505931
0	26640	20886.305804946472	1.009276697971
0	26645	20889.213744449641	0.882547991164
0	26655	20893.728931931808	1.960915835611
0	26664	20896.695348075435	1.060535466857
0	26667	20897.75774273894	1.751462196281
0	26670	20898.943330259092	2.921780298068
0	26675	20906.303066506688	0.804467349779
0	26682	20909.832387493761	0.864603866078
0	26685	20910.738731121668	1.651949457681
0	26695	20915.272293796768	1.120321834274
0	26707	20923.122494330744	1.038954839017
0	26712	20924.007359329167	1.422485200108
0	26715	20924.894323241453	0.908472221807
0	26725	20932.51497720765	2.292206208126
0	26730	20935.700585475002	1.104493163712
0	26740	20951.92401812433	0.806275074743
0	26745	20959.564849930512	1.116318311635
0	26785	20987.750960674585	1.102854223084
0	26790	21002.905572048944	0.984520271048
0	26802	21011.078642413527	3.261979741333
0	26807	21012.258549456991	1.190365300828
0	26822	21015.394704980897	0.896333104186
0	26825	21016.551418008963	1.972376192353
0	26830	21021.283232219438	0.881736798026
0	26835	21023.26013561074	0.859713297244
0	26840	21027.364179999633	0.979628062341
0	26870	21042.887700149133	7.513580901279
0	26887	21048.155492845178	1.139782434516
0	26912	21061.39112003505	3.588078576783
0	26925	21067.990877663471	0.910350483563
0	26942	21079.688070847256	0.883636130858
0	26950	21081.529683620187	4.074781398387
0	26960	21098.809026214914	1.136424582265
0	26965	21100.29049832079	0.957916233316
0	26980	21110.177150850559	1.89963858474
0	26985	21120.263403941617	1.197985195927
0	26990	21137.971394669567	1.009533458948
0	26995	21152.660894545367	0.919738028571
0	27005	21158.713980566885	1.166690985952
0	27020	21164.072218632866	1.844925838334
0	27032	21177.976720158686	1.15404961668
0	27035	21179.04087982059	1.283114543787
0	27045	21186.572980640148	4.796119190493
0	27060	21200.555773075403	1.068129384626
0	27065	21206.689289785284	1.084040359501
0	27070	21208.835626183522	1.041322288755
0	27080	21220.839935054888	1.16338013811
0	27085	21228.313951593929	0.858894443978
0	27102	21233.601391418391	2.218407497177
0	27105	21234.461250652486	1.256901687931
0	27122	21240.382601274867	0.916445032973
0	27134	21242.361447241661	0.874875572896
0	27137	21243.227468171847	1.657993340877
0	27149	21245.455307379962	1.595255906141
0	27170	21251.55731974349	7.326462996952
0	27180	21256.630280641537	2.741200673735
0	27185	21258.409218457611	1.176966129057
0	27192	21260.869109848645	1.113327778038
0	27205	21263.870112492927	3.623349043014
0	27215	21280.600443891519	1.128202102985
0	27239	21290.70732860466	4.323538142709
0	27242	21291.579668021328	1.075323625248
0	27255	21301.246039221629	1.026302611921
0	27265	21309.157527143339	1.059897138334
0	27275	21314.548145894144	1.614684601161
0	27285	21321.55742629058	0.926473940536
0	27290	21324.361270663556	1.145102328435
0	27295	21346.349072352694	1.068724625651
0	27300	21353.985161970307	0.943362742476
0	27325	21371.861304889317	1.599522644717
0	27335	21381.448008375191	1.081738541555
0	27340	21390.782758460614	1.196915297117
0	27362	21407.267113601595	1.084782005567
0	27372	21412.998800941907	0.844731772877
0	27400	21437.977457311621	1.497156612733
0	27407	21445.586869726932	1.118619200308
0	27410	21446.451961850604	1.466793056528
0	27420	21449.121694130763	2.273571365081
0	27430	21455.925802092953	1.142548306711
0	27440	21460.202531010919	1.728821963578
0	27450	21480.015369280006	1.156230798457
0	27467	21483.907621646271	0.86029810477
0	27480	21487.481041487336	5.358602620405
0	27490	21492.041444747205	1.101109614782
0	27495	21496.238441969513	0.837270256411
0	27500	21499.832340425313	1.091094100382
0	27510	21503.976712366454	1.009412984457
0	27540	21523.456209938572	4.740426054176
0	27554	21529.672690369921	0.935686431732
0	27559	21530.869285936175	1.4106660315
0	27575	21547.062195221175	0.97901416393
0	27580	21556.284489483899	1.112820329051
0	27587	21558.362421096714	0.876387876179
0	27590	21559.48790415548	1.937525462763
0	27600	21563.487979431996	2.925400553658
0	27605	21565.626087483153	0.840886585973
0	27647	21589.644304734878	1.066142254602
0	27650	21590.829486258551	2.075544338839
0	27657	21593.470397912561	1.19576385757
0	27662	21594.500215313154	2.116501945753
0	27670	21598.438216094501	0.851483936701
0	27675	21605.121238807681	1.063009331282
0	27690	21636.005263405035	0.909873213805
0	27705	21655.574110095942	0.814129481744
0	27710	21657.319827347778	0.920149720553
0	27720	21670.877786660245	0.963033821713
0	27725	21680.781194694729	0.864397178777
0	27730	21683.697069897304	1.174720000755
0	27737	21687.265150769473	0.885363735911
0	27760	21712.450329168108	1.118158263247
0	27795	21757.093833118742	1.195941901766
0	27805	21777.622018604423	0.945223356504
0	27822	21782.276810571575	1.633312339516
0	27837	21793.088235180197	1.120083640236
0	27862	21803.530629968421	4.51052170003
0	27885	21815.501331895495	3.11261250088
0	27892	21825.330400607956	0.832263803389
0	27897	21826.166234696132	1.188251233413
0	27905	21832.019088275013	1.099591719639
0	27925	21856.612460868447	3.511592430981
0	27930	21860.901657325332	1.103651305102
0	27940	21869.732655717168	1.117393939756
0	27945	21877.956155323374	0.928436096013
0	27952	21889.544839223908	1.005547215696
0	27955	21890.59800607205	1.07931789829
0	27960	21895.140842494316	0.956373191811
0	27970	21913.359470022125	1.097827178426
0	27995	21935.038199189911	0.973283661529
0	28002	21936.375131856791	1.10214664191
0	28012	21939.266852406961	3.827840946092
0	28017	21940.383192073451	1.866448688222
0	28020	21941.3015844684	1.342838969976
0	28025	21947.626052968404	0.813725985494
0	28042	21958.746637691505	0.986932906415
0	28045	21959.593278976198	3.228100525008
0	28060	21972.252573429145	2.445509403296
0	28080	21998.876823055317	4.514094529031
0	28085	22004.617793618653	0.871294615138
0	28090	22011.696951687471	1.051993476413
0	28115	22039.909476347826	1.093632843345
0	28120	22065.261600208189	1.054071580619
0	28125	22070.695285823912	1.050092446525
0	28135	22076.220742261316	1.199168953672
0	28150	22089.130434852115	3.821742983547
0	28159	22090.777236527824	1.134039499797
0	28164	22091.686610757248	1.426337353365
0	28167	22092.785614016527	1.572326603928
0	28175	22096.991647846195	1.063163878117
0	28180	22108.138509692289	1.190634196438
0	28200	22120.134025975491	3.097572062465
0	28210	22132.341044569794	1.15735363327
0	28220	22147.698434196916	0.816078507807
0	28225	22150.367296732164	0.876535158884
0	28230	22155.863171901165	1.040149040986
0	28235	22157.014353991682	0.921518337633
0	28240	22165.805905768011	1.07367539946
0	28245	22174.85017718784	0.935709119495
0	28250	22184.056625531335	0.911844041571
0	28280	22194.7247264233	4.869007478125
0	28285	22195.747447519233	1.004279644322
0	28295	22204.139580936401	2.926260610352
0	28307	22208.711417407776	1.713599546522
0	28310	22209.660301579862	3.207219032199
0	28315	22211.087696403437	0.938607680146
0	28347	22222.438213003184	7.687259068713
0	28360	22233.05797328898	2.480813046171
0	28375	22237.396043325221	3.015573089265
0	28380	22240.784433776922	0.955303415935
0	28387	22243.866665520051	1.078821870219
0	28405	22255.86208785806	1.997019420664
0	28415	22266.283277848091	0.953372913972
0	28425	22279.513958824001	1.005317077879
0	28437	22282.013399584241	1.768823183819
0	28457	22287.204684622945	0.982231646497
0	28465	22290.131691477323	3.788540040607
0	28474	22291.48488310697	0.984289402422
0	28477	22292.646810215437	1.944111295466
0	28480	22293.745726380875	2.823618240744
0	28495	22301.284157550257	0.825508290157
0	28504	22304.288234367819	1.183452357259
0	28507	22305.447324200293	1.566632176241
0	28550	22323.083637429296	0.82831799835
0	28575	22332.369082920838	8.60451814362
0	28582	22337.594825823086	1.128780887462
0	28600	22344.819791483376	1.050291487016
0	28605	22346.151225822931	1.121025655791
0	28610	22356.609940525888	0.945995694306
0	28620	22361.166221977042	1.266551392566
0	28632	22364.453821017595	1.153007913173
0	28645	22375.201579352307	1.169601907115
0	28675	22393.860686184354	1.352209498844
0	28680	22398.094800549091	0.978830441646
0	28690	22408.278534893752	0.949362776894
0	28695	22413.7645862655	1.004227531608
0	28700	22421.062271865893	1.18763350267
0	28710	22425.394023026937	2.920387078268
0	28715	22426.961376832162	1.144515079912
0	28720	22436.40996960101	0.890119274706
0	28725	22441.125579282155	1.149595527817
0	28730	22445.528298812642	1.02426237138
0	28735	22450.400130138486	1.110003086366
0	28740	22456.098903635276	0.906101645716
0	28750	22480.062542720762	1.12624816075
0	28777	22504.101277864147	1.656952960602
0	28785	22513.949849627888	1.169807643257
0	28797	22533.470766227582	1.647860012205
0	28802	22534.534401867894	3.202533911168
0	28805	22535.343617148214	1.499749729103
0	28812	22540.198498446773	0.932335332036
0	28815	22541.012453390192	0.982871795885
0	28820	22543.728841063675	1.005471395236
0	28825	22551.723757456776	0.997459413018
0	28840	22557.902501072966	3.006856022402
0	28845	22568.685464043289	0.861983639374
0	28850	22571.220968028703	0.819638509676
0	28857	22578.74594537554	1.141059476044
0	28860	22579.612969792948	1.30515599369
0	28885	22595.445911581866	3.773499895475
0	28892	22613.746927379081	1.050138490088
0	28900	22616.63163103684	1.019999942277
0	28905	22621.989105834858	1.093430694751
0	28930	22644.110611191273	4.511744206321
0	28935	22649.738936280311	0.975993307121
0	28947	22659.030626564573	1.037261299416
0	28954	22659.917565862748	1.457166896359
0	28959	22661.032187107305	1.873192772644
0	28962	22661.932977192483	2.241386430509
0	28970	22664.010087397329	1.363534648865
0	28975	22665.015478825533	4.342224066772
0	28980	22678.430156339621	0.804706737585
0	28990	22687.604660423417	0.870458348654
0	29000	22692.549508240471	1.089320277795
0	29007	22696.500961352017	1.111392086931
0	29015	22702.430093851853	1.188233266771
0	29020	22707.377061682737	1.182004165463
0	29025	22710.319731435753	1.093892351259
0	29030	22729.338690146591	0.855319822207
0	29040	22738.0169751888	0.816932370141
0	29045	22745.861479203092	1.15170068806
0	29055	22751.897210833273	3.207656126839
0	29060	22754.400834910055	0.831032368448
0	29065	22760.226894051846	1.072236748599
0	29075	22765.320333809064	2.173874974605
0	29085	22769.896369234733	2.207992475414
0	29090	22778.347448424355	0.916480182018
0	29105	22785.75307879908	1.113213043303
0	29117	22787.825812557469	3.914431204366
0	29150	22795.794581598949	7.916362826625
0	29165	22813.783898505755	1.132185142301
0	29185	22834.732063508956	1.137276736647
0	29197	22845.454695162036	1.015207319893
0	29209	22847.55004335842	1.421777903624
0	29212	22848.364773757336	1.317975425599
0	29215	22849.502328987931	2.029455656318
0	29225	22856.569892483741	0.877733145654
0	29230	22870.848909885804	0.962089418713
0	29245	22879.238576277386	2.982682131602
0	29250	22885.691528252378	0.899403388239
0	29255	22889.424812688767	0.809349306114
0	29265	22906.69278737421	1.066602072306
0	29280	22927.756987662168	3.799171452343
0	29310	22949.067993691292	4.5932937169
0	29337	22958.253386088553	0.855065285323
0	29340	22959.207511636893	3.313348554362
0	29345	22961.944958244102	1.010214225203
0	29355	22966.351017184276	0.834541911446
0	29370	22977.376929428864	5.927191577291
0	29375	22982.311328905799	1.195775127877
0	29385	22987.269316985276	0.840448596515
0	29390	22998.363090786158	0.982431710791
0	29395	23007.630570482816	1.023239051644
0	29400	23018.117263547027	0.857913147192
0	29410	23020.568253310742	2.293994733639
0	29440	23028.068609188054	1.411191592063
0	29443	23029.042632645857	1.969570954892
0	29446	23029.870940150343	2.336007434848
0	29475	23043.533883967134	6.457355016259
0	29485	23065.082206784991	1.076472987235
0	29497	23068.048732666376	1.132788547035
0	29510	23076.560080583686	1.063475808967
0	29522	23078.90499086097	1.054567950126
0	29527	23079.904259502945	1.867968255479
0	29530	23080.866567100828	6.766316111063
0	29545	23119.81944276674	0.87914224891
0	29560	23132.087719612658	1.027314545214
0	29572	23138.895447523483	4.394295392366
0	29595	23154.628556550726	4.339308703682
0	29600	23156.421485020514	1.160269394238
0	29605	23164.471467771987	1.179638839141
0	29616	23167.443249925521	1.007481793873
0	29619	23168.569760410503	2.047771959789
0	29622	23169.692988158592	3.145705681992
0	29625	23170.54884521404	3.707456776515
0	29635	23177.349974881721	0.876725294627
0	29647	23185.10178099293	0.933765916992
0	29650	23186.093249426966	3.323823176434
0	29655	23217.137435421043	0.855990461539
0	29672	23251.314063809992	0.879521784838
0	29675	23252.474869667546	1.273057144918
0	29682	23259.908918802004	0.827563662734
0	29695	23279.702551793688	0.920680046454
0	29700	23280.773455525499	1.067163976654
0	29710	23287.268795305622	0.950291341264
0	29715	23288.769996301122	1.058470434602
0	29725	23292.249054329447	2.727236972941
0	29740	23314.723961790034	0.853747635521
0	29750	23317.239309475434	1.631391228132
0	29755	23318.380676472522	0.901842888817
0	29760	23325.21257815557	0.914994170144
0	29790	23340.202406971098	1.353754709627
0	29795	23343.097034610628	1.058419915475
0	29800	23345.272339015668	0.838742604386
0	29805	23357.454337552678	0.9844891035
0	29810	23358.763208854285	1.093591750506
0	29820	23370.739176414999	2.255875885289
0	29825	23373.796223662489	0.873807805032
0	29832	23378.182530135347	0.860714508221
0	29835	23379.112711860484	1.293459897419
0	29850	23396.438051948554	1.128645421751
0	29877	23408.922661251922	7.246108855229
0	29887	23413.087869026699	1.004350767564
0	29895	23418.684841902223	1.199230579659
0	29910	23423.769633649204	1.105474613421
0	29917	23424.659393430454	0.889508878533
0	29920	23425.569135714834	1.341809890034
0	29927	23436.956862713529	0.92608139459
0	29937	23439.019926705996	1.587526060905
0	29945	23444.724264591939	0.972869133763
0	29950	23464.301623817282	0.876955830399
0	29959	23468.017940297897	0.91247383086
0	29962	23469.068022420432	1.734983091241
0	30010	23503.640431285422	1.033773794025
0	30045	23515.17122583393	2.433008162753
0	30050	23517.665983569016	1.050301436149
0	30055	23521.543602654969	0.8261821636
0	30060	23525.307323519522	0.979606567416
0	30075	23536.251581884699	3.343833261995
0	30105	23567.357976824332	3.081990493462
0	30110	23570.898229192649	0.956281735562
0	30124	23586.249525525331	2.841460691226
0	30140	23600.538978117466	1.112189059053
0	30147	23608.633789091922	1.039620012697
0	30150	23609.543934198461	1.749101387263
0	30165	23622.279302043223	0.85081220232
0	30180	23632.612452899992	0.988073363472
0	30185	23637.216959097045	1.07058252655
0	30210	23651.357874527295	5.644402954432
0	30222	23663.086230788127	1.122528724652
0	30225	23664.144433061991	1.699958278734
0	30232	23668.589961375816	0.991584495828
0	30235	23669.684030784628	1.409717775065
0	30240	23675.253994894096	0.952856641915
0	30260	23691.719609103788	1.187066228129
0	30272	23717.709681180675	1.062533029821
0	30275	23718.539360823293	1.005722922678
0	30282	23722.267626130324	1.001159231737
0	30285	23723.370550392591	1.640390729258
0	30315	23749.33159456097	2.403036144914
0	30320	23752.274329164656	0.873224224616
0	30330	23755.514591846093	2.656831089168
0	30342	23764.132044802329	4.559770460504
0	30365	23778.36281559241	3.472586684517
0	30372	23788.072233554366	1.087796436157
0	30375	23789.119069783221	1.745249684638
0	30385	23796.851454425846	1.069791086297
0	30390	23806.460957128652	1.048919297289
0	30415	23826.330652388258	1.103990883753
0	30425	23830.042343645768	1.892884486289
0	30435	23832.722217173863	1.065513498243
0	30440	23840.62842108794	0.96859278474
0	30450	23855.899294903078	2.312301022975
0	30470	23875.548784719688	0.974752266612
0	30487	23882.927155889714	3.83650144499
0	30490	23884.003520541875	3.241992113274
0	30502	23898.598387693718	0.964762313362
0	30510	23900.742162576049	1.837572890837
0	30520	23905.509948745833	0.875878481753
0	30530	23909.823098157928	0.927349084988
0	30537	23923.264968389516	1.191268721409
0	30542	23924.319752180633	1.395171754933
0	30545	23925.355052026418	1.571635378123
0	30555	23933.455357504307	0.995531495847
0	30560	23934.542135574519	4.890691039407
0	30565	23938.280546651102	1.015776670258
0	30570	23941.380301916127	0.957416552398
0	30575	23947.663301111193	0.898453442473
0	30590	23959.455960436276	1.00000623567
0	30610	23988.119986615595	4.022921830074
0	30615	23990.833865150405	1.04169288408
0	30622	23995.696179159796	11.629381543012
0	30642	24026.725756006275	1.0074916685
0	30650	24028.872967280214	2.344587239581
0	30665	24036.286713543683	2.060133020632
0	30670	24037.866499441985	3.687133566544
0	30675	24046.180264873454	0.856025007088
0	30685	24050.375610412761	2.365415650852
0	30690	24051.458436563429	0.944815116283
0	30695	24072.507987723415	0.911162119173
0	30702	24073.659394751293	1.071555501502
0	30734	24090.365146692314	4.407579777297
0	30737	24091.189683305596	1.915500683681
0	30745	24094.639202007172	4.765790399272
0	30750	24097.144692843263	0.929137978144
0	30760	24108.575352543698	0.958125423919
0	30775	24112.609552792684	2.553225506457
0	30780	24116.046960893611	1.061978549697
0	30785	24120.576432875993	0.967232702952
0	30807	24132.358912382934	1.254750075915
0	30830	24148.039216830946	0.80236290358
0	30852	24166.004363827432	6.448370804733
0	30860	24169.17685150842	0.98702917546
0	30872	24177.738167779847	1.076813697238
0	30875	24178.740264689784	2.921282561869
0	30880	24194.283524902478	1.170586490165
0	30885	24196.377380925343	1.017460654676
0	30895	24203.912826014273	2.971368282154
0	30945	24246.696506822298	0.953289035708
0	30952	24250.05710714564	1.187054862361
0	30955	24250.940542909338	1.325989259652
0	30960	24255.805835674797	1.134027303569
0	30985	24282.006619502821	1.008378415927
0	30990	24284.666184239053	0.808198318072
0	30995	24293.225416289757	1.180503270775
0	31010	24303.930798300406	4.052928994899
0	31020	24312.600779572786	2.391578020595
0	31025	24314.431226846932	1.04135115752
0	31035	24321.09181028787	1.023678405238
0	31045	24330.552528127187	0.91576350946
0	31055	24335.59414055823	1.538102724176
0	31116	24362.428483216976	2.717353419732
0	31119	24363.375279715517	4.062773914145
0	31122	24364.571864747302	3.150211594039
0	31125	24365.58114016666	3.408570433812
0	31135	24368.163264205586	1.362011318682
0	31147	24374.146240109631	1.603546029801
0	31152	24375.04511591844	2.897916258685
0	31162	24377.261355418362	2.589331464601
0	31209	24409.765065564408	1.447432767933
0	31214	24410.883551322023	1.789516304843
0	31225	24414.179139993811	3.520209608946
0	31230	24420.758207165908	0.879670409672
0	31235	24429.123607275757	0.827752692159
0	31242	24433.966929614644	1.005031921994
0	31245	24435.030279261253	1.799589443721
0	31255	24439.028576882915	2.442581683677
0	31267	24443.829998768535	0.84326926237
0	31270	24444.903044666484	1.761520721513
0	31275	24446.269582019679	1.154568509199
0	31310	24457.36617732705	8.803902333896
0	31329	24463.830760081711	1.976290270614
0	31340	24466.477775661594	6.529022410399
0	31355	24471.153569570583	3.913129161447
0	31360	24476.716692152769	1.08522192305
0	31372	24483.147788666574	1.031042370107
0	31391	24486.971945474958	1.578276992566
0	31394	24487.830755635453	2.261317302201
0	31397	24488.89487980484	2.901421447027
0	31415	24514.089657761836	3.508211545852
0	31422	24530.223671877037	0.873352344148
0	31425	24531.120233109339	1.481204406501
0	31430	24551.63829997884	1.06071070917
0	31437	24554.889956065124	1.171298806649
0	31447	24556.988328936832	1.256361750692
0	31450	24558.040656524194	3.465596530334
0	31460	24563.204327411166	0.837996243685
0	31475	24588.630971569836	1.189249659888
0	31484	24589.850012865735	1.051029537991
0	31496	24592.004192712975	1.119513850954
0	31499	24593.121113075481	1.764198439691
0	31502	24594.031591597644	4.617109125228
0	31519	24607.069880667811	3.366771727177
0	31529	24609.044539233314	1.720078929405
0	31532	24610.041701005323	2.104971769393
0	31545	24623.137607942305	1.03748734463
0	31562	24632.051343384798	2.876431272552
0	31577	24642.817409063678	1.196344126668
0	31592	24650.312403483109	1.676394260625
0	31595	24651.147440246658	2.303832209679
0	31602	24653.106250006231	1.174074382242
0	31605	24654.262323170426	1.920453420197
0	31610	24667.851733452855	0.890677937586
0	31615	24670.95157606499	0.9819355404
0	31639	24677.424369381048	3.381327127571
0	31642	24678.624260203034	2.897757743716
0	31660	24687.010882181192	1.161465253402
0	31680	24698.164132912658	2.691125665961
0	31700	24707.186821054688	2.763268482628
0	31707	24720.366498214194	0.841093724687
0	31710	24721.271754539014	1.583982745124
0	31725	24736.836382900866	3.037849834773
0	31735	24744.305916372994	3.681350333094
0	31740	24747.781936992912	1.017882618494
0	31745	24752.54742870687	0.937825056631
0	31750	24755.028103457091	1.024584176484
0	31777	24776.055049276902	0.950267103501
0	31782	24777.040845297082	3.771668235662
0	31785	24777.911512554428	0.924016080012
0	31795	24788.135299095159	1.127543666493
0	31805	24801.153994735341	1.181596418004
0	31810	24803.929537280074	1.180150280893
0	31825	24819.6666691372	0.93531218851
0	31835	24822.320493671023	1.84587387784
0	31845	24831.908822501514	0.858060503579
0	31855	24834.662822762039	1.098676131976
0	31890	24866.058555469143	0.905548484996
0	31895	24875.660276517046	1.185107694194
0	31900	24879.928390459346	1.043545082398
0	31905	24882.316790426185	0.994081844855
0	31910	24884.787956490477	1.103699981142
0	31922	24890.734620835894	1.080057423003
0	31925	24891.904832977412	1.647821391353
0	31940	24913.651960221436	1.12740179738
0	31945	24918.555171755302	1.03063527476
[...]
7	28015	21939.958745498424	1
7	28016	21940.383192073451	0
7	28040	21957.867103221541	1
7	28041	21958.746637691505	0
7	28157	22090.260273403883	1
7	28158	22090.777236527824	0
7	28162	22091.213287412599	1
7	28163	22091.686610757248	0
7	28265	22189.855718945175	1
7	28266	22190.196330517694	0
7	28300	22206.997817861254	1
7	28301	22207.553875860805	0
7	28305	22208.219365814924	1
7	28306	22208.711417407776	0
7	28320	22214.750953934471	1
7	28321	22215.022015387348	0
7	28365	22234.380470235956	1
7	28366	22235.017090795538	0
7	28430	22280.244576400422	1
7	28433	22281.100358731136	0
7	28455	22286.343151436716	1
7	28456	22287.204684622945	0
7	28470	22290.702698919971	1
7	28472	22290.922108140131	2
7	28473	22291.48488310697	1
7	28476	22292.646810215437	0
7	28500	22303.880692024052	1
7	28503	22304.288234367819	0
7	28570	22330.133841373277	1
7	28571	22331.243680271067	0
7	28615	22359.899670584476	1
7	28616	22360.180271543393	0
7	28625	22363.300813104422	1
7	28626	22363.59964914648	0
7	28670	22392.50847668551	1
7	28671	22392.820006344914	0
7	28770	22502.444324903545	1
7	28771	22503.032921982631	0
7	28790	22531.822906215377	1
7	28791	22532.523343500385	0
7	28795	22532.53411902275	1
7	28796	22533.470766227582	0
7	28800	22533.843867419111	1
7	28801	22534.534401867894	0
7	28810	22540.029581594307	1
7	28811	22540.198498446773	0
7	28835	22556.088296964426	1
7	28836	22557.024016730253	0
7	28855	22578.307813799258	1
7	28856	22578.74594537554	0
7	28870	22591.672411686391	1
7	28871	22592.638762486126	0
7	28880	22593.698133640911	1
7	28881	22594.522524931147	0
7	28945	22658.460398966389	1
7	28946	22659.030626564573	0
7	28950	22659.158994334661	1
7	28952	22659.691590761974	2
7	28953	22659.917565862748	1
7	28957	22660.673254758761	2
7	28958	22661.032187107305	1
7	28961	22661.932977192483	0
7	28965	22662.646552748464	1
7	28966	22662.88274445879	0
7	29100	22784.639865755777	1
7	29101	22784.766467421446	0
7	29110	22786.261301466159	1
7	29111	22786.868756202365	0
7	29120	22787.878218772324	1
7	29121	22788.659733329191	0
7	29200	22846.128265454796	1
7	29201	22846.56242386815	0
7	29205	22847.046798331737	1
7	29207	22847.472873331613	2
7	29208	22847.55004335842	1
7	29211	22848.364773757336	0
7	29275	22926.102742046889	1
7	29276	22926.557128600238	0
7	29325	22955.894163082531	1
7	29326	22956.518933851644	0
7	29330	22957.39832080323	1
7	29331	22957.40289555313	0
7	29335	22957.933670615574	1
7	29336	22958.253386088553	0
7	29425	23026.657417595991	1
7	29428	23026.933417539973	0
7	29432	23027.073061690965	1
7	29436	23027.534932715495	2
7	29439	23028.068609188054	1
7	29442	23029.042632645857	0
7	29465	23040.92943111915	1
7	29466	23041.062000543433	0
7	29520	23078.036291247466	1
7	29521	23078.90499086097	0
7	29525	23079.144540897481	1
7	29526	23079.904259502945	0
7	29580	23150.289247847044	1
7	29581	23150.380050746245	0
7	29610	23166.521988450714	1
7	29612	23166.5472824766	2
7	29614	23166.841388437525	3
7	29615	23167.443249925521	2
7	29618	23168.569760410503	1
7	29621	23169.692988158592	0
7	29645	23184.955749373279	1
7	29646	23185.10178099293	0
7	29670	23251.201812522628	1
7	29671	23251.314063809992	0
7	29745	23315.607918247302	1
7	29746	23316.081724607342	0
7	29785	23338.848652261471	1
7	29786	23339.306227799726	0
7	29830	23377.819251963065	1
7	29831	23378.182530135347	0
7	29915	23424.2273258248	1
7	29916	23424.659393430454	0
7	29930	23437.432400645091	1
7	29931	23437.898475473879	0
7	29955	23467.333039329191	1
7	29958	23468.017940297897	0
7	30145	23607.794832811198	1
7	30146	23608.633789091922	0
7	30175	23631.62437953652	1
7	30176	23631.664173469554	0
7	30220	23662.444474783257	1
7	30221	23663.086230788127	0
7	30230	23668.274313009563	1
7	30231	23668.589961375816	0
7	30270	23717.533637900615	1
7	30271	23717.709681180675	0
7	30280	23721.730159663333	1
7	30281	23722.267626130324	0
7	30355	23774.890228907893	1
7	30356	23775.546451469291	0
7	30370	23787.373820098583	1
7	30371	23788.072233554366	0
7	30420	23828.149459159479	1
7	30421	23828.944960142338	0
7	30480	23880.83578112375	1
7	30481	23881.773543577412	0
7	30485	23882.26861746975	1
7	30486	23882.927155889714	0
7	30495	23897.633625380356	1
7	30496	23897.743824148375	0
7	30505	23898.904589685212	1
7	30506	23899.542845694452	0
7	30535	23922.9245804257	1
7	30536	23923.264968389516	0
7	30540	23923.783416648295	1
7	30541	23924.319752180633	0
7	30595	23984.097064785521	1
7	30596	23984.899530402091	0
7	30600	23985.424397109596	1
7	30601	23986.05544452582	0
7	30605	23986.455573198645	1
7	30606	23987.162038155072	0
7	30640	24026.528380040633	1
7	30641	24026.725756006275	0
7	30660	24034.226580523051	1
7	30661	24035.11690228112	0
7	30730	24089.274182621915	1
7	30732	24089.8734116079	2
7	30733	24090.365146692314	1
7	30736	24091.189683305596	0
7	30802	24131.104162307019	1
7	30803	24131.425389727212	0
7	30845	24164.34866035017	1
7	30846	24164.954490370235	0
7	30865	24176.661354082609	1
7	30866	24176.877195632971	0
7	30870	24177.162664831665	1
7	30871	24177.738167779847	0
7	30950	24249.614553649686	1
7	30951	24250.05710714564	0
7	31030	24320.068131882632	1
7	31031	24320.162740062326	0
7	31050	24334.056037834054	1
7	31051	24334.511286928604	0
7	31100	24359.312505801372	1
7	31102	24359.711129797244	2
7	31103	24360.259004354057	1
7	31106	24361.29160043341	0
7	31110	24361.416161653708	1
7	31112	24361.421653153263	2
7	31114	24362.172569732848	3
7	31115	24362.428483216976	2
7	31118	24363.375279715517	1
7	31121	24364.571864747302	0
7	31130	24366.801252886904	1
7	31131	24367.28166974904	0
7	31140	24372.54269407983	1
7	31141	24373.148446240702	0
7	31145	24373.395909455408	1
7	31146	24374.146240109631	0
7	31150	24374.672023953761	1
7	31151	24375.04511591844	0
7	31202	24408.317632796475	1
7	31203	24408.85312090256	0
7	31207	24409.09403501718	1
7	31208	24409.765065564408	0
7	31212	24410.658930384865	1
7	31213	24410.883551322023	0
7	31220	24412.095392652851	1
7	31221	24413.094144873979	0
7	31240	24433.230689817532	1
7	31241	24433.966929614644	0
7	31265	24443.141523944971	1
7	31266	24443.829998768535	0
7	31295	24453.357486646192	1
7	31296	24454.344132716917	0
7	31320	24461.854469811097	1
7	31322	24461.958135839962	2
7	31323	24462.786175058449	1
7	31328	24463.830760081711	0
7	31335	24465.106091312214	1
7	31336	24465.499093955702	0
7	31380	24485.393668482392	1
7	31382	24485.569438333252	2
7	31384	24485.993458357813	3
7	31387	24486.138346942337	2
7	31390	24486.971945474958	1
7	31393	24487.830755635453	0
7	31420	24529.639028702838	1
7	31421	24530.223671877037	0
7	31435	24554.57505999386	1
7	31436	24554.889956065124	0
7	31440	24555.73196718614	1
7	31441	24556.074143210096	0
7	31445	24556.89466037953	1
7	31446	24556.988328936832	0
7	31480	24589.414482472416	1
7	31483	24589.850012865735	0
7	31487	24590.884678862021	1
7	31488	24591.037293686883	0
7	31492	24591.35691463579	1
7	31494	24591.719013852933	2
7	31495	24592.004192712975	1
7	31498	24593.121113075481	0
7	31522	24607.324460303909	1
7	31524	24607.93672923593	2
7	31525	24608.131551545037	1
7	31528	24609.044539233314	0
7	31555	24630.43757504965	1
7	31556	24631.147572302486	0
7	31585	24648.636009222484	1
7	31587	24648.843608036979	2
7	31588	24649.117055655436	1
7	31591	24650.312403483109	0
7	31600	24652.341869750229	1
7	31601	24653.106250006231	0
7	31632	24675.629028645625	1
7	31634	24675.726502459318	2
7	31635	24676.327249440417	1
7	31638	24677.424369381048	0
7	31670	24695.473007246697	1
7	31671	24696.029063062585	0
7	31705	24719.68777179389	1
7	31706	24720.366498214194	0
7	31775	24775.26001150667	1
7	31776	24776.055049276902	0
7	31780	24776.987496474416	1
7	31781	24777.040845297082	0
7	31830	24820.474619793183	1
7	31831	24821.172184277144	0
7	31840	24831.050761997935	1
7	31841	24831.073970737278	0
7	31850	24833.564146630063	1
7	31851	24833.803831819911	0
7	31920	24890.257011586059	1
7	31921	24890.734620835894	0
7	31950	24920.941276859278	1
7	31951	24921.168624761497	0
7	31965	24924.434299576619	1
7	31966	24924.503059997972	0
7	31997	24944.071122809902	1
7	31998	24944.15070797172	0
7	32035	24979.613545367593	1
7	32036	24980.615778494835	0
7	32070	25026.060528954053	1
7	32071	25026.731287927137	0
7	32080	25035.294268622427	1
7	32081	25035.848578743234	0
7	32090	25042.492764269784	1
7	32091	25043.113958751308	0
7	32100	25044.741532358217	1
7	32101	25045.230651709334	0
7	32110	25049.43905687943	1
7	32111	25049.4569898953	0
7	32115	25049.823648176918	1
7	32117	25050.403938051408	2
7	32118	25050.614382155639	1
7	32121	25051.432948163831	0
7	32135	25058.761285962056	1
7	32136	25059.746781593141	0
7	32140	25060.782376733998	1
7	32141	25060.784941611578	0
7	32230	25131.314659481771	1
7	32231	25132.323129102538	0
7	32245	25139.941220627833	1
7	32246	25140.786662317216	0
7	32255	25153.458278405953	1
7	32256	25154.067355323631	0
7	32290	25176.734140567499	1
7	32293	25177.433383463058	0
7	32297	25177.835877580131	1
7	32298	25178.289771163664	0
7	32325	25189.364057999468	1
7	32326	25189.828102346791	0
7	32345	25198.356180934536	1
7	32346	25198.818771304424	0
7	32420	25257.937012723542	1
7	32421	25258.69566314327	0
7	32510	25364.343153009904	1
7	32511	25365.185177270755	0
7	32515	25365.292046428864	1
7	32516	25365.988047695499	0
7	32545	25381.734256556264	1
7	32546	25382.294281058187	0
7	32555	25384.320296599191	1
7	32556	25384.370484238575	0
7	32575	25407.270469029243	1
7	32576	25407.486877170879	0
7	32580	25407.711155139692	1
7	32581	25408.595324641861	0
7	32645	25459.884960593227	1
7	32646	25460.566907129013	0
7	32770	25591.424650260919	1
7	32771	25591.669281894231	0
7	32810	25629.743375732468	1
7	32811	25629.815621091123	0
7	32820	25633.086653160973	1
7	32821	25633.31544425239	0
7	32875	25687.077416782488	1
7	32876	25687.353571916751	0
7	32925	25764.260683716036	1
7	32926	25764.995245182335	0
7	32995	25861.058683066878	1
7	32998	25861.881958140002	0
7	33015	25890.581269940357	1
7	33017	25891.135663087388	2
7	33018	25891.622831705104	1
7	33021	25892.48283106441	0
7	33025	25892.635370944509	1
7	33026	25893.420918015189	0
7	33030	25894.248713962493	1
7	33031	25894.430498843159	0
7	33115	25959.25578519815	1
7	33116	25959.531075622084	0
7	33130	25984.796884961395	1
7	33132	25985.256341236848	2
7	33133	25985.409971220234	1
7	33136	25986.471865044163	0
7	33160	26007.183352223547	1
7	33161	26008.164999878548	0
7	33165	26008.635758255631	1
7	33166	26009.229330585666	0
7	33195	26043.117715770246	1
7	33196	26043.7533731432	0
7	33230	26068.657080643057	1
7	33231	26068.689033310387	0
7	33262	26085.180939991967	1
7	33263	26085.433641674975	0
7	33310	26119.265694862592	1
7	33311	26119.425169071053	0
7	33320	26122.771360894772	1
7	33321	26123.704657749306	0
7	33335	26126.598891655137	1
7	33336	26127.394390635304	0
7	33417	26205.74224334793	1
7	33418	26205.930954776073	0
7	33435	26209.752226030186	1
7	33438	26210.834183882672	0
7	33590	26376.623064035686	1
7	33591	26376.684458099248	0
7	33595	26376.826400602477	1
7	33596	26377.868844159635	0
7	33655	26437.134659849756	1
7	33656	26437.42165823551	0
7	33660	26437.494324850478	1
7	33661	26438.5299146113	0
7	33670	26439.511804728854	1
7	33671	26440.465573751075	0
7	33705	26466.557097436037	1
7	33706	26467.285189064869	0
7	33715	26475.606648989771	1
7	33716	26476.472853875295	0
7	33740	26507.502477538287	1
7	33745	26508.196096165209	0
7	33749	26508.796544174745	1
7	33752	26509.284850844379	0
7	33759	26510.390418386537	1
7	33761	26510.988296150758	2
7	33762	26511.293183683521	1
7	33766	26511.67570506473	2
7	33767	26512.479555900778	1
7	33770	26513.396401215728	0
7	33782	26515.617943785701	1
7	33783	26516.51314187824	0
7	33787	26517.405799995474	1
7	33788	26517.501589376304	0
7	33860	26604.03362482319	1
7	33861	26604.608753525667	0
7	33925	26663.403533813875	1
7	33926	26663.873126574346	0
7	33930	26664.878523446948	1
7	33932	26664.978819599008	2
7	33933	26665.005683264994	1
7	33936	26665.940807313585	0
7	33950	26672.594281080299	1
7	33951	26673.421806496006	0
7	33995	26706.194169666189	1
7	33996	26707.078735313349	0
7	34005	26712.931825492389	1
7	34006	26712.935626345694	0
7	34030	26727.523373842867	1
7	34033	26728.589512006471	0
7	34140	26780.709209575313	1
7	34141	26781.401689140979	0
7	34160	26792.299790866921	1
7	34161	26792.667917311408	0
7	34175	26799.668356023035	1
7	34176	26799.728800713018	0
7	34185	26801.038200331233	1
7	34186	26802.062815685037	0
7	34190	26802.097359691793	1
7	34191	26802.942348071679	0
7	34240	26840.50086048667	1
7	34241	26840.818209823217	0
7	34250	26842.257333052658	1
7	34251	26842.674658057935	0
7	34290	26896.490169721584	1
7	34291	26897.187752856768	0
7	34300	26901.768545439366	1
7	34301	26901.871471522504	0
7	34330	26916.898421010532	1
7	34331	26917.305532403542	0
7	34350	26921.689958014393	1
7	34351	26922.728601489501	0
7	34435	26990.287496849977	1
7	34436	26990.880638174142	0
7	34495	27042.175343923828	1
7	34496	27042.562835004465	0
7	34542	27064.881299934132	1
7	34543	27065.099639661349	0
7	34615	27103.186521860313	1
7	34616	27103.872239715067	0
7	34655	27121.306667892028	1
7	34656	27122.171194634646	0
7	34670	27139.137280827769	1
7	34671	27140.037976603903	0
7	34690	27150.983852502156	1
7	34691	27151.318418722822	0
7	34710	27154.813375654295	1
7	34711	27155.059561536032	0
7	34905	27321.112743608589	1
7	34906	27321.330355647567	0
7	34935	27339.450395064478	1
7	34936	27340.207857744067	0
7	34947	27341.56564782778	1
7	34948	27341.868587823442	0
7	34952	27342.360830885629	1
7	34953	27342.702259796063	0
7	34960	27344.236221270583	1
7	34961	27344.439900455667	0
7	35010	27374.450096104192	1
7	35011	27374.939368559945	0
7	35145	27472.766919569834	1
7	35146	27473.237461371602	0
7	35150	27473.644550858738	1
7	35151	27474.300715215573	0
7	35192	27525.084784961648	1
7	35193	27525.347873711892	0
7	35200	27526.827675145413	1
7	35201	27527.427810277165	0
7	35285	27576.855610303691	1
7	35287	27576.933235472601	2
7	35288	27577.611861173469	1
7	35291	27578.594024334695	0
7	35315	27600.795392741706	1
7	35316	27601.751124231233	0
7	35325	27603.309947301882	1
7	35326	27604.119320469585	0
7	35330	27604.32533533956	1
7	35331	27605.089147534736	0
7	35390	27632.34651889887	1
7	35393	27632.519483080241	0
7	35402	27634.01192046217	1
7	35403	27634.657658708668	0
7	35425	27655.760819014741	1
7	35426	27655.93012503503	0
7	35500	27736.177346586691	1
7	35501	27736.249042359538	0
7	35515	27749.886387939086	1
7	35516	27750.331811059996	0
7	35525	27751.353484870387	1
7	35526	27752.247852731384	0
7	35535	27753.579005160022	1
7	35536	27754.14753933603	0
7	35620	27811.361252569005	1
7	35621	27812.229242950222	0
7	35630	27813.528839115769	1
7	35631	27814.455610233882	0
7	35640	27816.545765385279	1
7	35641	27817.396258208317	0
7	35715	27872.661101867856	1
7	35716	27873.627474696509	0
7	35730	27882.911235202365	1
7	35731	27883.150985192391	0
7	35755	27903.27771386929	1
7	35756	27904.258973460984	0
7	35770	27910.202064023256	1
7	35771	27911.122827862229	0
7	35795	27925.136141145641	1
7	35796	27925.357470242487	0
7	35880	28014.229974247058	1
7	35881	28014.429371696263	0
7	35895	28023.005986938732	1
7	35896	28023.646560945397	0
7	35905	28025.659379042096	1
7	35906	28025.906413337587	0
7	35915	28029.462472209548	1
7	35916	28029.85941932709	0
7	35920	28030.629794535389	1
7	35921	28030.674343544851	0
7	35935	28035.376423723611	1
7	35936	28035.953755727796	0
7	35950	28045.056641869793	1
7	35951	28045.312112878801	0
7	35960	28048.94489438634	1
7	35961	28049.311996288347	0
7	36000	28081.266829200988	1
7	36001	28081.73926082606	0
7	36007	28082.561827350538	1
7	36008	28082.922973992662	0
7	36020	28085.206525068094	1
7	36021	28086.050198835121	0
7	36035	28096.755750099529	1
7	36036	28096.850212846554	0
7	36060	28132.126786939095	1
7	36061	28132.739958612043	0
7	36065	28133.212701980402	1
7	36066	28133.627043655868	0
7	36100	28162.09894520967	1
7	36101	28162.132040019246	0
7	36175	28240.856390099072	1
7	36176	28241.851139269126	0
7	36220	28280.461662857201	1
7	36221	28280.549955158934	0
7	36300	28333.24029803562	1
7	36301	28333.250376028809	0
7	36305	28334.044452194559	1
7	36306	28334.313401123471	0
7	36360	28413.968421360731	1
7	36361	28414.461239035641	0
7	36365	28415.248469275987	1
7	36366	28415.642690706746	0
7	36375	28443.628393775855	1
7	36376	28443.661896661237	0
7	36500	28551.166019973444	1
7	36501	28551.537514870613	0
7	36540	28591.045922100882	1
7	36541	28591.231490954217	0
7	36590	28657.668510886444	1
7	36592	28658.021061516924	2
7	36593	28658.610322650309	1
7	36596	28659.457870210308	0
7	36600	28659.641439601773	1
7	36603	28660.33601897915	0
7	36660	28737.043512361371	1
7	36661	28737.230975862799	0
7	36665	28737.33626150665	1
7	36667	28737.357109515722	2
7	36668	28738.290843302404	1
7	36671	28739.237662237251	0
7	36675	28739.311918505673	1
7	36677	28739.387020107288	2
7	36678	28740.346863942707	1
7	36681	28741.226401910393	0
7	36685	28742.02225984451	1
7	36686	28742.24517608287	0
7	36705	28752.105774332413	1
7	36706	28752.791491433444	0
7	36715	28754.314601652485	1
7	36716	28754.989069808866	0
7	36765	28802.007631120832	1
7	36766	28802.158566466522	0
7	36810	28859.315439358371	1
7	36811	28859.89096709484	0
7	36825	28864.177240953929	1
7	36826	28865.068019075924	0
7	36880	28939.249919957939	1
7	36881	28939.279160373534	0
7	36910	28971.772356207924	1
7	36911	28971.832400980977	0
7	36995	29034.672539598477	1
7	36996	29035.051660593382	0
7	37000	29035.552029838763	1
7	37001	29036.047287901274	0
7	37015	29045.381406146473	1
7	37016	29045.417214080043	0
7	37020	29046.24747834336	1
7	37021	29046.431369878635	0
7	37075	29096.119981108223	1
7	37076	29096.715230434293	0
7	37150	29159.251684390815	1
7	37151	29159.59779352858	0
7	37215	29236.677161908812	1
7	37216	29237.496182266241	0
7	37270	29261.878753128641	1
7	37271	29262.639147061224	0
7	37290	29275.232688203443	1
7	37291	29275.911460196651	0
7	37295	29276.763019962687	1
7	37296	29276.785977958381	0
7	37310	29283.458182117126	1
7	37311	29283.875513539699	0
7	37430	29425.709779505929	1
7	37431	29426.234565939434	0
7	37510	29521.607438638964	1
7	37511	29522.161049662659	0
7	37535	29545.156155984948	1
7	37536	29545.542124348217	0
7	37590	29637.622492649489	1
7	37591	29637.715766425065	0
7	37597	29638.463004230021	1
7	37598	29638.697815095361	0
7	37665	29714.940933126519	1
7	37666	29715.398630547003	0
7	37680	29736.098988665801	1
7	37682	29736.121529435538	2
7	37683	29736.355939779559	1
7	37686	29737.360702334938	0
7	37695	29739.340293222206	1
7	37696	29739.367564262112	0
7	37705	29740.781425280672	1
7	37706	29741.426810926399	0
7	37732	29759.588506609887	1
7	37733	29760.361095776308	0
7	37755	29775.353842606283	1
7	37756	29776.107442146814	0
7	37775	29790.055451068999	1
7	37776	29791.019366597641	0
7	37795	29808.250267773145	1
7	37797	29808.730466041578	2
7	37798	29808.955651097854	1
7	37801	29809.872924403769	0
7	37820	29825.251201642247	1
7	37821	29825.556844436753	0
7	37855	29846.458038540231	1
7	37856	29846.659972814951	0
7	37885	29853.033394856111	1
7	37886	29854.154338548772	0
7	38010	29938.71726992335	1
7	38013	29939.603201761249	0
7	38040	29962.124694659644	1
7	38041	29962.487632127033	0
8	12490	10436.260482728507	1
8	12491	10436.320232238464	0
8	15767	12919.60140397023	1
8	15769	12919.937952133214	0
8	17795	14386.379357663078	1
8	17796	14386.761100310493	0
8	18767	15071.173427763386	1
8	18769	15071.382630031671	0
8	18780	15074.540395056448	1
8	18781	15074.634751372004	0
8	22905	18005.609393902732	1
8	22909	18007.921751025273	0
8	25085	19641.114182921928	1
8	25086	19641.567235121988	0
8	33756	26510.321518875017	1
8	33758	26510.390418386537	0
8	34245	26841.644510523505	1
8	34246	26841.69214965301	0
8	35625	27813.154693916822	1
8	35629	27813.528839115769	0
8	35635	27815.52355734395	1
8	35636	27816.313585714412	0
9	17702	14298.07517471271	1
9	17704	14298.532642525865	0
9	17725	14303.298360510398	1
9	17726	14307.275058946309	0
9	18085	14586.412430777124	1
9	18086	14586.601224328597	0
9	24635	19301.183184662054	1
9	24641	19303.840958184419	0
9	28515	22307.561704547183	1
9	28516	22308.837146342912	0
9	28525	22310.799277050228	1
9	28526	22310.821826086592	0
9	31065	24343.529142337506	1
9	31066	24345.119630532938	0

