version 2
run Second_exit_9-9-20191023-00:20:14-5251
attr configname Second_exit_9
attr datetime 20191023-00:20:14
attr experiment Second_exit_9
attr inifile omnetpp.ini
attr iterationvars ""
attr iterationvarsf ""
attr measurement ""
attr network ResponseTimeNetwork
attr processid 5251
attr repetition 9
attr replication #9
attr resultdir results
attr runnumber 9
attr seedset 9
param **.Source.interArrivalTime exponential(5s)
param **.jobPriority bernoulli(0.6)
param **.PS.serviceTimeU1 "uniform(0.8s, 1.2s)"
param **.PS.serviceTimeU2 "uniform(1.8s, 2.2s)"
param **.SS1.serviceTime exponential(1s)
param **.SS2.serviceTime exponential(1.2s)
param **.PS.exitProbability bernoulli(0.9)

vector 0 ResponseTimeNetwork.SS1 queueLength:vector ETV
attr interpolationmode sample-hold
attr title "queue length, vector"
vector 1 ResponseTimeNetwork.SS2 queueLength:vector ETV
attr interpolationmode sample-hold
attr title "queue length, vector"
vector 2 ResponseTimeNetwork.QueueU1 queueLength:vector ETV
attr interpolationmode sample-hold
attr title "queue length, vector"
vector 3 ResponseTimeNetwork.QueueU2 queueLength:vector ETV
attr interpolationmode sample-hold
attr title "queue length, vector"
vector 4 ResponseTimeNetwork.sink lifeTimeU1:vector ETV
attr interpolationmode none
attr title "lifetime of arrived jobs U1, vector"
attr unit s
vector 5 ResponseTimeNetwork.sink lifeTime:vector ETV
attr interpolationmode none
attr title "lifetime of arrived jobs, vector"
attr unit s
vector 6 ResponseTimeNetwork.sink lifeTimeU2:vector ETV
attr interpolationmode none
attr title "lifetime of arrived jobs U2, vector"
attr unit s
2	0	0	0
2	20	3.019458072446	1
2	22	3.551627090572	2
2	23	3.770747316208	1
2	29	4.297685707617	2
2	30	4.768609121859	1
2	34	5.209951640494	2
2	36	5.2369360469	3
2	37	5.948994733624	2
2	40	7.028637690328	1
2	44	7.879046635397	2
2	45	7.882807748437	1
2	49	8.028998336509	2
2	50	8.949567335889	1
2	53	9.968702449508	0
2	60	11.180799557708	1
2	63	12.19784562229	0
2	67	12.366404340809	1
2	70	13.303852979232	0
2	82	16.004179944631	1
2	84	16.051487926325	2
2	85	16.279006815746	1
2	88	17.275398683779	0
2	92	17.510446345782	1
2	93	18.419731452361	0
2	100	19.685337710257	1
2	101	20.482286529754	0
2	115	25.223057147074	1
2	118	25.761546961787	0
2	122	26.482407694945	1
2	125	26.799052635684	0
2	135	29.090925190833	1
2	138	29.897229047037	0
2	172	36.741186477449	1
2	174	36.813849173484	2
2	175	36.88512378491	1
2	180	37.878923166613	0
2	189	39.494160051577	1
2	190	39.804520533955	0
2	202	41.896302640338	1
2	204	41.900876932405	2
2	205	42.731437064311	1
2	208	43.618508099741	0
2	219	44.926231875996	1
2	221	45.170394433707	2
2	222	45.603794086515	1
2	227	46.730686867493	0
2	231	47.460388163009	1
2	233	47.513911433911	2
2	234	47.697054333868	1
2	238	48.378938402469	2
2	239	48.500312351412	1
2	243	48.911388534245	2
2	244	49.594218677631	1
2	248	50.406637102108	2
2	249	50.448189775342	1
2	253	50.606937272074	2
2	255	51.178696997803	3
2	257	51.458181935542	4
2	258	51.636509054782	3
2	261	52.682482043071	2
2	265	53.359615993085	3
2	266	53.709781477576	2
2	269	54.553505682921	1
2	273	55.260593939792	2
2	275	55.526572309798	3
2	276	55.569335893517	2
2	280	55.67809556491	3
2	282	55.728752078083	4
2	283	56.649328251624	3
2	286	57.464515940355	2
2	290	58.323210955076	3
2	291	58.464559107529	2
2	295	59.101375847719	3
2	296	59.406342050316	2
2	300	60.134139083013	3
2	301	60.209256353112	2
2	305	60.438320821003	3
2	306	61.049599788593	2
2	309	61.913209782796	1
2	312	63.105427033523	0
2	316	63.241299448596	1
2	318	63.360694788919	2
2	320	63.432130878561	3
2	321	64.265546864433	2
2	325	65.275022483714	3
2	326	65.283976760017	2
2	330	65.882564194615	3
2	331	66.388130481145	2
2	335	66.740174579525	3
2	337	66.936099961694	4
2	338	67.313671523681	3
2	342	68.39361743618	4
2	343	68.482444692286	3
2	346	69.49056947024	2
2	349	70.651778106088	1
2	352	71.551699931337	0
2	356	71.750554335313	1
2	358	71.764851710563	2
2	360	72.469556791872	3
2	361	72.560294852755	2
2	365	73.314489444482	3
2	367	73.390500698895	4
2	369	73.469902611018	5
2	370	73.698272207263	4
2	374	74.778136098304	5
2	375	74.819966459344	4
2	379	75.201792955339	5
2	380	75.63454695919	4
2	383	76.448084456915	3
2	387	76.520672030146	4
2	388	77.564824683195	3
2	391	78.588898932816	2
2	395	79.03310062428	3
2	397	79.157431291121	4
2	399	79.526156186231	5
2	400	79.775986518966	4
2	403	80.693586348066	3
2	406	81.561160860745	2
2	410	81.855371196646	3
2	411	82.465991684956	2
2	415	82.565475952806	3
2	416	83.294288837512	2
2	420	83.826545141498	3
2	421	84.367149944671	2
2	424	85.558657673255	1
2	427	86.465720679492	0
2	431	87.078767171149	1
2	432	87.278827940274	0
2	439	88.316640179633	1
2	441	88.843580174555	2
2	443	89.003690003214	3
2	444	89.258228036362	2
2	448	89.483032331179	3
2	451	90.233057035293	2
2	454	91.065150432448	1
2	458	91.653113130621	2
2	459	92.186585891313	1
2	463	92.263887013518	2
2	465	92.883803137207	3
2	467	93.203699839326	4
2	468	93.301190693091	3
2	472	94.243632776721	4
2	473	94.304221269275	3
2	476	95.175613090462	2
2	479	96.20749740365	1
2	483	96.221057751279	2
2	485	96.796641145272	3
2	486	97.192951156544	2
2	490	97.915114857918	3
2	491	98.183400938074	2
2	495	98.641441263472	3
2	498	99.350864990774	2
2	501	100.16109263112	1
2	505	100.560518067316	2
2	506	101.023661791879	1
2	510	101.33174727521	2
2	511	101.905144613116	1
2	515	102.658723639	2
2	517	102.685059388567	3
2	518	102.847668404571	2
2	522	103.374982551018	3
2	523	103.941818837329	2
2	527	104.397860398396	3
2	528	105.014301388032	2
2	532	105.711387075356	3
2	533	105.822695544987	2
2	537	105.858348829574	3
2	539	106.219098059923	4
2	540	106.789278646997	3
2	546	107.560276935439	4
2	547	107.823001700706	3
2	551	108.148766666336	4
2	553	108.344745608686	5
2	555	108.801177392568	6
2	556	108.98793462894	5
2	560	109.043318110219	6
2	561	109.926337788227	5
2	564	110.806752854931	4
2	568	111.005541674404	5
2	570	111.050770194565	6
2	571	111.968622993464	5
2	574	112.94528426488	4
2	577	113.799716146542	3
2	581	114.777787771571	4
2	583	114.796838484908	5
2	584	114.922794387834	4
2	587	115.858736956837	3
2	591	116.213758043576	4
2	592	116.925754740155	3
2	596	117.705161155755	4
2	597	118.111321830443	3
2	601	118.152033683805	4
2	603	118.306307315278	5
2	604	119.185844024244	4
2	608	120.283530580582	5
2	609	120.304285460963	4
2	612	121.497881108402	3
2	616	121.867528140983	4
2	617	122.371806857894	3
2	620	123.452875945969	2
2	624	123.808771898333	3
2	626	124.135869277937	4
2	627	124.264885076574	3
2	632	125.245674327548	2
2	635	126.045810968775	1
2	639	126.216534563153	2
2	641	126.695092239368	3
2	643	126.836530292756	4
2	644	126.877986015539	3
2	648	127.415680369566	4
2	650	127.422642967278	5
2	652	127.624890358745	6
2	653	127.872686685129	5
2	656	128.797166110734	4
2	659	129.901398882801	3
2	663	129.920185982577	4
2	665	129.953457382522	5
2	666	130.766732813483	4
2	670	131.162112373908	5
2	671	131.797120704567	4
2	675	132.210039808123	5
2	676	132.816707641417	4
2	680	133.621750354449	5
2	681	133.898989843735	4
2	685	134.130139180044	5
2	686	134.869250283641	4
2	690	135.159411240262	5
2	691	135.829920000834	4
2	695	135.90359391539	5
2	696	136.940930204065	4
2	700	137.091279777087	5
2	701	137.786592260254	4
2	705	138.114798212987	5
2	706	138.635601310683	4
2	709	139.475319190761	3
2	713	140.329975871822	4
2	715	140.451889370153	5
2	716	140.607829816146	4
2	720	140.967352915104	5
2	721	141.780673182728	4
2	725	141.884307735313	5
2	726	142.841175760394	4
2	730	143.385397228294	5
2	732	143.614182885838	6
2	733	144.010730043491	5
2	736	144.919763570344	4
2	739	145.734371217685	3
2	742	146.614047917882	2
2	745	147.418531056	1
2	749	147.608378383013	2
2	751	147.916370358548	3
2	752	148.238090870874	2
2	756	148.964315987723	3
2	757	149.153580285022	2
2	760	149.975455766795	1
2	764	150.717989793657	2
2	765	150.939074004693	1
2	768	151.791628682679	0
2	775	153.260190811573	1
2	776	153.72900447703	0
2	780	153.80763047481	1
2	783	154.664075118555	0
2	787	154.969848141913	1
2	789	155.212361478739	2
2	791	155.499885786416	3
2	792	155.646314134514	2
2	796	156.274997597223	3
2	797	156.495462889383	2
2	800	157.299544832455	1
2	804	157.606500947826	2
2	806	158.045995642866	3
2	808	158.047320365042	4
2	809	158.100741620334	3
2	812	159.019293238567	2
2	815	159.927663693549	1
2	819	160.547109900994	2
2	820	160.825953270094	1
2	824	161.297922111487	2
2	826	161.603413134424	3
2	827	161.733805886628	2
2	831	162.808968670871	3
2	832	162.891759119527	2
2	837	163.911972637539	1
2	841	163.92764726997	2
2	844	164.781585806673	1
2	848	165.557899178577	2
2	850	165.58569315022	3
2	852	165.740842246453	4
2	853	165.881619101734	3
2	857	165.987047606201	4
2	859	166.077358909362	5
2	860	167.054982631718	4
2	864	167.492836776994	5
2	865	168.2464476261	4
2	869	168.754045599356	5
2	870	169.351403779042	4
2	874	169.668380729993	5
2	875	170.275583234214	4
2	879	170.589916174965	5
2	881	170.756874544632	6
2	882	171.120906291407	5
2	886	171.913027749684	6
2	887	171.949811301351	5
2	891	172.653620734547	6
2	892	172.936874989484	5
2	896	172.968993257291	6
2	897	173.815563208581	5
2	901	174.285082425291	6
2	902	174.787920543429	5
2	906	175.197784906531	6
2	907	175.872251314827	5
2	910	176.908239849441	4
2	913	177.730411450722	3
2	917	177.927369267064	4
2	919	178.395095330775	5
2	920	178.915597422299	4
2	924	179.30946154311	5
2	925	179.952250066278	4
2	931	180.552707528188	5
2	932	181.052115466883	4
2	935	182.229309998145	3
2	939	182.810454636175	4
2	940	183.215111103812	3
2	943	184.026403925633	2
2	947	184.064591574902	3
2	949	184.552406874023	4
2	950	185.145412387112	3
2	954	186.010256890432	4
2	955	186.082405299945	3
2	959	186.263338132803	4
2	962	187.008390534828	3
2	966	187.754311127746	4
2	967	187.909816409527	3
2	973	188.88423739335	4
2	974	189.082934144671	3
2	978	189.262909558368	4
2	980	189.866315910603	5
2	981	190.191140512257	4
2	985	190.463899445861	5
2	987	190.520905072429	6
2	989	190.772191499292	7
2	992	191.275174899652	6
2	996	191.687032212114	7
2	997	192.308436099786	6
2	1001	192.53668541542	7
2	1002	193.174237537265	6
2	1005	194.289193107255	5
2	1009	195.058737369661	6
2	1012	195.208327842012	5
2	1016	195.235169611535	6
2	1017	196.403761651993	5
2	1021	197.076054316396	6
2	1023	197.176623566146	7
2	1024	197.365588843424	6
2	1028	197.780590863218	7
2	1029	198.203094677508	6
2	1033	198.470722839304	7
2	1035	199.224347443798	8
2	1036	199.27289589585	7
2	1040	200.025509315068	8
2	1041	200.41151351656	7
2	1044	201.326070529196	6
2	1048	201.462652357771	7
2	1049	202.172499260373	6
2	1052	203.145986903712	5
2	1056	203.99583662048	6
2	1057	204.020203852348	5
2	1061	204.514181354466	6
2	1062	205.180443235368	5
2	1066	205.232334182153	6
2	1068	205.295180262424	7
2	1070	205.404405028616	8
2	1072	205.447129277975	9
2	1073	206.083351613556	8
2	1077	206.419823330546	9
2	1078	207.246642453664	8
2	1081	208.421947018963	7
2	1085	209.105279435034	8
2	1086	209.454621114277	7
2	1090	209.568543846088	8
2	1091	210.311369619959	7
2	1095	210.618305237959	8
2	1097	210.969564783153	9
2	1098	211.489571453885	8
2	1102	211.970143563113	9
2	1103	212.521942873926	8
2	1106	213.42642962809	7
2	1110	213.69708672573	8
2	1112	214.032970471925	9
2	1114	214.543451690062	10
2	1115	214.620843898387	9
2	1119	215.429290176096	10
2	1120	215.776969743681	9
2	1124	216.368022001053	10
2	1125	216.702570098893	9
2	1128	217.700204372567	8
2	1131	218.674285854001	7
2	1135	218.744225609841	8
2	1137	218.99624573022	9
2	1138	219.566839106542	8
2	1142	219.903435020437	9
2	1145	220.762572491703	8
2	1148	221.779529491042	7
2	1151	222.639353692134	6
2	1154	223.735451633458	5
2	1158	224.175982167092	6
2	1159	224.598057835338	5
2	1163	224.885681361365	6
2	1164	225.493109052976	5
2	1168	225.767846794288	6
2	1169	226.540767996547	5
2	1172	227.706172185832	4
2	1176	227.92794125181	5
2	1177	228.597636578021	4
2	1181	229.15935133523	5
2	1183	229.206059631415	6
2	1185	229.281949942122	7
2	1186	229.71832317605	6
2	1190	230.022829095589	7
2	1191	230.771031942846	6
2	1194	231.589641547551	5
2	1197	232.550868160067	4
2	1201	233.486608982012	5
2	1202	233.695922201754	4
2	1205	234.577370212668	3
2	1209	234.588614508933	4
2	1210	235.505687602771	3
2	1214	236.526596973596	4
2	1215	236.699394072288	3
2	1219	236.793893569907	4
2	1221	236.846539099955	5
2	1222	237.779386595891	4
2	1226	238.426153994681	5
2	1227	238.720998568435	4
2	1230	239.847831633848	3
2	1234	240.482991152139	4
2	1235	240.659523695589	3
2	1238	241.595862538715	2
2	1242	242.000135712324	3
2	1243	242.484910674089	2
2	1246	243.29923307204	1
2	1249	244.281150637263	0
2	1253	244.305982421869	1
2	1255	244.800868738237	2
2	1257	244.837953086043	3
2	1258	245.47368506973	2
2	1261	246.642118072299	1
2	1265	246.995074755258	2
2	1267	247.105880062588	3
2	1268	247.652464640861	2
2	1272	248.022716765095	3
2	1274	248.667307316335	4
2	1275	248.849940719897	3
2	1279	249.408886253746	4
2	1280	249.691949482983	3
2	1283	250.778447334351	2
2	1288	251.618883854127	1
2	1292	252.107228760415	2
2	1294	252.111361850503	3
2	1297	252.534165652259	2
2	1301	252.630252535236	3
2	1303	252.647834139762	4
2	1305	253.414769764917	5
2	1306	253.532064480777	4
2	1309	254.694730755943	3
2	1313	254.758442727336	4
2	1315	255.495227563885	5
2	1317	255.670540896634	6
2	1318	255.737113777525	5
2	1322	256.504235479329	6
2	1323	256.550578407082	5
2	1326	257.55887095721	4
2	1330	257.664168601619	5
2	1331	258.614923385694	4
2	1335	259.282546215743	5
2	1337	259.416218962461	6
2	1338	259.507955154474	5
2	1341	260.501180503774	4
2	1345	261.197884010509	5
2	1346	261.524554113742	4
2	1350	261.755283076612	5
2	1351	262.597280909564	4
2	1355	262.992758070397	5
2	1356	263.797101296741	4
2	1359	264.721125092241	3
2	1363	265.395614582517	4
2	1364	265.767336675315	3
2	1368	265.963237980258	4
2	1370	266.016633552843	5
2	1371	266.569960076711	4
2	1374	267.532204149267	3
2	1377	268.412566165882	2
2	1381	268.422341492544	3
2	1382	269.321566647547	2
2	1385	270.172822352289	1
2	1389	271.191222654036	2
2	1390	271.273368408228	1
2	1394	271.573005438138	2
2	1396	272.01238338934	3
2	1397	272.409138944535	2
2	1401	273.214289711959	3
2	1402	273.510958551033	2
2	1405	274.548218429903	1
2	1409	275.098032235115	2
2	1411	275.114810182166	3
2	1412	275.403241793694	2
2	1416	275.722138857266	3
2	1417	276.535925190592	2
2	1421	277.060736191961	3
2	1422	277.349830037052	2
2	1426	277.732332525917	3
2	1427	278.239420478674	2
2	1431	278.790826347932	3
2	1432	279.285230437642	2
2	1436	279.332360176578	3
2	1438	279.715826647836	4
2	1439	280.344099426059	3
2	1442	281.189769960822	2
2	1446	281.344237620122	3
2	1447	282.318053059535	2
2	1450	283.21752931734	1
2	1453	284.413534629507	0
2	1476	289.692213025256	1
2	1478	289.924224882612	2
2	1484	290.182406853534	3
2	1485	290.585638299094	2
2	1492	291.616521580493	1
2	1496	291.834113857319	2
2	1497	292.597888462594	1
2	1501	292.702513298533	2
2	1502	293.54490665344	1
2	1506	294.195272753964	2
2	1507	294.44689870018	1
2	1511	294.751346841554	2
2	1512	295.253636065195	1
2	1516	295.814564473821	2
2	1517	296.13490351818	1
2	1520	296.994139476749	0
2	1524	297.426423420673	1
2	1526	297.547674731685	2
2	1527	298.096713371831	1
2	1530	298.913945362694	0
2	1534	299.473838648132	1
2	1536	299.67801016012	2
2	1537	300.00374175103	1
2	1541	300.054115757933	2
2	1543	300.101746955971	3
2	1544	301.194568549912	2
2	1548	302.089860874025	3
2	1549	302.379948790256	2
2	1552	303.533464798588	1
2	1555	304.370029692981	0
2	1562	305.787471262931	1
2	1564	305.805086551705	2
2	1565	306.073812087416	1
2	1569	306.15673705231	2
2	1571	306.614272198234	3
2	1572	306.96417556738	2
2	1578	307.787444471858	3
2	1579	307.898447945132	2
2	1582	308.829825937911	1
2	1587	309.966507430817	0
2	1593	310.321381853048	1
2	1595	310.413188020844	2
2	1596	310.817494601733	1
2	1600	310.96020682858	2
2	1602	311.313102477862	3
2	1603	311.984617544222	2
2	1610	312.835465933173	1
2	1614	313.032176756015	2
2	1615	313.720275399252	1
2	1618	314.667911822046	0
2	1622	314.789776529501	1
2	1624	314.808727125863	2
2	1626	315.115786990868	3
2	1628	315.157998562677	4
2	1629	315.840669480874	3
2	1633	316.213804152082	4
2	1634	316.953218637104	3
2	1637	318.046008910215	2
2	1640	318.920473894826	1
2	1644	319.094526152965	2
2	1645	319.785296027898	1
2	1649	319.839884851867	2
2	1650	320.702790230862	1
2	1653	321.891450079228	0
2	1657	322.477668407353	1
2	1659	322.913659770966	2
2	1660	323.050379967573	1
2	1663	323.853142044484	0
2	1667	323.875138048719	1
2	1670	324.888756554458	0
2	1674	325.009422094681	1
2	1675	325.880063837651	0
2	1685	327.585178825112	1
2	1686	328.485539682839	0
2	1690	329.29532173497	1
2	1695	329.353231656622	0
2	1699	330.302653428756	1
2	1700	330.551256062347	0
2	1704	331.31451486407	1
2	1705	331.435590591259	0
2	1709	332.187261557534	1
2	1710	332.353040290694	0
2	1717	333.694937010806	1
2	1719	333.921450066291	2
2	1721	334.079384814101	3
2	1723	334.288088215826	4
2	1724	334.571703174128	3
2	1730	335.380226795183	4
2	1731	335.436354327923	3
2	1734	336.264019407401	2
2	1738	336.691999873933	3
2	1739	337.385320166661	2
2	1743	337.496641000222	3
2	1745	337.524302184044	4
2	1747	337.675851759764	5
2	1749	338.032264302807	6
2	1750	338.312253540731	5
2	1754	338.939575383872	6
2	1756	339.04975944309	7
2	1758	339.29869666178	8
2	1759	339.340305205504	7
2	1763	339.729662089809	8
2	1764	340.324719607248	7
2	1767	341.284540763474	6
2	1770	342.086876749596	5
2	1773	343.075425947806	4
2	1777	343.296731495912	5
2	1778	344.023709485842	4
2	1782	344.210783228695	5
2	1784	344.248641234928	6
2	1786	344.408159739457	7
2	1787	344.829681620071	6
2	1791	344.864462258658	7
2	1792	345.911770348786	6
2	1796	346.187950804707	7
2	1797	347.03929168235	6
2	1801	347.198010273321	7
2	1802	348.07393080478	6
2	1805	348.935918920649	5
2	1808	350.001465466315	4
2	1812	350.227256581201	5
2	1815	351.109358017774	4
2	1819	351.134036958258	5
2	1820	352.123707497189	4
2	1824	352.649412065095	5
2	1826	352.738045448519	6
2	1827	352.996591775747	5
2	1831	353.634984391306	6
2	1832	354.15864419972	5
2	1835	355.086134832142	4
2	1838	356.043750109872	3
2	1842	356.834762501935	4
2	1843	356.888186865183	3
2	1846	357.816438065725	2
2	1850	358.165636424772	3
2	1851	358.759051361377	2
2	1855	359.340220407268	3
2	1856	359.730635898816	2
2	1860	359.768413288894	3
2	1861	360.714507264993	2
2	1865	360.827345179	3
2	1867	360.870563417673	4
2	1869	361.620094418425	5
2	1871	361.62015594046	6
2	1873	361.710356882773	7
2	1874	361.726785300835	6
2	1878	362.717275163865	7
2	1879	362.80313258504	6
2	1883	363.458841992094	7
2	1884	363.926534133195	6
2	1888	364.083439298605	7
2	1890	364.545823325573	8
2	1892	364.747680614955	9
2	1893	364.999578401144	8
2	1896	365.856201562449	7
2	1900	366.372456762067	8
2	1901	366.692381659966	7
2	1905	367.066830029022	8
2	1907	367.473911785495	9
2	1908	367.555981033366	8
2	1912	367.603686741295	9
2	1914	367.867095751937	10
2	1915	368.358419291559	9
2	1919	368.9925647142	10
2	1920	369.51461862165	9
2	1923	370.474619845743	8
2	1927	371.414390023344	9
2	1929	371.473263947809	10
2	1930	371.64502254629	9
2	1934	371.98307465708	10
2	1936	372.362377003997	11
2	1937	372.641193970735	10
2	1941	372.711528698662	11
2	1942	373.828126581362	10
2	1946	373.983082191588	11
2	1948	374.601579133903	12
2	1950	374.621297992973	13
2	1951	374.628838320053	12
2	1954	375.670393418683	11
2	1957	376.752640074188	10
2	1960	377.562040685279	9
2	1964	377.910026383112	10
2	1966	378.364424893292	11
2	1968	378.45421300264	12
2	1969	378.553145023877	11
2	1973	378.93628024297	12
2	1974	379.711342808301	11
2	1977	380.834096828917	10
2	1980	381.774433309467	9
2	1986	382.471237398822	10
2	1987	382.705456172185	9
2	1990	383.74233120873	8
2	1994	383.774559028083	9
2	1996	384.369706032747	10
2	1997	384.751012831157	9
2	2000	385.884792981366	8
2	2004	386.082525061185	9
2	2006	386.897959554818	10
2	2007	386.921957775275	9
2	2010	387.850897193304	8
2	2014	387.937520086427	9
2	2016	387.9969293026	10
2	2018	388.47012125593	11
2	2019	388.678522795136	10
2	2023	388.781779098233	11
2	2025	388.842199817939	12
2	2026	389.798818249977	11
2	2030	390.524602654907	12
2	2031	390.603619447048	11
2	2035	391.543874296843	12
2	2036	391.775886371057	11
2	2040	391.901645430362	12
2	2042	392.58173004055	13
2	2043	392.652958309069	12
2	2047	392.702735590603	13
2	2048	393.699260889623	12
2	2052	394.56230072875	13
2	2053	394.625790471654	12
2	2056	395.778279953893	11
2	2060	396.010504000543	12
2	2061	396.949663737114	11
2	2065	397.475988492879	12
2	2066	397.919422980189	11
2	2070	398.414493120667	12
2	2071	398.961679680995	11
2	2075	399.183236920015	12
2	2077	399.409773777216	13
2	2079	399.421336693744	14
2	2080	399.900906170323	13
2	2084	400.048021484054	14
2	2085	400.901189071848	13
2	2089	401.303658176621	14
2	2090	401.97805072132	13
2	2094	402.544790554017	14
2	2095	403.157120129536	13
2	2098	404.214381589717	12
2	2102	405.088983913687	13
2	2103	405.285155748366	12
2	2107	405.798867027578	13
2	2108	406.4828496875	12
2	2111	407.518808994977	11
2	2114	408.596181734069	10
2	2118	408.737046175854	11
2	2119	409.431141785509	10
2	2123	409.937920915966	11
2	2124	410.294224756933	10
2	2127	411.162668559305	9
2	2131	411.561462582694	10
2	2132	412.041850960977	9
2	2136	412.09122448499	10
2	2138	412.670852549878	11
2	2140	412.750282966919	12
2	2142	412.872482123492	13
2	2143	412.879997731071	12
2	2147	413.472918954376	13
2	2148	413.895879172325	12
2	2152	414.324400833345	13
2	2153	414.949461257435	12
2	2157	415.266209929708	13
2	2158	416.090766407713	12
2	2162	416.435916228264	13
2	2163	416.985686723027	12
2	2167	417.685691176985	13
2	2168	417.922028882406	12
2	2172	418.185344203623	13
2	2173	418.830547768507	12
2	2176	419.749455878954	11
2	2180	420.537078878658	12
2	2182	420.626658704657	13
2	2183	420.679044468771	12
2	2189	420.818087659518	13
2	2190	421.581444711215	12
2	2194	422.291486092796	13
2	2195	422.39521659601	12
2	2199	422.610143494461	13
2	2200	423.563992996025	12
2	2204	424.193950155376	13
2	2205	424.549567527301	12
2	2209	424.84630088089	13
2	2210	425.590703567001	12
2	2214	426.085140640097	13
2	2215	426.481831533252	12
2	2219	426.550319033335	13
2	2221	426.88705449925	14
2	2222	427.457398386462	13
2	2226	427.832785100038	14
2	2227	428.354562020744	13
2	2231	428.457379202586	14
2	2232	429.267693294841	13
2	2236	430.205412852317	14
2	2237	430.332235813677	13
2	2241	430.748669262806	14
2	2242	431.474449479092	13
2	2246	431.690201036415	14
2	2247	432.462110146578	13
2	2251	432.979932481336	14
2	2253	433.037304912324	15
2	2254	433.402290513623	14
2	2258	433.490785583976	15
2	2259	434.347693728353	14
2	2262	435.427042427263	13
2	2267	436.241344607412	12
2	2271	436.817270817915	13
2	2272	437.265467863972	12
2	2276	437.507218646242	13
2	2278	437.766954451468	14
2	2279	438.246129190526	13
2	2282	439.202853470645	12
2	2286	439.497792911653	13
2	2288	439.756217272585	14
2	2289	440.156116030249	13
2	2293	440.291526848215	14
2	2295	440.93057659169	15
2	2296	441.07872828485	14
2	2300	442.028220628717	15
2	2301	442.136675445154	14
2	2305	442.635548645902	15
2	2306	443.273969092663	14
2	2309	444.154521272961	13
2	2313	444.48630965874	14
2	2315	445.150166172489	15
2	2316	445.283408424329	14
2	2320	445.819594824469	15
2	2321	446.455305676047	14
2	2325	446.599087896083	15
2	2326	447.447922251817	14
2	2330	447.63822494101	15
2	2331	448.370215938684	14
2	2334	449.267220684585	13
2	2338	449.582582059315	14
2	2341	450.393266330358	13
2	2344	451.215608114727	12
2	2350	452.032766405751	13
2	2351	452.401484511584	12
2	2355	452.513821381339	13
2	2357	453.40696648897	14
2	2358	453.483356253967	13
2	2361	454.418364949782	12
2	2365	454.743432691559	13
2	2367	455.058363601713	14
2	2368	455.251311624308	13
2	2372	455.536249698296	14
2	2374	455.923628456394	15
2	2375	456.443371746947	14
2	2378	457.325295654477	13
2	2382	457.724558044541	14
2	2383	458.132649931104	13
2	2387	458.603796516247	14
2	2388	459.046181123403	13
2	2392	459.836496382229	14
2	2394	460.090697712195	15
2	2395	460.103353123346	14
2	2401	460.583763389633	15
2	2403	460.594270787584	16
2	2404	461.249845830796	15
2	2408	461.440849055685	16
2	2409	462.388157724196	15
2	2413	462.445895572921	16
2	2415	463.243113795453	17
2	2416	463.537543090878	16
2	2419	464.364998078512	15
2	2423	464.688129596438	16
2	2426	465.536985709591	15
2	2430	466.451112113845	16
2	2432	466.628553036015	17
2	2433	466.717003898395	16
2	2437	467.035055457564	17
2	2438	467.762616754861	16
2	2442	467.979679987086	17
2	2444	468.097930207771	18
2	2445	468.840991371476	17
2	2449	469.225624616531	18
2	2451	469.247084186006	19
2	2453	469.365280022004	20
2	2454	469.721809814383	19
2	2458	470.589971259765	20
2	2459	470.729412672461	19
2	2463	471.061721396679	20
2	2464	471.742695018814	19
2	2468	472.611277722444	20
2	2470	472.657757449767	21
2	2471	472.89542447196	20
2	2475	473.022149242663	21
2	2476	473.738207389113	20
2	2482	474.246700558859	21
2	2483	474.681925089263	20
2	2489	475.099556909171	21
2	2490	475.497417043873	20
2	2494	475.952308386694	21
2	2495	476.41558250671	20
2	2499	476.870309283532	21
2	2500	477.317133836055	20
2	2504	477.514785127594	21
2	2505	478.256735230962	20
2	2510	479.416392936072	19
2	2515	480.410598145778	18
2	2519	480.891430567339	19
2	2520	481.252445988896	18
2	2523	482.422724524214	17
2	2529	483.287408208363	18
2	2531	483.531882089277	19
2	2532	483.536385828703	18
2	2536	483.93974945978	19
2	2537	484.475156317073	18
2	2541	484.6246644745	19
2	2542	485.336896090283	18
2	2545	486.288050667177	17
2	2549	486.927472287545	18
2	2550	487.261878991014	17
2	2554	488.181684525599	18
2	2555	488.362892542853	17
2	2559	488.368535517689	18
2	2561	489.280323536098	19
2	2562	489.328008698001	18
2	2565	490.476906315125	17
2	2569	490.922336652212	18
2	2570	491.383357501849	17
2	2573	492.35157624118	16
2	2577	492.947635206224	17
2	2579	493.188106295154	18
2	2580	493.498537986893	17
2	2584	493.6815482621	18
2	2586	494.150878820861	19
2	2587	494.538015010655	18
2	2591	494.840870731251	19
2	2592	495.458495002315	18
2	2596	495.913432824538	19
2	2598	496.429432300061	20
2	2599	496.482274453696	19
2	2602	497.406045514513	18
2	2605	498.225640947819	17
2	2609	498.552637477595	18
2	2611	499.233992487266	19
2	2612	499.352150133793	18
2	2616	499.362656610038	19
2	2617	500.187761750241	18
2	2621	500.868240872723	19
2	2623	501.296535146114	20
2	2624	501.356012735498	19
2	2628	501.443215484258	20
2	2630	501.455669099163	21
2	2632	502.211564558115	22
2	2633	502.400310236011	21
2	2637	502.782803277471	22
2	2639	502.836046117567	23
2	2640	503.368568059784	22
2	2643	504.259682075009	21
2	2647	505.052691983255	22
2	2648	505.217108495888	21
2	2651	506.342485790589	20
2	2655	506.457771057878	21
2	2657	506.563054795249	22
2	2658	507.401478687749	21
2	2662	508.049647872327	22
2	2664	508.1072205972	23
2	2665	508.271517042518	22
2	2669	508.770312744503	23
2	2670	509.325187414307	22
2	2674	509.981711244973	23
2	2675	510.331520301923	22
2	2679	510.964127417813	23
2	2680	511.307599286996	22
2	2684	511.403839655731	23
2	2687	512.412880900949	22
2	2691	512.505387054874	23
2	2693	513.047547593177	24
2	2694	513.574682156536	23
2	2698	514.170460432426	24
2	2699	514.651593323591	23
2	2702	515.541590833644	22
2	2705	516.428979174307	21
2	2709	517.17060003672	22
2	2711	517.312535660904	23
2	2712	517.41879507711	22
2	2716	518.255123104368	23
2	2717	518.359044718908	22
2	2721	518.721346610868	23
2	2722	519.436729930973	22
2	2726	520.209737344039	23
2	2727	520.453257699104	22
2	2731	520.878615172679	23
2	2732	521.516434725447	22
2	2735	522.414179977568	21
2	2739	522.906792158491	22
2	2741	523.015786116976	23
2	2742	523.611784599422	22
2	2746	524.172817664725	23
2	2747	524.486337003092	22
2	2751	525.149258077157	23
2	2752	525.584001203607	22
2	2755	526.740760748814	21
2	2759	527.5464462157	22
2	2760	527.74627891451	21
2	2764	528.095704237843	22
2	2766	528.589370875317	23
2	2767	528.866718890871	22
2	2770	529.679932162798	21
2	2774	530.481844792476	22
2	2775	530.760508388261	21
2	2779	531.011335310715	22
2	2781	531.37917455485	23
2	2782	531.714708976241	22
2	2786	531.914810882156	23
2	2788	532.662627709704	24
2	2789	532.826051792482	23
2	2793	533.142557210362	24
2	2794	533.959520379713	23
2	2798	534.027798421878	24
2	2799	535.033628313037	23
2	2803	536.001570687875	24
2	2804	536.12306146154	23
2	2808	536.568211081116	24
2	2809	537.229188068098	23
2	2813	537.537264675811	24
2	2814	538.197992546278	23
2	2817	539.11810042912	22
2	2820	540.281442885081	21
2	2823	541.21257466765	20
2	2826	542.11221611265	19
2	2830	542.92718108376	20
2	2832	543.15690572246	21
2	2833	543.222643037493	20
2	2837	543.277210874835	21
2	2839	544.2373574975	22
2	2840	544.325912441573	21
2	2844	544.436574168671	22
2	2846	544.99077252653	23
2	2847	545.27833239369	22
2	2851	545.555271069705	23
2	2852	546.350199651419	22
2	2855	547.409537069107	21
2	2859	547.934398717925	22
2	2861	547.985288434359	23
2	2862	548.317792997862	22
2	2865	549.144646071064	21
2	2869	549.368639881583	22
2	2873	549.671945335513	23
2	2875	549.879516420343	24
2	2876	550.304523506927	23
2	2880	550.542762368592	24
2	2881	551.463030242528	23
2	2885	551.753551914635	24
2	2886	552.537772451694	23
2	2890	553.106644860686	24
2	2891	553.557686408589	23
2	2896	554.55385021407	22
2	2899	555.361115469577	21
2	2903	555.407536180792	22
2	2905	556.393352487822	23
2	2906	556.445664530507	22
2	2913	557.545206167157	21
2	2917	558.541751732492	22
2	2918	558.586276368312	21
2	2921	559.771654323562	20
2	2925	560.192509056882	21
2	2926	560.782195824551	20
2	2929	561.930976453217	19
2	2933	562.282424967759	20
2	2935	563.009217769528	21
2	2936	563.036010221558	20
2	2940	563.305699180107	21
2	2941	564.150090225207	20
2	2945	564.23690628524	21
2	2947	564.794840834681	22
2	2950	565.232508667911	21
2	2954	565.261547058011	22
2	2955	566.086732904593	21
2	2959	567.061760613129	22
2	2960	567.203673579989	21
2	2963	568.397087002898	20
2	2967	568.570496454805	21
2	2969	569.173694876931	22
2	2970	569.492300378511	21
2	2973	570.389099066405	20
2	2978	571.527124613503	19
2	2982	572.085979533071	20
2	2983	572.682231748456	19
2	2987	572.74578209572	20
2	2989	573.547345516371	21
2	2991	573.718495290382	22
2	2992	573.805349607652	21
2	2996	573.960887773668	22
2	2998	574.248787189514	23
2	3000	574.268671989347	24
2	3002	574.373817256685	25
2	3003	574.610452479476	24
2	3009	575.053627023141	25
2	3010	575.491295473443	24
2	3014	575.916749667057	25
2	3015	576.640463787017	24
2	3019	576.883757423708	25
2	3020	577.657071638273	24
2	3024	577.664221581	25
2	3026	578.086088590714	26
2	3027	578.779402212592	25
2	3031	579.019319024701	26
2	3032	579.671421391124	25
2	3036	580.372833581796	26
2	3037	580.770832811834	25
2	3041	581.443972233892	26
2	3043	581.562401883269	27
2	3045	581.699168865348	28
2	3046	581.893158788399	27
2	3050	582.87238659975	28
2	3051	583.040268373375	27
2	3055	583.524111170747	28
2	3057	583.840074325647	29
2	3058	584.147821603694	28
2	3062	584.671860132786	29
2	3063	585.10066118471	28
2	3066	585.982736654651	27
2	3070	586.318166065492	28
2	3071	587.171103415058	27
2	3074	588.041017705553	26
2	3078	588.385885722826	27
2	3080	588.450998759571	28
2	3081	589.021735528555	27
2	3085	589.36669005342	28
2	3087	589.420653441234	29
2	3089	589.698354905078	30
2	3090	589.957142334409	29
2	3093	590.796957566939	28
2	3096	591.786872999347	27
2	3100	592.031562095039	28
2	3102	592.195653726526	29
2	3103	592.803376691579	28
2	3106	593.869461826305	27
2	3109	594.944439484994	26
2	3112	595.99142946729	25
2	3116	596.316129164597	26
2	3118	596.601622806949	27
2	3119	597.189131527744	26
2	3122	598.378646620247	25
2	3126	598.54816653938	26
2	3128	599.07354079984	27
2	3129	599.499203279126	26
2	3133	599.931814790378	27
2	3135	600.032171987142	28
2	3136	600.611905773613	27
2	3139	601.445394524909	26
2	3143	602.030548507962	27
2	3144	602.521869893442	26
2	3148	602.970628521337	27
2	3149	603.365482858825	26
2	3153	604.457396182916	27
2	3154	604.500702378597	26
2	3158	604.507367574751	27
2	3160	604.940265344648	28
2	3162	605.111174527096	29
2	3163	605.540871735826	28
2	3166	606.629010390282	27
2	3170	606.675788565606	28
2	3171	607.50784139752	27
2	3176	608.440626194492	26
2	3180	608.476383306374	27
2	3182	608.90213126807	28
2	3184	609.127307044771	29
2	3185	609.492751412444	28
2	3189	609.537959230818	29
2	3190	610.516608343251	28
2	3194	611.017499612927	29
2	3195	611.330515087467	28
2	3198	612.296700668313	27
2	3202	612.64143927918	28
2	3205	613.190926171352	27
2	3209	613.237249308959	28
2	3211	613.269633246254	29
2	3212	614.153522337952	28
2	3216	614.21898909408	29
2	3218	614.670635598642	30
2	3220	614.716029003881	31
2	3221	615.027255157826	30
2	3225	615.738332815367	31
2	3226	616.043189962653	30
2	3230	616.192759576063	31
2	3232	616.76259016455	32
2	3233	617.130813373977	31
2	3237	617.51751005311	32
2	3238	618.302181213701	31
2	3241	619.216499408407	30
2	3245	619.280426401081	31
2	3246	620.154656076224	30
2	3249	620.995444286128	29
2	3253	621.663524600234	30
2	3254	622.087916591463	29
2	3257	623.194604014305	28
2	3261	623.286608441753	29
2	3263	623.509128596757	30
2	3265	623.552772028334	31
2	3267	623.630550059657	32
2	3269	623.732594082674	33
2	3270	624.11517783839	32
2	3273	625.125094747056	31
2	3279	625.755211990047	32
2	3280	626.246977841553	31
2	3284	626.493157167586	32
2	3285	627.285239939649	31
2	3289	627.542709043827	32
2	3290	628.122810554389	31
2	3294	628.427430347778	32
2	3295	628.966229576223	31
2	3299	629.150402227607	32
2	3300	630.093066970982	31
2	3304	630.629197798579	32
2	3305	631.046022916377	31
2	3308	632.230609848515	30
2	3313	633.14178234318	29
2	3316	634.267166974654	28
2	3319	635.174193512721	27
2	3323	635.749613498645	28
2	3325	635.906631429808	29
2	3326	635.997520234415	28
2	3329	636.925543241368	27
2	3332	637.970890631133	26
2	3336	638.322662736003	27
2	3338	638.458050001448	28
2	3339	639.105917606109	27
2	3343	639.671184920354	28
2	3344	640.106059109678	27
2	3348	640.396618579144	28
2	3350	640.500845522305	29
2	3352	640.512361927191	30
2	3353	640.989596545675	29
2	3357	641.24993920757	30
2	3358	641.834759869219	29
2	3361	643.020560445895	28
2	3365	643.12742883098	29
2	3367	643.491718425456	30
2	3368	644.035775801519	29
2	3371	645.175900301224	28
2	3375	645.498354255958	29
2	3377	645.912949758605	30
2	3378	646.075128947085	29
2	3383	647.09758024996	28
2	3387	647.191608585492	29
2	3388	648.283702714349	28
2	3392	649.264465754125	29
2	3393	649.471929536088	28
2	3397	649.711056431201	29
2	3398	650.386675877756	28
2	3402	651.49806081914	29
2	3403	651.513170468322	28
2	3407	651.742495571376	29
2	3408	652.653839188701	28
2	3412	652.803818742228	29
2	3414	653.386473925855	30
2	3416	653.553779418993	31
2	3417	653.602721487711	30
2	3420	654.41420563057	29
2	3423	655.367258602082	28
2	3427	655.748900427875	29
2	3429	655.849079094508	30
2	3432	656.420237254239	29
2	3436	656.656960731436	30
2	3437	657.285889532398	29
2	3440	658.090747077837	28
2	3444	658.208376516982	29
2	3445	659.040151883456	28
2	3449	659.189740679697	29
2	3451	660.079554842705	30
2	3452	660.144687262717	29
2	3456	660.474209151169	30
2	3457	661.015594491716	29
2	3461	661.562417748151	30
2	3462	661.838989447597	29
2	3465	662.67990572907	28
2	3471	663.075529555342	29
2	3473	663.413301635668	30
2	3474	663.765953536406	29
2	3477	664.91726052247	28
2	3481	665.396560290981	29
2	3482	666.0132900385	28
2	3486	666.287921761013	29
2	3487	666.81681679029	28
2	3491	666.98838714979	29
2	3492	667.791896015573	28
2	3495	668.626025871727	27
2	3499	668.969576066114	28
2	3500	669.708485525455	27
2	3504	670.315880212081	28
2	3505	670.695588389393	27
2	3509	671.104240332754	28
2	3510	671.690862855855	27
2	3513	672.741783010754	26
2	3517	673.42995187362	27
2	3518	673.719696437921	26
2	3522	674.029894960931	27
2	3523	674.72200542733	26
2	3527	675.296075285592	27
2	3528	675.832253702897	26
2	3531	676.778325059246	25
2	3534	677.665228524413	24
2	3537	678.646796967164	23
2	3541	678.693863770373	24
2	3542	679.618672858347	23
2	3545	680.623068137356	22
2	3549	680.732368277649	23
2	3551	681.394063537935	24
2	3553	681.546116475498	25
2	3554	681.576326721889	24
2	3557	682.73624635663	23
2	3560	683.875348094647	22
2	3564	683.987438258377	23
2	3565	684.714526734297	22
2	3568	685.571496511419	21
2	3572	685.835600020713	22
2	3574	685.869849648488	23
2	3575	686.399481214472	22
2	3578	687.469957004749	21
2	3582	687.759803408098	22
2	3584	688.132690950548	23
2	3585	688.458902381808	22
2	3589	689.170682484697	23
2	3591	689.526263103342	24
2	3592	689.645628846139	23
2	3596	690.663326491436	24
2	3597	690.742319116257	23
2	3601	690.959812403114	24
2	3602	691.663088896293	23
2	3606	691.967157226826	24
2	3607	692.830143805574	23
2	3610	693.662166956886	22
2	3614	694.730357345243	23
2	3615	694.735440013352	22
2	3618	695.918482864815	21
2	3621	696.844467704351	20
2	3624	697.883599929399	19
2	3628	698.067921306158	20
2	3630	698.751119444263	21
2	3631	699.068376476671	20
2	3634	700.229412468969	19
2	3637	701.220311337131	18
2	3642	702.210159245207	17
2	3646	702.261662663065	18
2	3648	702.687394643823	19
2	3649	703.40793795146	18
2	3653	703.753734956829	19
2	3655	703.846725265436	20
2	3656	704.241200233511	19
2	3659	705.147573702018	18
2	3662	706.166123159583	17
2	3667	707.103298418205	16
2	3670	707.985679951012	15
2	3674	709.015109147481	16
2	3675	709.076372016203	15
2	3679	710.031376074493	16
2	3680	710.062510743719	15
2	3684	710.958223101981	16
2	3686	711.04486591056	17
2	3687	711.149236469791	16
2	3691	711.478922862072	17
2	3692	712.260154401307	16
2	3695	713.407354618126	15
2	3699	713.991427795048	16
2	3700	714.467610107531	15
2	3704	714.635653058108	16
2	3705	715.350114407093	15
2	3709	715.549294912941	16
2	3711	715.633042762278	17
2	3713	716.132576097742	18
2	3714	716.162689269037	17
2	3719	717.121414837689	16
2	3723	717.193892498989	17
2	3725	717.436298029309	18
2	3727	717.875302094086	19
2	3728	718.02675697839	18
2	3732	718.181561164906	19
2	3733	719.191063218826	18
2	3737	719.444394599322	19
2	3738	720.035689847992	18
2	3741	720.926071178709	17
2	3745	721.17445804494	18
2	3747	721.40172563133	19
2	3751	721.899401287793	20
2	3752	721.916808642615	19
2	3755	722.721991731115	18
2	3758	723.725391281005	17
2	3762	723.747559882691	18
2	3764	724.335711899855	19
2	3765	724.621651885547	18
2	3768	725.461043790709	17
2	3771	726.597010369673	16
2	3774	727.610258275065	15
2	3778	727.842661105886	16
2	3779	728.4165597542	15
2	3783	729.018617271765	16
2	3784	729.369941173754	15
2	3788	729.624044385921	16
2	3790	730.170871664548	17
2	3791	730.208086269236	16
2	3795	730.238106089879	17
2	3796	731.01609238794	16
2	3800	731.80685212441	17
2	3801	732.138482195026	16
2	3805	732.330181726142	17
2	3807	732.719400688859	18
2	3808	732.949855994413	17
2	3814	733.688254278869	18
2	3815	733.860756800024	17
2	3821	734.131536497475	18
2	3823	734.580118923127	19
2	3825	734.668241291543	20
2	3826	734.81884105278	19
2	3830	735.676655904107	20
2	3832	735.945466735482	21
2	3833	735.952138510326	20
2	3837	736.686159250971	21
2	3838	736.859065016432	20
2	3842	737.129259754973	21
2	3844	737.335584378933	22
2	3846	737.962032035715	23
2	3847	738.011422219666	22
2	3851	738.186206123014	23
2	3853	738.226335595308	24
2	3855	738.261426296206	25
2	3857	738.643753109124	26
2	3858	738.942243798802	25
2	3862	739.776969479353	26
2	3863	739.817493131178	25
2	3867	740.171078146486	26
2	3868	740.735619224215	25
2	3872	740.880645636945	26
2	3873	741.826350266187	25
2	3877	742.802181112484	26
2	3878	742.940192033982	25
2	3882	742.941634286072	26
2	3883	743.953531390781	25
2	3887	744.327135867709	26
2	3888	744.96211665131	25
2	3891	745.942040254994	24
2	3895	746.253131717782	25
2	3897	746.256847675081	26
2	3899	746.755409565276	27
2	3900	746.766961983385	26
2	3904	747.671229992886	27
2	3905	747.78405632384	26
2	3909	748.022353864267	27
2	3911	748.708197234224	28
2	3912	748.863858691117	27
2	3915	749.962582085261	26
2	3919	750.203147870358	27
2	3920	751.129742889831	26
2	3924	751.57338588335	27
2	3926	751.644847970277	28
2	3928	751.974777765854	29
2	3929	752.200738601925	28
2	3933	752.494091283951	29
2	3935	752.7038386478	30
2	3936	753.141741051784	29
2	3940	753.402299344403	30
2	3941	754.07846267985	29
2	3944	754.952191583233	28
2	3947	756.100224493889	27
2	3951	756.26424666498	28
2	3953	756.739686110059	29
2	3954	756.913687868023	28
2	3958	757.563411396832	29
2	3959	757.954065240899	28
2	3963	758.365944607063	29
2	3965	758.514836444321	30
2	3967	758.932168435974	31
2	3968	759.097004632352	30
2	3972	759.124523237644	31
2	3974	759.633711599989	32
2	3975	759.970485651659	31
2	3979	760.02780481975	32
2	3981	760.207277829246	33
2	3983	760.579659590025	34
2	3984	760.856989456227	33
2	3987	761.834254610518	32
2	3990	762.666446959114	31
2	3994	762.872174593765	32
2	3995	763.850121207888	31
2	3999	764.481542215003	32
2	4000	764.708309410865	31
2	4004	765.269447234229	32
2	4006	765.443220584711	33
2	4007	765.729990238583	32
2	4010	766.886179044636	31
2	4014	767.320540289887	32
2	4015	768.022175637426	31
2	4018	769.095904248653	30
2	4021	769.95704387443	29
2	4024	771.023968498296	28
2	4028	771.380530111677	29
2	4030	771.640572759582	30
2	4031	771.904698828495	29
2	4035	771.983246483475	30
2	4036	772.905551456361	29
2	4040	773.371039339612	30
2	4041	773.741042412705	29
2	4045	774.015858032221	30
2	4046	774.541327198575	29
2	4051	775.533241701293	28
2	4055	775.79222184894	29
2	4056	776.542044283896	28
2	4061	777.616765125915	27
2	4065	778.08986684629	28
2	4067	778.251140946574	29
2	4068	778.778685802389	28
2	4071	779.839785950892	27
2	4076	780.994509839807	26
2	4080	782.003152010543	27
2	4081	782.170373230782	26
2	4085	782.600328748812	27
2	4087	782.804945560204	28
2	4088	783.143637426273	27
2	4091	784.11101634035	26
2	4096	785.181410956458	25
2	4100	785.272662417031	26
2	4101	785.982198851258	25
2	4104	786.941605041251	24
2	4107	787.844680669234	23
2	4111	788.138836468845	24
2	4113	788.269351893091	25
2	4114	788.720586819836	24
2	4118	788.823356143024	25
2	4120	789.356579905841	26
2	4121	789.573762753961	25
2	4126	790.717234277335	24
2	4130	791.682589004802	25
2	4131	791.914906047639	24
2	4135	792.757818986082	25
2	4136	793.037734035198	24
2	4140	793.073024258233	25
2	4141	793.874715262447	24
2	4145	794.40725981938	25
2	4146	795.049654472601	24
2	4149	795.970092713535	23
2	4153	796.049647205694	24
2	4155	796.856138931887	25
2	4157	796.872167774878	26
2	4159	796.979632658341	27
2	4161	797.039716767953	28
2	4162	797.075631942488	27
2	4166	797.149674151857	28
2	4168	797.72801472708	29
2	4169	797.920945551507	28
2	4172	798.814676997419	27
2	4177	799.930911088716	26
2	4181	800.198794961384	27
2	4183	800.344780232998	28
2	4185	800.378081069744	29
2	4186	800.944593783822	28
2	4190	801.166542385443	29
2	4192	801.421495998915	30
2	4193	802.010327427257	29
2	4196	803.208663256355	28
2	4200	803.546580978396	29
2	4202	803.628548877309	30
2	4203	804.14090428574	29
2	4207	804.461242145443	30
2	4208	805.258381979335	29
2	4212	806.150826983551	30
2	4213	806.348325716685	29
2	4217	806.631265597775	30
2	4218	807.34084702095	29
2	4222	807.943255786336	30
2	4223	808.306181144975	29
2	4227	808.57178713858	30
2	4228	809.26493034035	29
2	4232	809.950676704339	30
2	4233	810.098453402315	29
2	4237	810.670093104218	30
2	4238	811.261450305749	29
2	4242	811.635091761484	30
2	4243	812.453484220598	29
2	4247	813.064719628713	30
2	4248	813.474395599291	29
2	4252	813.676622421374	30
2	4253	814.661799850297	29
2	4257	815.158165294531	30
2	4259	815.162488152479	31
2	4260	815.757356889807	30
2	4266	816.692462663584	31
2	4267	816.892670199536	30
2	4271	817.234630980033	31
2	4272	817.870468150433	30
2	4276	818.04101237718	31
2	4277	819.033199331611	30
2	4280	819.966852861531	29
2	4284	820.253299275359	30
2	4285	821.100393813737	29
2	4289	821.158959265415	30
2	4291	821.444649310206	31
2	4292	822.296913746912	30
2	4296	822.699389633559	31
2	4297	823.350850523524	30
2	4300	824.243734642752	29
2	4304	824.629369669337	30
2	4306	825.114223439386	31
2	4307	825.358830504288	30
2	4310	826.334747098834	29
2	4314	826.529018466073	30
2	4316	826.690821497314	31
2	4317	827.449828802404	30
2	4321	827.765174698194	31
2	4322	828.257648251747	30
2	4326	828.552168014819	31
2	4329	829.240758182836	30
2	4333	829.555349036267	31
2	4334	830.360689014831	30
2	4337	831.235199245048	29
2	4341	832.107950543339	30
2	4342	832.404511466884	29
2	4346	832.993385202548	30
2	4347	833.371847973001	29
2	4351	833.99135146195	30
2	4352	834.423674780951	29
2	4355	835.602577419561	28
2	4359	835.636288676016	29
2	4360	836.642454526649	28
2	4364	836.650477884546	29
2	4366	836.832954090677	30
2	4368	837.571329067897	31
2	4369	837.662352025584	30
2	4372	838.752522231248	29
2	4376	838.9324153795	30
2	4378	839.451601595288	31
2	4379	839.589985294063	30
2	4382	840.492065242287	29
2	4386	841.270725710541	30
2	4387	841.644307985883	29
2	4390	842.765288267173	28
2	4393	843.822755310945	27
2	4396	844.847292639855	26
2	4401	845.881416286044	25
2	4404	846.733536318857	24
2	4407	847.598783931304	23
2	4410	848.401101303455	22
2	4414	849.104181571518	23
2	4415	849.256840402522	22
2	4419	849.323552262679	23
2	4421	849.46992211768	24
2	4423	849.781755706859	25
2	4424	850.223461539932	24
2	4428	850.572389831236	25
2	4429	851.056027991586	24
2	4433	851.448833436324	25
2	4435	851.972416926602	26
2	4436	852.204961873666	25
2	4439	853.300904585496	24
2	4443	853.989687321408	25
2	4444	854.162561206129	24
2	4447	855.165349190385	23
2	4451	855.521553330318	24
2	4453	855.913246226295	25
2	4455	855.9509642276	26
2	4456	856.079279394709	25
2	4462	856.741191746889	26
2	4463	857.025085654743	25
2	4466	857.860554007236	24
2	4470	857.873661073081	25
2	4471	858.990260272082	24
2	4477	860.083030706309	25
2	4478	860.185590257105	24
2	4481	861.365271512308	23
2	4485	861.502770377578	24
2	4487	862.13590418904	25
2	4488	862.201524047349	24
2	4492	862.343579204909	25
2	4493	863.130863634199	24
2	4497	863.568298625384	25
2	4499	863.917318391401	26
2	4500	864.10014532784	25
2	4504	864.219145434492	26
2	4506	864.476325623238	27
2	4509	865.145025705248	26
2	4513	865.47176863822	27
2	4514	866.028812038135	26
2	4517	867.108515494112	25
2	4521	867.683087556266	26
2	4523	867.850209731246	27
2	4524	867.971722688973	26
2	4528	869.073394214548	27
2	4529	869.074206608702	26
2	4532	869.87498844944	25
2	4536	870.177833126087	26
2	4538	870.500128957041	27
2	4540	870.745416662089	28
2	4541	870.883441835251	27
2	4545	871.495185827876	28
2	4546	872.034364719205	27
2	4550	872.539495049204	28
2	4552	872.763580528752	29
2	4553	873.091989899967	28
2	4557	873.2342550731	29
2	4559	873.62985957393	30
2	4560	874.195851473957	29
2	4563	875.159034278877	28
2	4567	875.663668209837	29
2	4569	875.980599108107	30
2	4570	876.258326469343	29
2	4573	877.123749466594	28
2	4577	877.299141794679	29
2	4579	877.955397842123	30
2	4580	878.254150475822	29
2	4584	878.597578476859	30
2	4585	879.2108525737	29
2	4589	879.362691988296	30
2	4590	880.336971629951	29
2	4593	881.441969586518	28
2	4597	881.874351415723	29
2	4598	882.301338458322	28
2	4602	882.49435497933	29
2	4604	883.244188636976	30
2	4605	883.417432735283	29
2	4608	884.37233801622	28
2	4612	884.474736235058	29
2	4613	885.176029874087	28
2	4617	885.641690375688	29
2	4619	885.901061362473	30
2	4620	886.31996140739	29
2	4624	886.598533842537	30
2	4625	887.1272158603	29
2	4629	887.502841096774	30
2	4630	888.294950192124	29
2	4634	888.6153775125	30
2	4635	889.281734513101	29
2	4639	889.332311454104	30
2	4640	890.466770367213	29
2	4643	891.539260108192	28
2	4647	891.676856096842	29
2	4648	892.489414555002	28
2	4652	892.99054646381	29
2	4653	893.37563675072	28
2	4659	893.945568510295	29
2	4660	894.512273833416	28
2	4664	894.53769299559	29
2	4665	895.435055749844	28
2	4671	896.294267452477	29
2	4672	896.361322136204	28
2	4676	896.755530983582	29
2	4677	897.380506563726	28
2	4680	898.196547799724	27
2	4684	898.702146800605	28
2	4685	899.284663537684	27
2	4689	899.969383169633	28
2	4690	900.477935643288	27
2	4694	900.62199986087	28
2	4695	901.597072066812	27
2	4699	902.390198893408	28
2	4700	902.793046071267	27
2	4704	902.991999148927	28
2	4705	903.8234915979	27
2	4709	904.157837703603	28
2	4710	904.873814051578	27
2	4714	904.896844918498	28
2	4716	905.386793776768	29
2	4717	906.009417087471	28
2	4721	906.696633248153	29
2	4722	906.953655369652	28
2	4726	907.114155504602	29
2	4727	908.15008831851	28
2	4730	908.956674439719	27
2	4733	909.921557281705	26
2	4737	910.360164520898	27
2	4739	910.372737833498	28
2	4740	910.992458340599	27
2	4743	912.135711799915	26
2	4747	912.233643867308	27
2	4749	912.34214086341	28
2	4750	913.028005563355	27
2	4754	913.307506978347	28
2	4755	913.919509079381	27
2	4759	914.082527182811	28
2	4760	914.810685475337	27
2	4763	915.910362252014	26
2	4767	916.239208085817	27
2	4768	917.104218779298	26
2	4771	918.295779633316	25
2	4775	919.142947457788	26
2	4776	919.154489330276	25
2	4780	920.192934944032	26
2	4781	920.290642845611	25
2	4784	921.229512443933	24
2	4787	922.341280768606	23
2	4792	923.386803009062	22
2	4795	924.290675577967	21
2	4799	924.604298653155	22
2	4800	925.147970138843	21
2	4804	926.217229109118	22
2	4805	926.225493557359	21
2	4809	926.231111368588	22
2	4811	927.079347104652	23
2	4812	927.373585887699	22
2	4816	928.166994688389	23
2	4817	928.388348721413	22
2	4821	929.212393815239	23
2	4822	929.481490071936	22
2	4826	930.27883724475	23
2	4827	930.621760556454	22
2	4831	930.667980768658	23
2	4833	931.557215369973	24
2	4834	931.756663309204	23
2	4838	931.928895190976	24
2	4840	932.608742662662	25
2	4841	932.640200652162	24
2	4845	933.366743481673	25
2	4846	933.557754207941	24
2	4850	934.499173340672	25
2	4851	934.571993550917	24
2	4855	934.710650413268	25
2	4857	934.801863736879	26
2	4859	934.996708621237	27
2	4861	935.001901536851	28
2	4862	935.393876847977	27
2	4865	936.41579736823	26
2	4869	937.228451447427	27
2	4870	937.3918845034	26
2	4874	937.9006134986	27
2	4875	938.364316096881	26
2	4878	939.550421949921	25
2	4882	939.916006808377	26
2	4884	940.188556953009	27
2	4885	940.514927835183	26
2	4889	940.569004172112	27
2	4890	941.483870756419	26
2	4894	941.514929796959	27
2	4895	942.679369966199	26
2	4898	943.598477929158	25
2	4902	944.563076651356	26
2	4903	944.678234644586	25
2	4906	945.73128082806	24
2	4910	945.749353261231	25
2	4912	945.799422301538	26
2	4914	946.085733782553	27
2	4916	946.556110929664	28
2	4917	946.579104263873	27
2	4920	947.404339226966	26
2	4925	948.491361630501	25
2	4928	949.581676433494	24
2	4931	950.513721826931	23
2	4935	950.846297350014	24
2	4936	951.575737265849	23
2	4939	952.542860348129	22
2	4943	953.066405521819	23
2	4944	953.554503064023	22
2	4947	954.543243413677	21
2	4952	955.468812394494	20
2	4956	955.986906140954	21
2	4957	956.390774714833	20
2	4961	956.409709475612	21
2	4962	957.417049654366	20
2	4966	958.434090394901	21
2	4967	958.612900461049	20
2	4971	958.62730516002	21
2	4973	958.686307653604	22
2	4975	959.270044670145	23
2	4976	959.771065773607	22
2	4979	960.617435608783	21
2	4983	961.082077676317	22
2	4985	961.159042384049	23
2	4987	961.497285542802	24
2	4988	961.577992979788	23
2	4992	962.44810741087	24
2	4993	962.680188712177	23
2	4997	962.932289785297	24
2	4998	963.551211646737	23
2	5002	964.282584791886	24
2	5004	964.568968700453	25
2	5005	964.692555837405	24
2	5009	965.061060923009	25
2	5011	965.539732828967	26
2	5012	965.699521930029	25
2	5016	966.396868833261	26
2	5017	966.74440188946	25
2	5021	966.807394011262	26
2	5023	967.033114815691	27
2	5024	967.811472472528	26
2	5028	967.903584110803	27
2	5030	968.151110685569	28
2	5032	968.198301647016	29
2	5034	968.552402192675	30
2	5035	968.643725519607	29
2	5039	969.120224504293	30
2	5040	969.792811886108	29
2	5044	969.969213950121	30
2	5045	970.795450372601	29
2	5049	971.055505091423	30
2	5050	971.755051139908	29
2	5054	972.156377005352	30
2	5055	972.821860641407	29
2	5059	973.286862035371	30
2	5060	973.763266432637	29
2	5064	974.560687186584	30
2	5065	974.783379854055	29
2	5068	975.631168158891	28
2	5071	976.657014325893	27
2	5074	977.573418907335	26
2	5078	977.802387496624	27
2	5080	978.007842886241	28
2	5082	978.554122077654	29
2	5083	978.693305015823	28
2	5087	978.713610267145	29
2	5089	978.866692694487	30
2	5091	979.106274819289	31
2	5093	979.463319174114	32
2	5094	979.883317901453	31
2	5098	979.89813146525	32
2	5099	980.728447874615	31
2	5102	981.729812365377	30
2	5106	981.795606574216	31
2	5108	981.959644157013	32
2	5109	982.536738958468	31
2	5113	983.028423881373	32
2	5114	983.406558352595	31
2	5117	984.454333600102	30
2	5121	984.681115614818	31
2	5122	985.472497927098	30
2	5125	986.509454840215	29
2	5129	987.090630466649	30
2	5130	987.640845433695	29
2	5134	988.647204911397	30
2	5135	988.821783657165	29
2	5138	989.675645549109	28
2	5142	989.986242768934	29
2	5144	990.090884579331	30
2	5145	990.657265721986	29
2	5149	990.749458067773	30
2	5150	991.686397272048	29
2	5154	991.736969807385	30
2	5155	992.524187172463	29
2	5158	993.435930886099	28
2	5161	994.507580907902	27
2	5165	994.714667833782	28
2	5166	995.411872462629	27
2	5170	995.986015365705	28
2	5172	996.207850203285	29
2	5173	996.218305429703	28
2	5177	997.030049754069	29
2	5178	997.106960339265	28
2	5181	997.945474711785	27
2	5185	998.522560260944	28
2	5186	999.108278800899	27
2	5190	999.326194253057	28
2	5192	999.624825996781	29
2	5193	1000.135621374825	28
2	5196	1001.028828623218	27
2	5200	1001.765967970457	28
2	5201	1001.916529813202	27
2	5205	1002.239958184364	28
2	5207	1002.688839368178	29
2	5208	1002.77917232381	28
2	5211	1003.660264573785	27
2	5215	1003.682396476922	28
2	5217	1003.691080877588	29
2	5219	1004.005694110079	30
2	5220	1004.507115616816	29
2	5224	1004.571079190493	30
2	5226	1005.087146553413	31
2	5227	1005.594408151488	30
2	5230	1006.676727313808	29
2	5234	1007.006114776827	30
2	5235	1007.671219892128	29
2	5238	1008.665587666611	28
2	5241	1009.540571282225	27
2	5245	1009.969366935582	28
2	5246	1010.489890067911	27
2	5250	1011.444989362562	28
2	5251	1011.647322617172	27
2	5255	1012.53079173842	28
2	5256	1012.592937460149	27
2	5260	1013.637842222047	28
2	5261	1013.775657376627	27
2	5264	1014.629302503242	26
2	5268	1015.590433397577	27
2	5269	1015.677946606259	26
2	5273	1015.78649348943	27
2	5275	1016.669577672101	28
2	5276	1016.764686992652	27
2	5280	1016.925095413715	28
2	5282	1017.149338760374	29
2	5284	1017.341535233256	30
2	5286	1017.703071393781	31
2	5287	1017.891828830335	30
2	5291	1018.826392298088	31
2	5292	1018.917563506569	30
2	5296	1019.037074677453	31
2	5298	1019.332511922972	32
2	5299	1019.97061131874	31
2	5305	1020.454945176228	32
2	5309	1020.835192227682	33
2	5310	1021.099192142094	32
2	5313	1022.158676857016	31
2	5317	1022.928242928332	32
2	5318	1023.082750976066	31
2	5322	1023.346396032631	32
2	5324	1023.80920510011	33
2	5325	1024.213588906712	32
2	5328	1025.171470647658	31
2	5331	1026.272310317381	30
2	5335	1026.59921578259	31
2	5336	1027.166351428794	30
2	5340	1027.511754345679	31
2	5342	1027.576464010441	32
2	5344	1027.656205754398	33
2	5345	1028.203590695447	32
2	5351	1028.548671018881	33
2	5352	1029.220182968191	32
2	5355	1030.072119344565	31
2	5358	1030.924719292371	30
2	5362	1031.537280249949	31
2	5363	1031.836377781516	30
2	5367	1032.453713361727	31
2	5368	1032.810123242324	30
2	5371	1033.900366037784	29
2	5375	1034.729759596432	30
2	5376	1035.004331162551	29
2	5379	1036.149426202548	28
2	5383	1036.433384121444	29
2	5385	1036.912127406009	30
2	5387	1037.018845506157	31
2	5388	1037.240954672803	30
2	5391	1038.056527317573	29
2	5395	1038.197392844901	30
2	5396	1039.032058961481	29
2	5400	1039.241363558517	30
2	5402	1039.470749437024	31
2	5404	1039.598252215489	32
2	5406	1039.732623487345	33
2	5407	1040.186711982243	32
2	5411	1040.716968379205	33
2	5414	1041.303190319032	32
2	5418	1041.61885515905	33
2	5420	1042.077280272558	34
2	5421	1042.240276592948	33
2	5425	1042.290045974276	34
2	5427	1042.532712974763	35
2	5429	1042.967231792567	36
2	5430	1043.375153955982	35
2	5434	1044.014053128718	36
2	5435	1044.567785010465	35
2	5439	1045.010420869685	36
2	5440	1045.60104734942	35
2	5443	1046.634073786043	34
2	5447	1047.165507732566	35
2	5448	1047.710700219941	34
2	5451	1048.776390209307	33
2	5456	1049.668156520628	32
2	5460	1049.834746773398	33
2	5461	1050.691113949266	32
2	5464	1051.541001067382	31
2	5468	1052.036737647615	32
2	5469	1052.439327720717	31
2	5473	1052.555389420362	32
2	5476	1053.604180451181	31
2	5479	1054.728795042612	30
2	5482	1055.545227513161	29
2	5485	1056.428055898823	28
2	5489	1057.018982644018	29
2	5490	1057.547027102184	28
2	5494	1057.811500584662	29
2	5495	1058.514762959328	28
2	5499	1059.015787202195	29
2	5500	1059.425082247869	28
2	5504	1059.651543959206	29
2	5506	1059.80719345213	30
2	5507	1060.571304329836	29
2	5511	1061.270615515521	30
2	5512	1061.683820687865	29
2	5515	1062.558742596374	28
2	5518	1063.689469162912	27
2	5522	1063.753446283734	28
2	5524	1064.564661947516	29
2	5525	1064.850281823126	28
2	5529	1065.559138467902	29
2	5530	1065.981299724129	28
2	5533	1066.958839056619	27
2	5537	1067.539036608208	28
2	5538	1067.792089337275	27
2	5542	1068.350156141748	28
2	5544	1068.478619802497	29
2	5545	1068.733136201535	28
2	5548	1069.873970854261	27
2	5551	1070.750278224402	26
2	5555	1071.044163187213	27
2	5557	1071.33077661109	28
2	5559	1071.626462992379	29
2	5561	1071.6721349069	30
2	5563	1071.815187483997	31
2	5564	1071.9026376087	30
2	5568	1072.960229320059	31
2	5569	1073.101681696322	30
2	5573	1073.898187061551	31
2	5574	1074.274434550364	30
2	5578	1074.302302665478	31
2	5579	1075.300106656623	30
2	5583	1075.574062997424	31
2	5586	1076.193703833387	30
2	5590	1076.499986211393	31
2	5592	1077.088192350083	32
2	5593	1077.233348815867	31
2	5597	1077.528280545581	32
2	5598	1078.159117436295	31
2	5601	1079.177729807866	30
2	5604	1080.057096731642	29
2	5607	1081.145185764672	28
2	5611	1081.173177278646	29
2	5614	1082.088092955274	28
2	5619	1083.243101542143	27
2	5622	1084.294092384985	26
2	5626	1084.466298276023	27
2	5628	1085.310031603599	28
2	5629	1085.474116069524	27
2	5633	1086.05873110316	28
2	5635	1086.367604575278	29
2	5636	1086.577171306385	28
2	5640	1087.054231300579	29
2	5642	1087.161111113902	30
2	5644	1087.343128763748	31
2	5645	1087.756867935954	30
2	5649	1088.436809136228	31
2	5651	1088.466602833783	32
2	5653	1088.472634286166	33
2	5654	1088.931216949204	32
2	5658	1089.123713982803	33
2	5659	1090.089067411961	32
2	5663	1090.595149818037	33
2	5664	1090.946730893457	32
2	5667	1092.011871681155	31
2	5670	1092.917789715414	30
2	5674	1092.97207005245	31
2	5675	1093.769425953717	30
2	5679	1094.622360011759	31
2	5680	1094.694469854587	30
2	5684	1094.810611723286	31
2	5685	1095.692728747779	30
2	5689	1096.11778327328	31
2	5691	1096.181020873305	32
2	5692	1096.867070334477	31
2	5695	1097.844372614359	30
2	5699	1098.1921893274	31
2	5701	1098.519492190682	32
2	5702	1099.031116093115	31
2	5706	1099.421232108997	32
2	5710	1099.876461377615	33
2	5711	1100.211450795994	32
2	5715	1100.338069222632	33
2	5717	1100.441096738827	34
2	5718	1101.259158825015	33
2	5722	1101.366597618205	34
2	5724	1101.575824147143	35
2	5725	1102.100183208452	34
2	5728	1103.084196153355	33
2	5732	1103.796567853817	34
2	5733	1104.265663065926	33
2	5737	1104.544326269204	34
2	5739	1105.117325927561	35
2	5740	1105.265609921866	34
2	5743	1106.461641953771	33
2	5747	1106.653418725914	34
2	5748	1107.313689714928	33
2	5752	1107.802774462519	34
2	5753	1108.492316338491	33
2	5757	1108.880395303606	34
2	5759	1109.602386535918	35
2	5760	1109.602917248454	34
2	5763	1110.696550822888	33
2	5767	1111.293437695857	34
2	5769	1111.384918221861	35
2	5770	1111.68635079337	34
2	5774	1112.298819611422	35
2	5776	1112.590092099779	36
2	5777	1112.855951035094	35
2	5780	1113.700200729609	34
2	5784	1114.024528931533	35
2	5786	1114.232158181185	36
2	5787	1114.646367461864	35
2	5790	1115.622532873392	34
2	5794	1116.652864793771	35
2	5795	1116.693611399434	34
2	5799	1116.754988762809	35
2	5800	1117.54452835552	34
2	5804	1118.146538030935	35
2	5805	1118.371370394878	34
2	5809	1118.872144943485	35
2	5810	1119.334533323511	34
2	5813	1120.286282330915	33
2	5818	1121.159296707134	32
2	5822	1121.624630190237	33
2	5823	1122.113584693871	32
2	5827	1122.15593436787	33
2	5829	1122.769428512113	34
2	5831	1122.789346215963	35
2	5832	1123.282899499196	34
2	5836	1124.446622092158	35
2	5837	1124.449187508389	34
2	5840	1125.259171124525	33
2	5845	1126.320495959907	32
2	5851	1126.951913976299	33
2	5852	1127.275296376064	32
2	5856	1127.446230171193	33
2	5857	1128.400188985537	32
2	5861	1128.477866146767	33
2	5862	1129.238220065995	32
2	5866	1129.572446492583	33
2	5868	1130.103007466001	34
2	5869	1130.202730334434	33
2	5873	1130.259361637154	34
2	5875	1130.885759683401	35
2	5876	1131.263779353793	34
2	5880	1131.402533321291	35
2	5881	1132.293030445441	34
2	5884	1133.406443175557	33
2	5890	1134.40485517254	34
2	5891	1134.490421898267	33
2	5895	1134.502843921932	34
2	5897	1134.887666894106	35
2	5899	1135.655770981197	36
2	5900	1135.684761259868	35
2	5904	1136.168001790322	36
2	5905	1136.833104167949	35
2	5909	1137.408933052279	36
2	5910	1137.675936567202	35
2	5914	1138.089375956736	36
2	5917	1138.845839719079	35
2	5920	1139.90304750118	34
2	5923	1140.840908957529	33
2	5926	1141.641104110493	32
2	5930	1141.689165090811	33
2	5931	1142.559309046692	32
2	5935	1143.395284726732	33
2	5936	1143.659783231164	32
2	5940	1144.132116601358	33
2	5941	1144.781533305789	32
2	5945	1145.59138124908	33
2	5946	1145.840175804938	32
2	5950	1145.980927645639	33
2	5951	1146.749049173179	32
2	5955	1146.840034468985	33
2	5956	1147.702496581967	32
2	5959	1148.509026659257	31
2	5963	1148.822897373747	32
2	5965	1149.21493998555	33
2	5966	1149.490669291443	32
2	5970	1149.893845245848	33
2	5971	1150.319592649094	32
2	5974	1151.426109416387	31
2	5978	1151.672433875569	32
2	5979	1152.594497855171	31
2	5982	1153.535593447998	30
2	5986	1153.792803823984	31
2	5987	1154.348918839987	30
2	5991	1155.113905001316	31
2	5992	1155.298034914001	30
2	5996	1155.631861101092	31
2	5997	1156.107061446156	30
2	6001	1157.120308531664	31
2	6002	1157.277113592881	30
2	6005	1158.4549851096	29
2	6009	1159.177529200719	30
2	6010	1159.377772666956	29
2	6014	1159.897991059258	30
2	6015	1160.346425743191	29
2	6019	1160.757913356044	30
2	6020	1161.325081779691	29
2	6024	1161.574960695325	30
2	6026	1162.217156728918	31
2	6027	1162.43642555864	30
2	6030	1163.587672620988	29
2	6034	1164.085855900929	30
2	6035	1164.703261624346	29
2	6039	1164.986914913669	30
2	6041	1165.192106536791	31
2	6043	1165.621635398212	32
2	6044	1165.666610922361	31
2	6049	1166.606090448307	30
2	6053	1166.643224704079	31
2	6055	1166.738802058881	32
2	6056	1167.528591133909	31
2	6060	1168.207739228701	32
2	6062	1168.521864768407	33
2	6064	1168.587365932636	34
2	6065	1168.641952971251	33
2	6069	1168.689661196997	34
2	6071	1168.900502602096	35
2	6073	1169.164906324269	36
2	6074	1169.76244891954	35
2	6078	1170.243822219333	36
2	6081	1170.736150089534	35
2	6085	1170.986714157237	36
2	6087	1171.350700049175	37
2	6088	1171.81015280222	36
2	6092	1172.444222606273	37
2	6093	1172.632520944601	36
2	6097	1173.154371604648	37
2	6098	1173.646081503363	36
2	6102	1173.816766730572	37
2	6104	1174.223435425084	38
2	6105	1174.452525368588	37
2	6108	1175.253135473257	36
2	6111	1176.161879389057	35
2	6115	1176.559428588956	36
2	6117	1176.763018056769	37
2	6118	1177.120855794543	36
2	6121	1178.134628211217	35
2	6125	1178.528818030029	36
2	6126	1178.967341737425	35
2	6129	1179.881328648398	34
2	6133	1180.727342637484	35
2	6134	1180.73244593346	34
2	6138	1181.353690550358	35
2	6139	1181.626245068735	34
2	6143	1182.031074750662	35
2	6144	1182.713290822575	34
2	6148	1183.527384686827	35
2	6149	1183.7533019874	34
2	6153	1183.810794961372	35
2	6155	1184.421073350852	36
2	6156	1184.608149470644	35
2	6160	1184.858929736324	36
2	6161	1185.642322957491	35
2	6165	1185.976720603996	36
2	6167	1186.166730889294	37
2	6169	1186.259064684387	38
2	6170	1186.828721009915	37
2	6174	1186.891756385176	38
2	6175	1187.861902967443	37
2	6179	1188.603740151434	38
2	6180	1189.00582583451	37
2	6183	1190.15158502755	36
2	6187	1190.167226876311	37
2	6189	1190.828145334653	38
2	6191	1191.075990507951	39
2	6192	1191.182308259395	38
2	6196	1191.988569941252	39
2	6198	1192.063546919759	40
2	6199	1192.196283368648	39
2	6205	1193.151635037796	40
2	6206	1193.317550844767	39
2	6210	1194.257051776757	40
2	6211	1194.377369323999	39
2	6215	1194.433865667825	40
2	6216	1195.533258003716	39
2	6220	1196.083955690776	40
2	6222	1196.42357767875	41
2	6223	1196.584486158074	40
2	6226	1197.45970972867	39
2	6230	1197.943438518903	40
2	6231	1198.491437372819	39
2	6235	1198.957220495268	40
2	6237	1198.984678121674	41
2	6238	1199.320481031642	40
2	6241	1200.163186084919	39
2	6245	1200.952725044031	40
2	6246	1201.126098643963	39
2	6249	1201.95877033544	38
2	6253	1202.015824064297	39
2	6255	1202.041890017377	40
2	6257	1202.730664569425	41
2	6258	1202.89138231247	40
2	6262	1202.991058700315	41
2	6264	1203.324919186066	42
2	6265	1204.053386479777	41
2	6269	1204.124797487548	42
2	6270	1205.087970625025	41
2	6273	1206.086234361187	40
2	6277	1206.0892509775	41
2	6278	1207.026664800637	40
2	6282	1207.563996626529	41
2	6283	1207.91188152048	40
2	6286	1208.760063043956	39
2	6289	1209.956796391841	38
2	6292	1210.985149692252	37
2	6296	1211.926155013936	38
2	6297	1212.024625433676	37
2	6301	1212.478274361019	38
2	6305	1212.864158142283	39
2	6306	1212.891434335217	38
2	6310	1212.971527679582	39
2	6312	1213.510110395231	40
2	6313	1213.776089930043	39
2	6317	1213.838709363341	40
2	6319	1214.287545471064	41
2	6320	1214.856298575152	40
2	6323	1215.807601383489	39
2	6327	1215.811817255744	40
2	6328	1216.865864863314	39
2	6332	1216.944478890431	40
2	6333	1218.005396911383	39
2	6339	1218.29698455462	40
2	6340	1219.019732094437	39
2	6344	1219.904501174821	40
2	6345	1220.034509574223	39
2	6348	1221.17133530413	38
2	6351	1222.314277224682	37
2	6355	1222.67884796436	38
2	6356	1223.275615238279	37
2	6360	1223.352262284774	38
2	6361	1224.177815864582	37
2	6365	1224.834564542131	38
2	6367	1225.105062152378	39
2	6368	1225.278072369725	38
2	6372	1226.047985448988	39
2	6374	1226.219601597195	40
2	6376	1226.267727439425	41
2	6377	1226.46646563017	40
2	6381	1226.788507462457	41
2	6382	1227.316568136096	40
2	6386	1227.454974220486	41
2	6388	1227.993482376822	42
2	6389	1228.325382639442	41
2	6392	1229.396952629995	40
2	6396	1229.770444981746	41
2	6398	1229.82297051532	42
2	6400	1230.305183173804	43
2	6401	1230.478917157066	42
2	6405	1230.542066332421	43
2	6406	1231.421228683901	42
2	6410	1231.73018731219	43
2	6411	1232.358806270895	42
2	6414	1233.246902242092	41
2	6417	1234.177267393166	40
2	6421	1234.710815432607	41
2	6423	1235.045815721463	42
2	6424	1235.256436676321	41
2	6428	1235.513340607971	42
2	6429	1236.307416902271	41
2	6432	1237.378341417921	40
2	6435	1238.217051297681	39
2	6438	1239.174090430302	38
2	6443	1240.164644398609	37
2	6447	1240.701539158415	38
2	6448	1241.145701498328	37
2	6451	1242.248098323284	36
2	6455	1242.678333265709	37
2	6456	1243.257108130748	36
2	6459	1244.159329372528	35
2	6463	1244.570378776869	36
2	6465	1244.70366408714	37
2	6466	1245.119085569284	36
2	6470	1245.785801264161	37
2	6473	1246.052351167775	36
2	6477	1246.131249404211	37
2	6479	1246.44480922563	38
2	6481	1246.537405864194	39
2	6483	1246.547192242341	40
2	6484	1247.018441729876	39
2	6488	1247.8064710949	40
2	6489	1247.982130963146	39
2	6493	1248.055857706886	40
2	6495	1248.367540093892	41
2	6497	1248.522211897188	42
2	6498	1248.785282442137	41
2	6502	1249.218565930068	42
2	6505	1249.591500943783	41
2	6509	1249.815983942344	42
2	6510	1250.494684606581	41
2	6513	1251.619355820282	40
2	6517	1252.306205135858	41
2	6518	1252.68621786104	40
2	6524	1253.648587893165	41
2	6526	1253.817279645615	42
2	6527	1253.862296810257	41
2	6530	1254.959427990741	40
2	6534	1255.510815336652	41
2	6535	1255.78773435622	40
2	6540	1256.632966978545	39
2	6544	1257.369181789463	40
2	6545	1257.613052756223	39
2	6549	1257.720676593052	40
2	6552	1258.499087522715	39
2	6556	1258.580711495231	40
2	6558	1258.782448594586	41
2	6559	1259.37647590458	40
2	6563	1259.435807505591	41
2	6565	1260.010163164044	42
2	6566	1260.515795568634	41
2	6570	1260.653924384947	42
2	6571	1261.559993905831	41
2	6575	1262.232635340825	42
2	6578	1262.435570697557	41
2	6581	1263.291823962029	40
2	6585	1263.433979204713	41
2	6586	1264.305500836927	40
2	6589	1265.235345383897	39
2	6593	1266.160167284025	40
2	6594	1266.426698566578	39
2	6598	1266.951044073302	40
2	6599	1267.46272785205	39
2	6603	1268.147115968046	40
2	6604	1268.288758519176	39
2	6608	1269.12785728448	40
2	6609	1269.193019742589	39
2	6613	1269.32949136203	40
2	6614	1270.043829001277	39
2	6618	1270.261657802886	40
2	6620	1270.412988791968	41
2	6622	1270.44730382156	42
2	6624	1271.024266084736	43
2	6625	1271.142833786248	42
2	6629	1271.198556868736	43
2	6630	1272.297653103969	42
2	6635	1273.295836171671	41
2	6639	1273.514029901985	42
2	6641	1273.706325137644	43
2	6642	1274.33657050326	42
2	6645	1275.516290530912	41
2	6649	1276.305858746675	42
2	6650	1276.487108040019	41
2	6654	1276.622920772324	42
2	6655	1277.565485921386	41
2	6659	1277.686710990346	42
2	6660	1278.680765352096	41
2	6664	1279.396133163684	42
2	6665	1279.712013200368	41
2	6668	1280.891190288193	40
2	6671	1282.05206082936	39
2	6675	1282.850882105133	40
2	6676	1282.927421550151	39
2	6679	1283.76367636656	38
2	6682	1284.763335620031	37
2	6686	1285.168366694344	38
2	6687	1285.694397101157	37
2	6691	1285.823434928086	38
2	6693	1286.389325444153	39
2	6694	1286.874610259828	38
2	6697	1288.029907601957	37
2	6701	1288.041577114743	38
2	6703	1288.25056884147	39
2	6705	1288.348689921543	40
2	6707	1288.907303709195	41
2	6708	1289.076638437972	40
2	6712	1289.247908347378	41
2	6714	1289.302883886148	42
2	6716	1289.512329137779	43
2	6717	1289.988907853958	42
2	6721	1290.006358867236	43
2	6723	1290.469031888099	44
2	6724	1291.161837872562	43
2	6728	1291.71139234364	44
2	6729	1292.144986917243	43
2	6735	1292.877031711548	44
2	6736	1293.226272481286	43
2	6740	1293.40291797874	44
2	6741	1294.034261459277	43
2	6745	1294.224238344658	44
2	6748	1295.095495399998	43
2	6752	1296.023816895417	44
2	6753	1296.073887519517	43
2	6756	1296.936075408083	42
2	6759	1297.927080090881	41
2	6763	1298.87303941419	42
2	6764	1298.920585678589	41
2	6767	1299.941597829923	40
2	6771	1300.114044009295	41
2	6773	1300.460805022104	42
2	6774	1300.824992822181	41
2	6778	1300.826625939516	42
2	6780	1301.489730546082	43
2	6783	1301.741052822746	42
2	6789	1302.601105910798	43
2	6790	1302.717577668722	42
2	6794	1303.183380521734	43
2	6796	1303.317487644861	44
2	6797	1303.727947310521	43
2	6800	1304.562640407099	42
2	6804	1305.158534319318	43
2	6805	1305.625993927265	42
2	6808	1306.590819147299	41
2	6812	1307.362748915368	42
2	6813	1307.749230185966	41
2	6816	1308.837716045673	40
2	6820	1309.544340244307	41
2	6821	1309.884872255079	40
2	6824	1310.776042660303	39
2	6828	1311.929091995404	40
2	6829	1311.959139525868	39
2	6833	1312.403580602078	40
2	6835	1312.659291725222	41
2	6836	1313.158685100615	40
2	6840	1313.792903342922	41
2	6842	1313.885419472486	42
2	6843	1314.036173655722	41
2	6846	1315.027210858069	40
2	6850	1315.133981952775	41
2	6854	1315.483917270739	42
2	6855	1316.175469137612	41
2	6858	1317.003901207796	40
2	6861	1317.831295356783	39
2	6864	1318.840119648608	38
2	6867	1319.804584867856	37
2	6871	1319.90050184047	38
2	6873	1320.555450604207	39
2	6874	1320.746259114774	38
2	6878	1321.186028395821	39
2	6879	1321.872581723867	38
2	6883	1322.419741509516	39
2	6885	1322.568728279127	40
2	6887	1322.593799091373	41
2	6888	1322.932260024151	40
2	6891	1323.778671477525	39
2	6895	1324.393822736781	40
2	6897	1324.470556043096	41
2	6899	1324.615362955962	42
2	6901	1324.706494500405	43
2	6902	1324.900170135195	42
2	6905	1326.058144198055	41
2	6908	1326.955018768529	40
2	6912	1327.430986493059	41
2	6913	1328.027468562661	40
2	6917	1328.819866364733	41
2	6918	1328.836770959081	40
2	6922	1329.320715017094	41
2	6923	1329.750387408281	40
2	6927	1329.865960865225	41
2	6928	1330.786193711845	40
2	6932	1330.859821941639	41
2	6934	1331.791148643233	42
2	6935	1331.855077864112	41
2	6939	1332.236355589798	42
2	6940	1332.871092749828	41
2	6943	1333.876793552631	40
2	6946	1335.03933609051	39
2	6950	1335.59505240636	40
2	6952	1335.935773007031	41
2	6953	1336.180757707891	40
2	6957	1336.243570013505	41
2	6958	1337.301196768575	40
2	6963	1338.457561816156	39
2	6966	1339.453114685763	38
2	6969	1340.382753187299	37
2	6973	1340.454724797177	38
2	6975	1340.57137431171	39
2	6976	1341.429997575723	38
2	6980	1341.628850552334	39
2	6981	1342.437864250664	38
2	6985	1342.691626783872	39
2	6987	1343.236729032171	40
2	6988	1343.332686581903	39
2	6991	1344.365251123694	38
2	6995	1344.722693689582	39
2	6997	1345.279598238662	40
2	6998	1345.327194234611	39
2	7002	1345.356541460794	40
2	7004	1345.608795324318	41
2	7006	1345.889033223715	42
2	7008	1346.408475221747	43
2	7009	1346.442540332092	42
2	7013	1346.866570058493	43
2	7015	1347.018274277095	44
2	7017	1347.305183696328	45
2	7019	1347.556765646411	46
2	7020	1347.579245033463	45
2	7023	1348.46713979428	44
2	7026	1349.567246394952	43
2	7030	1349.69257311071	44
2	7032	1349.891637267926	45
2	7033	1350.41198084594	44
2	7037	1350.579350295919	45
2	7039	1351.080682726164	46
2	7041	1351.167796239175	47
2	7042	1351.35246791241	46
2	7046	1351.768042342084	47
2	7048	1352.193007561157	48
2	7049	1352.231851032351	47
2	7052	1353.37726015446	46
2	7056	1353.849503024826	47
2	7058	1354.004645350323	48
2	7059	1354.251293547333	47
2	7063	1354.939265104822	48
2	7064	1355.173841542725	47
2	7067	1356.122755054359	46
2	7070	1357.221285314926	45
2	7073	1358.089316532084	44
2	7077	1358.36061341116	45
2	7079	1358.929599581204	46
2	7080	1358.952889305328	45
2	7084	1359.326368075337	46
2	7085	1359.894526999512	45
2	7089	1360.033815760583	46
2	7090	1360.926744317145	45
2	7093	1361.971836674188	44
2	7096	1362.776356095795	43
2	7100	1363.474514841707	44
2	7102	1363.740163345574	45
2	7103	1363.902937461783	44
2	7106	1364.774252810024	43
2	7110	1364.981028679801	44
2	7112	1365.128805050677	45
2	7114	1365.575605059183	46
2	7115	1365.612816499986	45
2	7118	1366.560826342155	44
2	7121	1367.668772678797	43
2	7124	1368.528355221611	42
2	7128	1369.241156987527	43
2	7129	1369.413874275584	42
2	7132	1370.302280884117	41
2	7135	1371.496911704887	40
2	7138	1372.646895363994	39
2	7141	1373.594226640064	38
2	7144	1374.504437181234	37
2	7147	1375.509489130575	36
2	7151	1376.585123647586	37
2	7152	1376.626365866672	36
2	7156	1377.404288829226	37
2	7158	1377.550951464591	38
2	7159	1377.559272844877	37
2	7162	1378.473754075143	36
2	7166	1378.74750729546	37
2	7167	1379.434940303929	36
2	7171	1379.521450442516	37
2	7172	1380.51352952772	36
2	7176	1380.830388861337	37
2	7178	1380.956829724488	38
2	7179	1381.654401203498	37
2	7183	1381.733518850587	38
2	7184	1382.720494896985	37
2	7188	1382.94186129779	38
2	7192	1383.209278158077	39
2	7194	1383.519074344872	40
2	7195	1383.629685270666	39
2	7199	1383.939258456093	40
2	7200	1384.813041931922	39
2	7204	1385.353398473879	40
2	7206	1385.63830624502	41
2	7208	1385.733812987501	42
2	7209	1386.010345199863	41
2	7213	1386.223916336039	42
2	7214	1387.130942719868	41
2	7218	1387.195008487014	42
2	7220	1387.214150696079	43
2	7222	1387.226409378735	44
2	7224	1388.159501542799	45
2	7225	1388.322058207607	44
2	7229	1389.008200181905	45
2	7231	1389.161021750655	46
2	7232	1389.520158962319	45
2	7236	1390.533280061129	46
2	7237	1390.717919089152	45
2	7240	1391.541176665267	44
2	7243	1392.383459501965	43
2	7247	1393.102221802544	44
2	7248	1393.531092149084	43
2	7251	1394.393838067883	42
2	7255	1394.535708035048	43
2	7256	1395.279554433999	42
2	7259	1396.339427183726	41
2	7263	1396.591620385163	42
2	7264	1397.526286519383	41
2	7267	1398.632942879357	40
2	7271	1399.523412987536	41
2	7273	1399.66624845393	42
2	7275	1399.679326900403	43
2	7276	1399.701689165615	42
2	7279	1400.653165783797	41
2	7283	1400.721586751945	42
2	7285	1401.523383966285	43
2	7286	1401.79859027068	42
2	7289	1402.757405351073	41
2	7292	1403.610550419957	40
2	7295	1404.601425825961	39
2	7298	1405.448181444749	38
2	7301	1406.334080727182	37
2	7305	1406.525737696768	38
2	7306	1407.254689363826	37
2	7309	1408.27751683506	36
2	7313	1409.09385733218	37
2	7315	1409.181051299352	38
2	7316	1409.201356731605	37
2	7319	1410.170459246885	36
2	7323	1410.474131898002	37
2	7324	1411.008665390842	36
2	7328	1412.05341496759	37
2	7329	1412.073278108023	36
2	7333	1412.508913638187	37
2	7335	1412.913323074483	38
2	7336	1413.045660506438	37
2	7340	1413.604284026426	38
2	7342	1413.690380544278	39
2	7343	1414.207842676498	38
2	7347	1414.931392122064	39
2	7348	1415.301165070448	38
2	7351	1416.153547659207	37
2	7354	1416.995763996772	36
2	7358	1417.367179278136	37
2	7359	1417.994974758166	36
2	7363	1418.157051792105	37
2	7365	1418.684734537847	38
2	7366	1418.983890183984	37
2	7370	1419.577256361243	38
2	7372	1419.736229505547	39
2	7374	1419.873993336173	40
2	7375	1419.979272722142	39
2	7379	1420.022565071368	40
2	7381	1420.5339741807	41
2	7383	1420.760758195152	42
2	7384	1420.933593571807	41
2	7388	1421.043381934294	42
2	7389	1422.075730026296	41
2	7392	1423.155362613841	40
2	7396	1423.569093005432	41
2	7398	1423.628689291132	42
2	7400	1424.033669183013	43
2	7401	1424.176507964979	42
2	7405	1424.49475475884	43
2	7406	1425.221322961587	42
2	7410	1425.559645719591	43
2	7412	1425.932131643963	44
2	7413	1426.223171059664	43
2	7418	1427.057602383259	42
2	7422	1427.069199708867	43
2	7424	1427.457178054434	44
2	7425	1427.980366739973	43
2	7429	1428.160479791989	44
2	7430	1429.033252317894	43
2	7433	1429.881877991061	42
2	7436	1430.734658903039	41
2	7441	1431.804172286919	40
2	7444	1432.668584284807	39
2	7448	1432.844590906712	40
2	7450	1433.285954490989	41
2	7451	1433.558333254574	40
2	7455	1434.661823361571	41
2	7456	1434.674467511164	40
2	7460	1434.769628054496	41
2	7461	1435.858016184313	40
2	7464	1436.724222957963	39
2	7468	1437.292116361208	40
2	7470	1437.391231155205	41
2	7472	1437.638826905188	42
2	7473	1437.769704523837	41
2	7476	1438.79186563647	40
2	7480	1438.859333997261	41
2	7481	1439.935836876525	40
2	7485	1440.014268629801	41
2	7486	1440.769442624195	40
2	7489	1441.706804337973	39
2	7493	1441.78985948234	40
2	7494	1442.800061057104	39
2	7498	1442.956582904617	40
2	7500	1443.260866321041	41
2	7501	1443.703125178224	40
2	7504	1444.690441070838	39
2	7507	1445.508796004268	38
2	7511	1446.028128447673	39
2	7514	1446.684464143186	38
2	7518	1446.890829771418	39
2	7519	1447.541826343133	38
2	7523	1447.617001167027	39
2	7525	1448.000965646476	40
2	7526	1448.68825391621	39
2	7530	1449.208442629153	40
2	7531	1449.798771798859	39
2	7535	1450.505562938309	40
2	7536	1450.649985426354	39
2	7539	1451.477453916768	38
2	7542	1452.324252503241	37
2	7546	1452.397506851105	38
2	7547	1453.135976171183	37
2	7551	1453.154824502752	38
2	7552	1454.306166244826	37
2	7556	1454.716179230746	38
2	7559	1455.120822109717	37
2	7562	1455.979024458553	36
2	7565	1456.849249098326	35
2	7569	1457.480310262723	36
2	7570	1457.894599533609	35
2	7575	1458.88697557111	34
2	7579	1459.083242844702	35
2	7580	1459.794566133215	34
2	7583	1460.66548168712	33
2	7587	1461.189907791151	34
2	7588	1461.725813091236	33
2	7592	1462.087396958221	34
2	7594	1462.356600358759	35
2	7596	1462.452388921001	36
2	7597	1462.5379429517	35
2	7601	1462.903546677927	36
2	7603	1463.266938276334	37
2	7604	1463.378377878635	36
2	7608	1464.005923022366	37
2	7609	1464.310110025449	36
2	7613	1464.555829390833	37
2	7615	1465.017413080131	38
2	7617	1465.02362185407	39
2	7618	1465.45361200512	38
2	7621	1466.278567679288	37
2	7625	1466.821709795381	38
2	7626	1467.268622173337	37
2	7630	1467.827764989589	38
2	7632	1467.898219116075	39
2	7633	1468.243589435206	38
2	7636	1469.430235839882	37
2	7640	1469.964895246141	38
2	7642	1470.19493125572	39
2	7643	1470.513233029344	38
2	7647	1471.148014385669	39
2	7649	1471.621707647528	40
2	7650	1471.653363675964	39
2	7654	1472.136805784897	40
2	7655	1472.550604210575	39
2	7660	1473.369130093013	38
2	7666	1473.877122939439	39
2	7667	1474.24195495971	38
2	7671	1474.63620680065	39
2	7673	1474.713839982447	40
2	7675	1474.869194376555	41
2	7677	1475.005793791065	42
2	7678	1475.126115244035	41
2	7682	1475.532606774459	42
[...]
5	129822	24975.8081280393	3618.33146495
5	129833	24976.832617966778	5930.042074719
5	129838	24977.984059720247	969.69834270951
5	129910	24992.438689226883	8287.3831049946
5	129961	25003.200291322955	971.78686516438
5	130021	25013.074927580115	1904.0910856761
5	130078	25023.977287721205	3212.0687236024
5	130115	25031.284722358863	6986.5446277243
5	130163	25038.469719120523	497.13429614281
5	130255	25056.739667370765	3217.7458571458
5	130307	25066.889153512416	4837.6985112866
5	130351	25074.167677651472	4451.0413497841
5	130421	25088.860303239093	3649.6766952561
5	130444	25094.393163287952	2808.174921983
5	130485	25101.601223603949	502.99725942139
5	130564	25119.393013456964	12877.212982769
5	130612	25127.703717988019	1924.4029024353
5	130623	25130.87901956666	500.51003071153
5	130665	25138.96500381244	2387.346001291
5	130738	25154.227684757892	1471.2947856781
5	130754	25158.216112480719	998.42062367367
5	130887	25185.072565898704	3263.721970136
5	130918	25189.814408227088	7397.1074487359
5	130941	25194.623224122668	1938.2759321026
5	130973	25200.42212222231	3257.6657439454
5	130981	25202.082351239989	2840.2261792544
5	130986	25202.978725473801	3667.4122281331
5	131011	25208.317207409287	9021.6406527092
5	131057	25216.592119714744	5643.1404174532
5	131081	25222.899533043836	6736.0200225881
5	131131	25231.827830382377	2403.9846570767
5	131148	25234.81138296587	2403.5821903611
5	131160	25236.703214575197	3672.437460149
5	131247	25254.420407131626	3255.1045946333
5	131250	25255.4150407079	2388.743851499
5	131361	25276.333444397556	996.38299663058
5	131374	25279.48253596447	5270.2696071694
5	131400	25283.274947616956	4093.1004248943
5	131430	25289.246843894325	993.64064844858
5	131471	25296.566444638218	11665.151241479
5	131491	25300.269404318589	994.43746835563
5	131500	25303.053136895909	994.2374805699
5	131533	25310.228862209651	1936.4133135404
5	131556	25315.503258484542	5280.509697093
5	131714	25349.735632780041	3264.7971020551
5	131775	25361.290038651259	988.3647767127
5	131887	25383.461274296357	990.36073413986
5	131921	25389.807878603446	2839.8242968331
5	131955	25397.671362299785	1940.4534568977
5	132003	25407.431306396272	1933.9020104503
5	132034	25414.452874635008	996.36934309803
5	132069	25421.381462729755	4114.3558110466
5	132091	25425.354519806462	7457.9442911441
5	132167	25440.598158771018	1001.7726934536
5	132201	25446.555365598606	2404.0627566298
5	132256	25457.358361673387	1475.8939666846
5	132352	25473.953853718037	2401.1708424239
5	132388	25481.824207451785	4932.6319857518
5	132502	25507.678262362569	1949.84941988
5	132589	25524.674883630998	2407.1716651626
5	132638	25534.048431867301	1951.4548787448
5	133118	25619.419691040872	3739.2463007786
5	133121	25620.325347734375	7534.4285153229
5	133338	25659.885300656727	2442.5355360493
5	133473	25685.613725373094	6145.7558801381
5	133495	25689.749193949942	2450.6983573803
5	133601	25706.281224625969	496.20421387485
5	133717	25728.213545671423	2450.7013264837
5	133742	25733.331985770484	8904.2989167162
5	133747	25734.300748497938	7574.2755875899
5	133777	25740.14154338794	1503.6879052116
5	133826	25751.414071318919	7911.6175196563
5	133961	25777.448274871467	3761.1565772542
5	134005	25785.500046868567	1498.2446260208
5	134012	25786.300091262851	3761.1318461306
5	134036	25790.730106599201	1496.2967553805
5	134098	25802.88212545555	9540.7071542397
5	134130	25809.0528169067	7593.8336132813
5	134200	25822.849417883287	5004.8073579495
5	134233	25827.750625696535	1486.2547677931
5	134239	25829.650569718647	5787.0910788493
5	134249	25831.499791928417	1000.4949280747
5	134393	25855.885855234265	4180.646919194
5	134433	25864.408897800128	3348.026866413
5	134487	25875.037942934726	3339.0721800293
5	134563	25890.808584946525	5802.2211374981
5	134602	25899.746281117147	3759.3037114435
5	134610	25901.633499823084	12496.726410672
5	134619	25902.782660929432	1497.1765819939
5	134624	25903.957882024014	2889.2819618992
5	134748	25928.042427911741	1004.5550083048
5	134840	25943.329405459429	4191.2740854424
5	134867	25948.539520934637	10218.625422711
5	134897	25954.720670468587	5418.1548629358
5	134900	25955.576314083434	490.02167521135
5	134958	25968.205217746311	495.33980550381
5	135016	25980.180478294791	491.18189077573
5	135026	25982.215106604846	8654.5032069924
5	135042	25984.250099316837	6192.3124608505
5	135124	25997.80169360595	11445.848654893
5	135182	26009.780749973042	4633.1660557795
5	135189	26010.7902659723	1979.9536260838
5	135257	26025.080530240146	7315.2537254585
5	135299	26033.838000430858	11176.363574376
5	135328	26038.726802799238	2456.1480906664
5	135394	26052.811054206026	1989.9465208984
5	135399	26053.631291204077	491.72831001537
5	135436	26063.288328384553	7679.4009939144
5	135491	26072.467763932366	1999.3598597883
5	135518	26077.528527784105	1512.8918012365
5	135550	26083.708899314645	1018.4003267279
5	135559	26084.712371959108	1515.6452687448
5	135581	26088.519484460949	1515.7273161826
5	135613	26094.707576571162	6234.6217469948
5	135700	26111.640536491331	3398.496971212
5	135708	26113.38920152368	1522.4281504816
5	135774	26125.532538544702	1024.1276752968
5	135835	26138.54748292187	1020.5813480835
5	135881	26148.657402823156	12358.374614226
5	136007	26172.582140897621	13184.021690086
5	136060	26180.96094333356	503.07834970353
5	136103	26189.174242602695	3413.8240525416
5	136121	26192.884283174328	1535.3931487603
5	136134	26195.849772639605	2027.2737222666
5	136159	26200.707192218708	2027.6581031928
5	136241	26215.381312555199	2026.4374377636
5	136256	26218.522322846701	1019.632035287
5	136373	26241.12723656393	4274.4539362902
5	136376	26242.038084486717	4275.2286641566
5	136494	26263.935473213654	13214.909542898
5	136527	26268.840301781736	7042.7000777972
5	136546	26273.651981804829	7037.7535453979
5	136695	26304.871865359816	1528.5601364256
5	136720	26310.235466752696	3418.708256528
5	136826	26330.76875498959	3864.4673549909
5	136831	26331.683262791514	5918.6455182894
5	136865	26338.1507234325	1526.15088728
5	136953	26355.659360393726	4293.2700941548
5	136975	26359.454528721266	10083.036161404
5	137046	26372.094906016002	5925.0784688154
5	137119	26386.410510317638	7073.6429352533
5	137282	26418.588644485672	2962.282352178
5	137289	26419.727976716341	1523.5298197832
5	137372	26436.384217297132	2018.9376274484
5	137489	26459.799098619665	1529.3530254786
5	137494	26460.657234153929	2020.5886498361
5	137511	26463.772535715192	2022.4572898767
5	137528	26468.237673397116	4715.7501067775
5	137548	26471.927730423059	3862.5308612531
5	137630	26485.787961410484	512.12181292255
5	137662	26491.622484661764	12474.103172484
5	137672	26493.400188334504	5147.1222056155
5	137703	26500.535146291399	5556.5001740666
5	137728	26505.681789948171	1524.8678002383
5	137800	26521.567119200095	8497.6412258555
5	137866	26533.288554155489	518.98825349119
5	137952	26550.823208349235	1009.2928246314
5	138053	26568.83122007599	2507.4013289731
5	138075	26573.028011363037	2508.9995382652
5	138083	26575.164457836878	507.61061070232
5	138086	26576.327896335479	4328.4475408316
5	138223	26601.089179098737	3902.3837646483
5	138387	26630.750455985722	6386.0032561891
5	138462	26647.837465332579	8231.6626067372
5	138473	26648.876395068821	1542.1689451694
5	138567	26665.943719723767	3916.7856697009
5	138689	26690.230271659458	3936.5310324061
5	138698	26691.204536128083	2050.4488533708
5	138727	26696.418673556616	514.17951218052
5	138772	26703.442097664197	1543.2235185501
5	138785	26706.334089807086	7174.1008369774
5	138795	26708.343720687777	2546.0088584148
5	138885	26726.501640766242	513.46308590489
5	139030	26756.061837035732	3489.1427228576
5	139107	26770.746380711103	4386.0855544231
5	139159	26780.574183838384	6037.9426358555
5	139447	26831.59542271275	1038.9508248302
5	139557	26854.089018426404	2538.8587105032
5	139587	26857.950562285107	1034.7675345776
5	139597	26859.756070434894	2535.3906432845
5	139658	26872.410322125569	3471.0143504739
5	139698	26880.35493454145	517.5513656237
5	139701	26881.544650281442	7207.0546644374
5	139790	26899.00082026826	518.05851225543
5	139850	26908.399824540911	4799.3213577063
5	139916	26920.892430991808	5220.7929796917
5	139946	26926.756950352469	1533.6292591618
5	139967	26931.884926452336	6848.0787319184
5	140094	26958.565063325075	2045.0968339707
5	140168	26972.668949898185	7590.391693023
5	140281	26995.616454187352	5663.5060926478
5	140299	26999.340750125553	2044.931042516
5	140359	27011.846621935479	10340.718598517
5	140479	27033.597784116806	3492.7572375891
5	140551	27043.856702404131	512.90846541943
5	140661	27063.908701031037	1040.8705822732
5	140714	27074.787697237671	5267.2395992746
5	140736	27079.014784954708	6492.0634655448
5	140763	27084.354252212063	2554.5278496701
5	140813	27092.506947489675	2057.7921912522
5	140873	27104.817231136501	1033.6377877394
5	140882	27105.938881953374	1539.5651487007
5	140894	27107.884392540843	1035.1269653098
5	141034	27131.46486149173	2557.6547586132
5	141049	27134.424745821987	2560.3003705149
5	141058	27135.443494978581	1534.7251076291
5	141088	27141.62991900345	3053.2500879828
5	141108	27145.276141098549	1039.5240539116
5	141199	27161.947972245643	1543.1546173753
5	141385	27197.86641209595	4881.4307242793
5	141500	27220.132119520885	1037.9253904272
5	141586	27235.91141512817	4008.3492317645
5	141596	27238.275000841489	2070.81508471
5	141609	27241.140392234774	4012.4768462756
5	141687	27254.805466578754	1557.8140020173
5	141794	27274.196187183487	2067.7130141364
5	141824	27280.48806288833	2586.4633407489
5	141891	27293.674630148001	1568.270368707
5	141915	27299.627126682773	10142.665027857
5	141958	27306.681304354817	518.5723827773
5	142220	27354.61242077196	4913.8929825252
5	142281	27368.129513964466	2082.4372601581
5	142316	27375.301744184121	6967.5794621471
5	142324	27377.379169058464	2081.6049205945
5	142491	27407.692246538253	6173.2295638856
5	142514	27413.250554866755	10830.226822653
5	142549	27420.166301887708	14566.583093439
5	142615	27434.195867685734	2579.0146821365
5	142629	27436.27043482777	523.36670333056
5	142652	27441.636206437781	4926.2419955969
5	142655	27442.610551798012	1575.0055160365
5	142686	27449.448685489636	1575.9632593454
5	142728	27457.915962620678	2577.689200623
5	142804	27473.82877088752	2060.4521911327
5	142809	27474.644103889767	4460.5740945548
5	142855	27484.230213926121	1569.0100708996
5	142950	27502.339550768625	6185.8931235279
5	143048	27519.582951064638	12089.306208485
5	143072	27525.725865250405	2067.2730478398
5	143094	27530.162875063482	512.93772543534
5	143115	27534.772773975645	6609.6362755729
5	143127	27536.666083722328	5358.3036760127
5	143167	27544.835785482683	1059.1282670181
5	143229	27554.156451805912	3558.1727160009
5	143314	27571.174895762324	8142.2932051486
5	143384	27584.826651120697	4932.3161364753
5	143467	27601.99782554726	3569.0365414515
5	143525	27611.56787739708	1575.3285081231
5	143593	27623.048648211126	2071.6601772885
5	143604	27626.173957375482	1574.940093923
5	143614	27628.344810889054	3571.2358047169
5	143695	27643.700793186715	2596.2627649143
5	143713	27647.759440529487	3092.1817257113
5	143773	27660.234911144665	13348.67207904
5	143787	27662.577014628193	8201.067690387
5	143859	27677.470839170322	3591.3890503647
5	143927	27689.441033808284	8936.3164967521
5	143944	27692.53225324969	1064.0984485363
5	143982	27698.460430371623	7454.622198356
5	143997	27701.326129348903	2606.7866657404
5	144029	27707.466010038975	1583.5255080038
5	144032	27708.301642086498	542.72886590536
5	144096	27720.648278220232	5428.6276575633
5	144277	27758.017555386433	3122.5036480008
5	144319	27765.899220592854	1070.6020577909
5	144346	27770.981620065728	2616.9582528955
5	144373	27775.799723574844	4093.7666033913
5	144466	27793.219482506204	1073.6452646527
5	144606	27819.496701296837	2617.3535714289
5	144655	27831.018918572504	3627.3604685552
5	144682	27836.400993653992	7898.6380294801
5	144740	27848.1711538997	9703.6455341708
5	144748	27850.188340461951	1074.5398070919
5	144781	27857.289668361609	7889.1296336626
5	144797	27861.390991371916	1599.5980875586
5	144877	27877.474627660817	8275.973907766
5	144924	27887.085139321951	1608.6092432501
5	144950	27891.06315487199	2631.6580338348
5	145066	27912.958836611122	3642.1064551151
5	145129	27925.627796898357	2642.606157995
5	145189	27937.522163267382	11370.195487929
5	145246	27948.925187771809	559.72436935239
5	145305	27957.702904645302	7536.8653465095
5	145399	27975.949359639775	4111.4291784723
5	145407	27977.833464274597	558.90916905685
5	145453	27987.901437253268	2134.7208110049
5	145569	28011.760272082076	1608.7889507945
5	145607	28019.917133229454	552.0178060843
5	145622	28023.39958008355	6317.1080286398
5	145707	28038.451671028366	2125.096394257
5	145869	28066.798451914404	1077.5874792079
5	145902	28071.707956715625	3635.2970172136
5	145979	28086.85995396492	3634.0744453825
5	146030	28096.202529887342	1612.3027042362
5	146124	28113.55222914624	1079.5518805595
5	146175	28124.631983395339	2137.3159726452
5	146180	28125.688893388257	555.57660514244
5	146196	28129.811931551107	7570.9699679864
5	146266	28141.780655323386	2143.9909489261
5	146269	28142.616442468621	1614.515946686
5	146350	28158.042350898729	552.81441676355
5	146463	28180.129242900525	1095.6186093622
5	146534	28194.869713558116	1093.8191649928
5	146667	28224.224224457285	1100.65169715
5	146743	28237.709783470398	9127.341494808
5	146750	28238.523790512653	8750.8964405654
5	146755	28239.600984966429	1106.4010015249
5	146814	28251.389090252713	1106.6221990826
5	146923	28271.201623014591	566.82255928639
5	146953	28276.507703134089	4168.6370531732
5	146986	28281.834950745988	5100.0855874758
5	147046	28292.884547371462	4638.37868868
5	147112	28304.608861858536	4166.8703426555
5	147153	28311.561196729959	4646.9124691416
5	147186	28317.903428055392	557.33097170772
5	147291	28338.775418726029	1637.0223330176
5	147304	28342.096396716544	1109.394007841
5	147314	28344.280835951818	1109.9258746822
5	147350	28350.728569017491	2669.5430536385
5	147419	28361.938995808132	4192.1718941535
5	147540	28386.16587965875	9218.6454991704
5	147551	28387.152522164817	4678.474621605
5	147556	28387.973130998808	5130.8980299003
5	147592	28394.096122026677	8087.5764337375
5	147634	28402.055506045047	3703.5395556116
5	147653	28407.159033808533	4195.6684634826
5	147746	28428.601474740683	6031.7234471756
5	147833	28443.595664043863	6870.5952223818
5	147917	28460.842695552715	1122.7932197548
5	147987	28473.328872069298	18987.208483429
5	148053	28488.130859252205	6040.3086247681
5	148098	28495.173052851529	9951.4353489528
5	148199	28512.9996715819	2699.3420726315
5	148229	28519.056849947713	6467.2005741279
5	148312	28536.268553665795	5138.9306855794
5	148439	28561.094474928599	9970.445154761
5	148460	28564.070046590694	5142.4058310503
5	148477	28567.117147142307	3710.5102884595
5	148489	28569.343799059333	1127.8438055938
5	148497	28571.385657957995	1124.4709230763
5	148535	28577.640577119085	11335.074161751
5	148673	28603.56355291266	6459.1605719406
5	148719	28611.338521071859	2179.5649993744
5	148766	28621.114045374804	14380.831258124
5	148810	28629.592547389456	8125.9827756411
5	148826	28633.574069095925	5141.0313081655
5	148889	28646.364887001607	2185.697792567
5	148916	28651.385783938654	3197.7611828927
5	149016	28670.412322634235	6050.7915695494
5	149040	28674.320504313391	6905.3720532309
5	149138	28692.476634138042	5616.2514887585
5	149141	28693.319574808573	5613.1672795703
5	149228	28710.758453698979	1662.079259438
5	149601	28779.509168500881	2187.9208511426
5	149709	28801.509738942477	1672.5944394402
5	149784	28816.610854208709	560.69815856755
5	149975	28851.976963857338	1132.5655921877
5	150009	28858.073151008282	7400.804364327
5	150031	28862.117195407451	9725.5645326365
5	150163	28889.652218858397	5219.287891811
5	150287	28912.458451290483	564.59850078102
5	150323	28920.443067559469	5698.4139304596
5	150492	28952.872089601829	9791.9742342464
5	150666	28984.357039608954	7854.5339734854
5	150680	28986.183228594306	3259.1990597385
5	150762	29005.684591824336	7019.0797510801
5	150785	29010.87515986679	561.98846779227
5	150822	29017.773273512309	2215.9756014786
5	150867	29024.572539373821	1696.0775517708
5	150910	29031.683096222727	2223.9581927217
5	150953	29038.803726966453	13420.923879454
5	151158	29071.952585008793	4282.3520709285
5	151207	29081.221580378671	3271.7712430137
5	151246	29088.576887014562	567.3792627608
5	151276	29094.378152686132	6615.7020542329
5	151282	29096.346567571311	8674.1552467525
5	151287	29097.452814061715	9061.6049347665
5	151336	29106.264361157322	565.66321644733
5	151358	29110.087294641005	1699.0155497502
5	151382	29115.859999605974	5253.5123604105
5	151527	29142.84433167731	568.30079097268
5	151664	29169.626412180955	1130.1388289583
5	151713	29179.672802050371	17027.80954842
5	151794	29194.597446226755	1693.5152713085
5	151861	29207.629145504402	1138.680725225
5	151886	29212.212958976867	4285.1195550777
5	151962	29225.905436539517	10204.601611272
5	151985	29231.115326723045	5719.8003487951
5	152011	29237.054283650646	1690.5472052018
5	152055	29245.261950129045	5727.3063441783
5	152081	29251.271955217568	4772.264966671
5	152161	29267.526091618517	2227.6578713066
5	152233	29279.549417036825	6631.8693034191
5	152272	29288.769878457445	11600.045186222
5	152399	29311.897912195563	4799.7868169093
5	152422	29314.750932743452	1700.5857690641
5	152482	29326.695198272686	9505.8041991369
5	152493	29329.583980047661	6206.4981663972
5	152557	29340.716140812594	5756.3788000792
5	152603	29352.386594494017	7101.0621071424
5	152721	29372.843586256033	573.40899648664
5	152726	29373.909354837569	2251.9922974585
5	152731	29375.099720621253	3801.3856027432
5	152769	29383.43457539515	1142.1906731388
5	152791	29387.255332777421	10644.577223065
5	152886	29406.360272908726	7973.0820308136
5	152913	29411.570813432292	3804.5121446782
5	152920	29412.544921780427	5793.9099685446
5	152987	29424.841178346755	12014.663641221
5	153044	29435.078116359054	4340.0251084365
5	153062	29439.058018397498	7574.7853847176
5	153120	29451.500398742645	7150.9543705688
5	153153	29458.481232309671	2272.3985361926
5	153205	29471.10590134864	3312.2742824594
5	153282	29484.51591186668	16242.469501119
5	153328	29490.848948146358	10345.265841323
5	153337	29493.957575293679	5343.4771664259
5	153393	29504.070143423092	1726.3300366894
5	153409	29508.067711106643	1161.7750974221
5	153653	29556.748478755686	579.14208382768
5	153658	29557.730227658577	1741.4576501362
5	153792	29585.49988167971	3340.3724108128
5	153801	29586.344172647648	1732.5057255096
5	153832	29591.530899363436	8462.6788442152
5	153883	29600.346815646771	1167.5333580957
5	153957	29613.967605718091	3346.8545206164
5	154043	29629.978958259574	2301.4966047781
5	154087	29637.960775285731	2827.8539506159
5	154217	29663.770887088453	5388.3935059516
5	154243	29667.861875667566	1731.6987514365
5	154281	29676.175144610975	602.17077442497
5	154475	29707.87612997792	1734.5384960574
5	154490	29710.803780320243	8482.9992100136
5	154597	29729.779359472033	1733.397840102
5	154676	29744.361441274781	8068.7750673546
5	154702	29749.895888235096	1727.9445393283
5	154760	29761.125032694497	7219.9510167769
5	154899	29786.718180431936	1738.6862785114
5	154919	29790.329628167161	1180.9316250534
5	154965	29798.445607972935	5864.0493915644
5	155042	29813.66656586644	6782.7356593886
5	155169	29836.930176135569	11184.955551916
5	155278	29856.313998229191	1747.7856112237
5	155284	29858.214893423527	10450.224082317
5	155380	29876.105020553938	606.75794654127
5	155502	29902.239975192344	8101.6718831802
5	155529	29907.167299154625	3373.4612385135
5	155546	29909.96303567024	4381.8473203489
5	155555	29912.716441687142	7257.9723464284
5	155721	29945.525813609867	2859.7133417651
5	155767	29954.128291534301	1190.7351367496
5	155773	29956.086100472924	9754.7149057216
5	155788	29959.22794385063	13546.361124013
5	155805	29962.325102034905	4922.06415844
5	155851	29972.002325807833	4405.4268545045
6	86	16.279006815746	13.960455779704
6	132	28.82215940972	3.211935550648

