version 2
run Second_exit_5-17-20191017-13:43:58-1946
attr configname Second_exit_5
attr datetime 20191017-13:43:58
attr experiment Second_exit_5
attr inifile omnetpp.ini
attr iterationvars ""
attr iterationvarsf ""
attr measurement ""
attr network ResponseTimeNetwork
attr processid 1946
attr repetition 17
attr replication #17
attr resultdir results
attr runnumber 17
attr seedset 17
param **.Source.interArrivalTime exponential(5s)
param **.jobPriority bernoulli(0.6)
param **.PS.serviceTimeU1 "uniform(0.8s, 1.2s)"
param **.PS.serviceTimeU2 "uniform(1.8s, 2.2s)"
param **.SS1.serviceTime exponential(1s)
param **.SS2.serviceTime exponential(1.2s)
param **.PS.exitProbability bernoulli(0.5)

vector 0 ResponseTimeNetwork.SS1 queueLength:vector ETV
attr interpolationmode sample-hold
attr title "queue length, vector"
vector 1 ResponseTimeNetwork.SS2 queueLength:vector ETV
attr interpolationmode sample-hold
attr title "queue length, vector"
vector 2 ResponseTimeNetwork.QueueU1 queueLength:vector ETV
attr interpolationmode sample-hold
attr title "queue length, vector"
vector 3 ResponseTimeNetwork.QueueU2 queueLength:vector ETV
attr interpolationmode sample-hold
attr title "queue length, vector"
vector 4 ResponseTimeNetwork.sink lifeTimeU2:vector ETV
attr interpolationmode none
attr title "lifetime of arrived jobs U2, vector"
attr unit s
vector 5 ResponseTimeNetwork.sink lifeTime:vector ETV
attr interpolationmode none
attr title "lifetime of arrived jobs, vector"
attr unit s
vector 6 ResponseTimeNetwork.sink lifeTimeU1:vector ETV
attr interpolationmode none
attr title "lifetime of arrived jobs U1, vector"
attr unit s
0	0	0	0
0	37	8.912550832045	1
0	41	10.124281260781	0
0	417	169.783091734498	1
0	426	176.384991835829	0
0	440	179.402271039903	1
0	441	179.585493864541	0
0	775	364.83072591759	1
0	776	368.807228939086	0
0	787	370.926165079735	1
0	791	372.984906070297	0
0	1030	504.253010110517	1
0	1031	505.203082639858	0
0	1045	508.046774272941	1
0	1046	508.324367657616	0
0	1154	537.440440727731	1
0	1156	538.339242536532	0
0	1199	547.765603394132	1
0	1202	548.87341098392	2
0	1204	549.308486887007	1
0	1211	550.545233662628	0
0	1214	550.656596971281	1
0	1217	551.808095916711	2
0	1221	552.137020152551	1
0	1223	552.245461566061	0
0	1340	639.117053165583	1
0	1341	640.298341581351	0
0	1345	641.395950517929	1
0	1346	643.455232369027	0
0	1525	707.956092320457	1
0	1526	708.933256772578	0
0	1530	709.821153339602	1
0	1531	710.924360413514	0
0	2250	1091.082087985079	1
0	2251	1092.074580639144	0
0	3125	1500.546856275241	1
0	3126	1501.40680880362	0
0	3370	1643.048077978144	1
0	3379	1644.774098992406	0
0	3590	1781.056173748393	1
0	3591	1781.557576152876	0
0	3595	1782.372396098271	1
0	3596	1782.654066653741	0
0	3827	1915.866396677381	1
0	3831	1917.402855900095	0
0	4019	2051.411532004912	1
0	4021	2051.79177217546	0
0	4061	2059.160852206394	1
0	4066	2060.122612175427	2
0	4068	2060.821143666119	1
0	4070	2060.835130526807	0
0	4130	2098.606798460872	1
0	4131	2098.623645394283	0
0	4189	2112.909029584572	1
0	4191	2113.484888110109	0
0	4203	2114.836412886631	1
0	4205	2115.024883333098	0
0	4327	2155.874080190393	1
0	4336	2157.773325277477	0
0	4339	2157.886427316773	1
0	4344	2158.891178101539	2
0	4346	2159.169260311022	1
0	4349	2159.871569081168	2
0	4352	2160.885570411156	3
0	4371	2164.1322264525	2
0	4376	2165.114344821544	1
0	4382	2166.916294712773	2
0	4384	2167.518903353404	1
0	4386	2167.69178049747	0
0	4585	2263.073869695033	1
0	4586	2264.176442310987	0
0	4665	2292.974737609558	1
0	4669	2293.959423978791	0
0	5605	2783.394088812346	1
0	5606	2784.560872652154	0
0	5905	2954.864046088053	1
0	5906	2956.075575089561	0
0	6380	3184.032014414851	1
0	6381	3186.49074990533	0
0	6760	3368.550093870153	1
0	6761	3369.218498323295	0
0	6765	3370.266695459649	1
0	6766	3371.020634025619	0
0	6770	3371.82526904196	1
0	6771	3371.930153309805	0
0	6790	3375.875929493056	1
0	6791	3376.897497346512	0
0	7405	3681.928331150161	1
0	7409	3684.324314920752	0
0	7435	3689.428032006949	1
0	7436	3691.620305215852	0
0	7465	3698.14654630929	1
0	7466	3698.646153214531	0
0	7470	3699.633970456155	1
0	7471	3700.262647991677	0
0	8240	4084.461460181524	1
0	8241	4085.024876145194	0
0	8407	4180.591120252038	1
0	8409	4181.212669952	0
0	8412	4181.614992519586	1
0	8414	4182.08457855652	0
0	8417	4182.475291579055	1
0	8419	4182.767660110289	0
0	8512	4218.80674024791	1
0	8516	4220.455244480385	0
0	8764	4314.786493133065	1
0	8766	4314.84129523496	0
0	8987	4434.651409707534	1
0	8991	4435.185070519868	0
0	9252	4514.934322346619	1
0	9254	4515.031699013313	0
0	9295	4524.506483192139	1
0	9296	4524.890413660337	0
0	9365	4551.655023849477	1
0	9366	4552.605963829494	0
0	9779	4757.470579517325	1
0	9781	4757.654137187478	0
0	9784	4758.543468552613	1
0	9789	4760.152089093292	0
0	9860	4796.593490931455	1
0	9861	4798.257226473284	0
0	9872	4800.335094583598	1
0	9876	4801.36232422886	0
0	10287	4993.359626770013	1
0	10289	4993.479904558851	0
0	10321	4999.590157082763	1
0	10323	4999.678052792047	0
0	10395	5021.183824015206	1
0	10396	5021.487756825605	0
0	10560	5119.459415091996	1
0	10564	5120.372880223707	0
0	10575	5123.682454923962	1
0	10576	5125.497428758482	0
0	10730	5221.639788283159	1
0	10731	5223.0954865797	0
0	10805	5259.087958425664	1
0	10806	5261.849458158899	0
0	10847	5275.350909363987	1
0	10849	5275.432151425132	0
0	10860	5278.488282781975	1
0	10861	5278.633157932822	0
0	11212	5446.261222136122	1
0	11214	5446.82299486955	0
0	11220	5447.989326523439	1
0	11221	5448.258220631453	0
0	12137	5952.612713345612	1
0	12139	5952.766076129905	0
0	12312	6080.702493374495	1
0	12314	6081.368651637517	0
0	12317	6081.836961866429	1
0	12319	6081.976534640651	0
0	12357	6089.74772188438	1
0	12361	6090.095603516229	0
0	12367	6091.90598470129	1
0	12369	6092.858663771595	0
0	12372	6092.989704973604	1
0	12374	6093.907453439256	0
0	12472	6117.697911475229	1
0	12474	6118.235884619349	0
0	12660	6236.496019222002	1
0	12661	6236.849104670413	0
0	12665	6237.770471927315	1
0	12672	6241.209124955533	2
0	12674	6241.269008694603	1
0	12676	6241.838116700974	0
0	12682	6243.026400214152	1
0	12684	6243.253422310338	0
0	12687	6244.193286716563	1
0	12690	6245.071728200929	2
0	12691	6245.680304289928	1
0	12694	6246.64059937905	0
0	12697	6246.765674451219	1
0	12701	6246.95031873939	0
0	12706	6247.867098692285	1
0	12709	6248.911973072348	2
0	12711	6249.285901994133	1
0	12713	6249.922463023242	0
0	12912	6321.33693240822	1
0	12914	6321.387544154055	0
0	13055	6381.572029029145	1
0	13059	6382.490262823651	0
0	13247	6546.364748027465	1
0	13251	6548.592963074256	0
0	14582	7387.659619397216	1
0	14584	7388.148758516959	0
0	14590	7389.816749456909	1
0	14591	7389.951054946177	0
0	14885	7552.997081074499	1
0	14891	7555.624561545143	0
0	15104	7630.105176210435	1
0	15106	7630.772486645631	0
0	15158	7640.442974418153	1
0	15160	7640.922854484733	0
0	15532	7785.161967991897	1
0	15534	7786.000346081331	0
0	15555	7800.785403056637	1
0	15556	7801.068707991181	0
0	15560	7802.199576559359	1
0	15561	7803.172823134684	0
0	15856	7933.210763508429	1
0	15858	7933.57566862053	0
0	15871	7936.122826266543	1
0	15873	7936.381524967512	0
0	15914	7944.771346519862	1
0	15929	7948.104585342228	0
0	16339	8129.759874509801	1
0	16342	8130.869261346073	2
0	16344	8130.933229520199	1
0	16346	8131.990896549555	0
0	16352	8133.137742733364	1
0	16354	8133.361715356786	0
0	16357	8134.142142868848	1
0	16359	8134.160408948918	0
0	16440	8172.131470858232	1
0	16444	8173.164514862191	0
0	16447	8173.389039974948	1
0	16449	8173.94268707956	0
0	17000	8474.640164323083	1
0	17001	8477.405807928291	0
0	17740	8804.950708488263	1
0	17741	8805.910190581648	0
0	17745	8806.872837695411	1
0	17746	8809.343492465624	0
0	17770	8814.56823914877	1
0	17771	8814.599846556902	0
0	17910	8883.710066763484	1
0	17911	8883.813031238097	0
0	18577	9263.063353626923	1
0	18587	9264.796945675676	2
0	18589	9264.957126111673	1
0	18591	9265.577513988863	0
0	18868	9366.928492407143	1
0	18870	9367.235889994413	0
0	19402	9725.202975787373	1
0	19404	9725.445556385221	0
0	19407	9726.175070349836	1
0	19409	9726.631694824756	0
0	19412	9726.994356990197	1
0	19414	9727.498969373997	0
0	19417	9727.974851095733	1
0	19420	9728.870121800304	2
0	19421	9729.63635395308	1
0	19424	9730.442548921818	0
0	20130	10077.155385573684	1
0	20131	10078.121677598092	0
0	20145	10080.932116797401	1
0	20149	10082.070876311745	0
0	20155	10083.536521582233	1
0	20156	10083.554383675013	0
0	20192	10090.834436413276	1
0	20196	10093.107494532386	0
0	20202	10093.927523543755	1
0	20204	10094.45135620949	0
0	20207	10094.799955691839	1
0	20216	10096.973739773547	0
0	20842	10387.496280255512	1
0	20844	10388.184697840125	0
0	20915	10417.518539094581	1
0	20916	10417.711245046097	0
0	21757	10936.678320439828	1
0	21759	10936.889691353589	0
0	21812	10947.389251977782	1
0	21814	10947.605181998767	0
0	21975	11002.605673118322	1
0	21976	11002.787811300701	0
0	22135	11060.287169134508	1
0	22139	11060.830685084434	0
0	22735	11405.029706118623	1
0	22736	11405.618220675132	0
0	22752	11409.108126220992	1
0	22754	11409.845155807542	0
0	22790	11417.171031504544	1
0	22791	11418.459922633721	0
0	22930	11490.983797819459	1
0	22931	11491.802489170415	0
0	23334	11685.805255298839	1
0	23336	11686.031624224936	0
0	23342	11688.004050619491	1
0	23361	11691.050291563431	0
0	24124	11970.211919229783	1
0	24134	11972.749974738594	0
0	24150	11974.271302924424	1
0	24163	11978.253761559817	0
0	24527	12133.603057163493	1
0	24529	12134.099939629042	0
0	24587	12160.766399411931	1
0	24589	12161.620722831576	0
0	24680	12189.51862963899	1
0	24681	12191.24813161762	0
0	24750	12215.860384238714	1
0	24751	12217.333949073766	0
0	24837	12243.337644094127	1
0	24842	12244.205208322397	2
0	24846	12245.159377814779	1
0	24856	12247.718623133161	0
0	24932	12263.793090255843	1
0	24935	12264.818785137129	2
0	24936	12266.184686021136	1
0	24939	12266.803168437615	0
0	26042	12755.731352932107	1
0	26046	12756.680225520333	0
0	26066	12759.927861188756	1
0	26070	12760.953190545343	0
0	26076	12761.937061529731	1
0	26079	12762.983415991379	2
0	26081	12763.214940996536	1
0	26083	12763.229112781345	0
0	26190	12815.812694626537	1
0	26191	12817.2219445008	0
0	26195	12818.398935268461	1
0	26196	12819.168420250404	0
0	26265	12854.970825925219	1
0	26271	12858.125233763083	0
0	26289	12861.202040942945	1
0	26291	12861.24416650409	0
0	26485	12944.910859309011	1
0	26486	12945.158088608149	0
0	26783	13069.857410002332	1
0	26788	13071.239745955273	0
0	26967	13140.362546736613	1
0	26969	13141.18827423914	0
0	26985	13143.906499378808	1
0	26997	13146.173035966157	2
0	26999	13146.298857940127	1
0	27004	13147.015078982542	2
0	27010	13147.391747139471	1
0	27012	13147.462524205215	0
0	27042	13154.524612031522	1
0	27044	13154.987852044893	0
0	27062	13158.675759749132	1
0	27066	13159.859725762176	0
0	27172	13193.702594763092	1
0	27174	13193.891623568949	0
0	27312	13274.977110827489	1
0	27314	13275.388821568296	0
0	27355	13293.107685744901	1
0	27359	13294.070725316946	0
0	27452	13325.494331648371	1
0	27454	13325.701342752323	0
0	27457	13326.589830403945	1
0	27459	13327.338399577856	0
0	27657	13414.816766774731	1
0	27659	13414.835587615763	0
0	27769	13455.374638919956	1
0	27771	13455.646481641869	0
0	28025	13566.370343455391	1
0	28026	13567.953483924755	0
0	28220	13705.435013620001	1
0	28221	13705.457710968735	0
0	28370	13757.783790052802	1
0	28371	13760.137262005129	0
0	28470	13783.304727834005	1
0	28472	13783.8233721077	0
0	28765	13934.143751000629	1
0	28766	13934.306261624092	0
0	28797	13941.770717672246	1
0	28799	13942.029559799562	0
0	29159	14074.447253819289	1
0	29161	14074.849971131898	0
0	29167	14076.187445345814	1
0	29169	14076.245954475872	0
0	29522	14201.615855421782	1
0	29525	14202.469494171165	2
0	29529	14203.538384711636	1
0	29541	14205.373524683835	0
0	29552	14207.729350576265	1
0	29556	14208.949858833397	0
0	29582	14213.640780162917	1
0	29584	14213.901835797082	0
0	29889	14388.428124437263	1
0	29891	14389.120556705598	0
0	30934	14963.701793053456	1
0	30936	14963.784535181823	0
0	31015	15005.164575295965	1
0	31016	15005.622654875577	0
0	31020	15006.77549465096	1
0	31021	15007.646222851503	0
0	31645	15387.994470629564	1
0	31646	15388.011508692381	0
0	32041	15584.443797697803	1
0	32051	15586.922922869238	0
0	32205	15678.070692404023	1
0	32206	15678.455662946719	0
0	32509	15805.928721499837	1
0	32511	15806.241003170575	0
0	32750	15885.045219776658	1
0	32751	15885.558918884368	0
0	32757	15886.54893293322	1
0	32766	15888.252142359772	0
0	32769	15888.644875965798	1
0	32773	15889.706975447988	0
0	33145	16080.466937342229	1
0	33146	16080.955076564287	0
0	33192	16092.866612619387	1
0	33194	16092.878546003769	0
0	33207	16096.095566268118	1
0	33209	16096.966472511242	0
0	33217	16097.914647387193	1
0	33220	16099.009248686993	2
0	33221	16099.037139094544	1
0	33224	16099.222028776203	0
0	33395	16172.378106413725	1
0	33396	16172.981287662412	0
0	33830	16445.391811240574	1
0	33831	16446.300630733574	0
0	33835	16447.490155763569	1
0	33836	16449.467358795525	0
0	33845	16451.415845332639	1
0	33846	16451.721453247079	0
0	33899	16484.966193708698	1
0	33901	16485.401559785752	0
0	33906	16486.145913741099	1
0	33908	16486.329807066369	0
0	33911	16486.968929715654	1
0	33913	16487.220531061796	0
0	33971	16499.154396682899	1
0	33978	16500.741665301671	0
0	33996	16504.233197174421	1
0	33998	16504.329501602877	0
0	34042	16512.214118988918	1
0	34044	16513.107309926639	0
0	34109	16525.095352264787	1
0	34114	16526.169525790005	0
0	34117	16527.179485643017	1
0	34121	16527.655550060329	0
0	34735	16756.701919776254	1
0	34736	16759.838423829727	0
0	35164	17012.057470196408	1
0	35166	17012.266191551937	0
0	35235	17031.518755832588	1
0	35236	17032.367772877128	0
0	35240	17033.288099733745	1
0	35241	17034.286722530736	0
0	35245	17035.459410346238	1
0	35249	17036.508168922658	0
0	35380	17130.915667057828	1
0	35381	17133.408200628262	0
0	35410	17144.209352186362	1
0	35411	17144.852768896927	0
0	35415	17145.992536297568	1
0	35421	17146.838276476193	0
0	35720	17301.408650236229	1
0	35721	17303.591603313097	0
0	35732	17305.564981752158	1
0	35734	17305.8471229145	0
0	35737	17306.480254565169	1
0	35740	17307.424175219693	2
0	35744	17307.99295559937	1
0	35746	17308.09920006954	0
0	35769	17313.109141497506	1
0	35776	17314.245997885434	2
0	35778	17315.045354375766	1
0	35783	17315.422953430896	0
0	35791	17317.225090326002	1
0	35793	17317.633350870733	0
0	35974	17402.951747665529	1
0	35977	17403.988114247073	2
0	35991	17406.397813741726	1
0	35997	17408.186859578055	2
0	35999	17408.380047407275	1
0	36004	17409.459572031141	0
0	36035	17422.161700836617	1
0	36036	17422.493969125522	0
0	36075	17446.790608971883	1
0	36076	17449.967075040113	0
0	36080	17451.0539914895	1
0	36081	17451.937074732325	0
0	36207	17505.329291510998	1
0	36214	17507.081031244874	0
0	36232	17511.109264208905	1
0	36234	17511.777683286833	0
0	36275	17524.039394868743	1
0	36276	17526.372832613046	0
0	36997	17852.302923733289	1
0	36999	17852.531437478913	0
0	37310	18032.362415584698	1
0	37311	18032.410054714203	0
0	37432	18095.589166106602	1
0	37434	18096.049826353516	0
0	37440	18097.652736411935	1
0	37441	18097.657561921879	0
0	37592	18206.887979814448	1
0	37594	18207.208830384554	0
0	37602	18209.221424293928	1
0	37604	18209.951406383965	0
0	37900	18327.620560679194	1
0	37901	18329.000700740708	0
0	38700	18715.948979996201	1
0	38701	18717.469831226449	0
0	38985	18839.801577039428	1
0	38986	18839.846457408398	0
0	39010	18859.694952497067	1
0	39011	18860.421423820634	0
0	39187	18942.243664368219	1
0	39191	18943.815338235352	0
0	39417	19070.971946769579	1
0	39419	19071.825254670803	0
0	39430	19073.779741436707	1
0	39431	19075.110623009757	0
0	39507	19122.361305631061	1
0	39511	19123.389824568204	0
0	40110	19547.427682005964	1
0	40114	19547.870489502657	0
0	40217	19591.293016515163	1
0	40219	19591.935438051876	0
0	40222	19592.479476013829	1
0	40224	19593.341366601676	0
0	41195	20082.138985231168	1
0	41196	20082.912433097183	0
0	41690	20343.223290228927	1
0	41691	20343.272952697582	0
0	41695	20344.383473155152	1
0	41696	20345.323605945439	0
0	41700	20346.273552877375	1
0	41701	20347.994569523739	0
0	41805	20383.835281068163	1
0	41816	20386.480723783435	0
0	42502	20678.478907241379	1
0	42504	20678.54845561906	0
0	42865	20882.962105954829	1
0	42866	20883.25731887817	0
0	42875	20885.324919596125	1
0	42876	20885.528386567108	0
0	43064	21021.90004737401	1
0	43066	21022.026739790532	0
0	43174	21047.915861929776	1
0	43183	21048.967234040354	0
0	43224	21058.322110657403	1
0	43226	21058.786263246879	0
0	44096	21468.091550761367	1
0	44098	21468.557468007935	0
0	44101	21469.218756680748	1
0	44103	21469.736552117585	0
0	44108	21470.335146890393	1
0	44110	21471.096626562419	0
0	44118	21472.256797485239	1
0	44120	21472.812475716256	0
0	44123	21473.10503002461	1
0	44125	21473.781538981294	0
0	44940	21827.207473013369	1
0	44941	21828.287135488487	0
0	45190	21984.814918959095	1
0	45191	21986.963445046042	0
0	46107	22379.405897243338	1
0	46109	22379.990953956609	0
0	46120	22382.29472540181	1
0	46121	22382.610574927094	0
0	46526	22614.065186253644	1
0	46528	22614.69586930821	0
0	46531	22615.183493590436	1
0	46534	22616.32415062309	2
0	46538	22617.040025797934	1
0	46540	22617.249263879419	0
0	47090	22819.596510895544	1
0	47094	22820.172427994701	0
0	47102	22821.830088541183	1
0	47105	22822.739966297048	2
0	47106	22822.850249413979	1
0	47110	22823.854864894339	2
0	47111	22826.306259681434	1
0	47116	22827.007077689878	0
0	47119	22827.194167241883	1
0	47121	22827.902034236212	0
0	47280	22901.826804748188	1
0	47281	22902.977128526492	0
0	47432	22954.382024640973	1
0	47434	22954.652250180787	0
0	47482	22966.197419574339	1
0	47484	22967.173017462233	0
0	47820	23092.091152324156	1
0	47821	23094.743550469888	0
0	48042	23169.242278426631	1
0	48044	23170.082710198681	0
0	48937	23634.069992143296	1
0	48939	23634.125077994585	0
0	49195	23784.145987650573	1
0	49196	23785.662043975996	0
0	49202	23786.69015736557	1
0	49216	23789.569740511082	0
0	49520	23984.646427016224	1
0	49524	23985.782628486926	0
0	49872	24156.154806211543	1
0	49874	24156.283370549449	0
0	49891	24158.958482692342	1
0	49893	24159.593760866182	0
0	49916	24164.272693050976	1
0	49918	24164.353295540271	0
0	50050	24216.39460080263	1
0	50051	24216.639177045826	0
0	50132	24239.931168921279	1
0	50136	24241.106588326978	0
0	50212	24268.983659542313	1
0	50214	24269.313330132681	0
0	50400	24357.597661741096	1
0	50401	24358.328685065872	0
0	50440	24380.385571503785	1
0	50441	24385.053054488741	0
0	50445	24386.019616392732	1
0	50451	24388.058876229288	0
0	51400	24842.249310719015	1
0	51401	24842.74854331551	0
0	52040	25184.751578394907	1
0	52041	25186.194679900433	0
0	52152	25226.534824197245	1
0	52154	25226.792118295665	0
0	52217	25257.094845256438	1
0	52221	25259.385236492885	0
0	52900	25595.25452778255	1
0	52909	25598.952600242092	0
0	53317	25791.599464631228	1
0	53319	25791.634845782343	0
0	53330	25794.619227134491	1
0	53331	25796.175223042754	0
0	53335	25796.990891050858	1
0	53336	25797.604877197698	0
0	53370	25805.261029016147	1
0	53381	25807.180475129585	0
0	53590	25940.673975439568	1
0	53591	25941.230212858414	0
0	53610	25945.589959145523	1
0	53611	25947.348046527698	0
0	53890	26104.166589388318	1
0	53891	26105.183007955761	0
0	53924	26111.269944962696	1
0	53926	26112.346596720828	0
0	54555	26419.926706465445	1
0	54556	26420.785670032482	0
0	54635	26445.414427389258	1
0	54636	26445.930205126502	0
0	55282	26888.638584697283	1
0	55286	26890.391879124938	0
0	55795	27213.807622645352	1
0	55796	27214.08666930088	0
0	56324	27529.869820768047	1
0	56329	27531.62099173274	0
0	56397	27556.599982159025	1
0	56401	27558.122853296217	0
0	56405	27559.2791458354	1
0	56411	27559.7929910403	0
0	56720	27653.351330028808	1
0	56721	27653.38812070822	0
0	57447	28014.49462703976	1
0	57451	28016.981070207283	0
0	57494	28028.522548358385	1
0	57496	28028.989064311331	0
0	57519	28033.690922389702	1
0	57521	28034.236838071684	0
0	57580	28058.552678587368	1
0	57581	28058.813093373018	0
0	57640	28072.49360716581	1
0	57641	28073.25405810339	0
0	57645	28074.239406594295	1
0	57646	28075.949843036808	0
0	57700	28097.677687430413	1
0	57701	28099.003006072693	0
0	57717	28102.295413744148	1
0	57721	28103.726635284968	0
0	57750	28111.147516090789	1
0	57751	28111.378095631514	0
0	58146	28269.565909853248	1
0	58148	28269.663755369891	0
0	58242	28289.563923734656	1
0	58249	28290.528358045341	0
0	58291	28298.886454617509	1
0	58293	28299.257289017985	0
0	58304	28301.914026684498	1
0	58314	28304.182229861764	0
0	58331	28306.880084117872	1
0	58333	28306.986046220635	0
0	58336	28307.993489206952	1
0	58338	28308.680112544355	0
0	58356	28312.214364805163	1
0	58359	28313.125260288824	2
0	58364	28314.122490366263	1
0	58366	28314.560226142145	0
0	58384	28318.007447119519	1
0	58388	28318.314654049527	0
0	59100	28727.371458857109	1
0	59101	28727.546767394535	0
0	59110	28729.628710883122	1
0	59111	28730.146023138454	0
0	59127	28732.932872328376	1
0	59129	28733.051317574173	0
0	59290	28846.533785610887	1
0	59291	28846.763033878446	0
0	59315	28855.151827918421	1
0	59316	28856.640388170536	0
0	59356	28863.915708137886	1
0	59358	28864.133057384368	0
0	59361	28864.740588240535	1
0	59369	28866.563461889841	0
0	59427	28897.720642730123	1
0	59436	28899.850256134952	0
0	59935	29212.192389817729	1
0	59939	29213.168839980045	0
0	59951	29214.226072851658	1
0	59953	29214.774330474157	0
0	60420	29437.568815817484	1
0	60421	29437.792132530091	0
0	60425	29438.889540810706	1
0	60426	29439.979544310093	0
0	60510	29484.302113368225	1
0	60511	29484.345771109327	0
0	61097	29783.969449803989	1
0	61101	29789.738019935918	0
1	0	0	0
1	265	108.674955119157	1
1	269	110.337034849626	0
1	277	111.96752357799	1
1	279	112.795003509535	0
1	580	241.686918731348	1
1	586	244.643711388801	0
1	600	248.3201967272	1
1	606	250.711622863992	0
1	1450	682.37322268498	1
1	1456	683.131970547355	0
1	2330	1153.054527598693	1
1	2331	1153.907269492171	0
1	2627	1300.228294663945	1
1	2629	1300.92840059071	0
1	2757	1332.711337420689	1
1	2759	1333.310613159452	0
1	2762	1333.722802430736	1
1	2764	1334.062782484102	0
1	2767	1334.719435381023	1
1	2769	1335.168883071769	0
1	2782	1337.752957064072	1
1	2789	1339.31640312323	0
1	4872	2394.951037337462	1
1	4874	2395.209853969477	0
1	5155	2560.651284543459	1
1	5159	2561.186281414377	0
1	5492	2747.241151130876	1
1	5496	2748.22136429267	0
1	5775	2872.397539542868	1
1	5776	2874.812338728736	0
1	5785	2876.863109591229	1
1	5789	2878.036524207537	0
1	6185	3100.465052646693	1
1	6186	3100.842540819257	0
1	6195	3103.044520231861	1
1	6201	3105.6171969825	0
1	6220	3110.706788466869	1
1	6221	3112.756284219484	0
1	7537	3752.611843169725	1
1	7539	3752.80626100368	0
1	7740	3839.966844258153	1
1	7746	3841.91166856886	0
1	7790	3855.060339171331	1
1	7791	3855.063171155052	0
1	7795	3856.212808221252	1
1	7796	3857.211001205555	0
1	7820	3864.504265959831	1
1	7821	3864.830256865454	0
1	8175	4046.09713267677	1
1	8176	4046.101457533954	0
1	9037	4445.519460623132	1
1	9039	4445.728696380305	0
1	9042	4446.327770180235	1
1	9046	4446.721492510175	0
1	9390	4560.002737866311	1
1	9391	4560.260415279886	0
1	9400	4562.275884368664	1
1	9401	4562.509589497051	0
1	9565	4665.43011438179	1
1	9566	4667.090736674419	0
1	9570	4668.03010435346	1
1	9571	4668.126567593019	0
1	9630	4715.388748832319	1
1	9631	4718.423193021303	0
1	10200	4963.497863334162	1
1	10201	4963.498877678294	0
1	10975	5355.746933396987	1
1	10976	5356.459669829543	0
1	10985	5358.403151266194	1
1	10986	5358.936003916375	0
1	11025	5366.631324226166	1
1	11035	5368.789590710591	2
1	11036	5368.806341360201	1
1	11039	5369.059019055024	0
1	11110	5392.800494548545	1
1	11111	5394.852584018526	0
1	11125	5397.844466943169	1
1	11129	5398.874367816621	0
1	12010	5872.523401922325	1
1	12011	5873.644572832909	0
1	12417	6101.563819602207	1
1	12419	6102.092009618767	0
1	12935	6325.841031055309	1
1	12941	6333.542358535155	0
1	13127	6444.389479148163	1
1	13130	6445.430380058716	2
1	13131	6445.772272923333	1
1	13134	6446.589010253746	0
1	13145	6448.697822731943	1
1	13146	6450.38295619222	0
1	13565	6719.289940482351	1
1	13566	6719.594458197247	0
1	13830	6878.950570298318	1
1	13831	6879.21969418767	0
1	14130	7127.807885354401	1
1	14131	7128.78092769985	0
1	14452	7288.838007385829	1
1	14455	7289.971731661992	2
1	14459	7292.350151012056	1
1	14461	7292.520350915196	0
1	14915	7560.658835811617	1
1	14916	7562.281611262086	0
1	14940	7569.337454813046	1
1	14941	7569.663636142277	0
1	15055	7602.158649525089	1
1	15056	7608.922504394716	0
1	15146	7638.418412471407	1
1	15148	7638.508699940356	0
1	15950	7952.744097610724	1
1	15951	7953.059617958538	0
1	17647	8780.155159177603	1
1	17649	8780.735818607922	0
1	17865	8855.349707908646	1
1	17866	8855.391278680012	0
1	19295	9672.116512748144	1
1	19296	9675.507469425989	0
1	19320	9680.095678392132	1
1	19321	9680.772943701154	0
1	19360	9707.946381777509	1
1	19361	9709.466326119223	0
1	19370	9711.632306777624	1
1	19371	9713.246566179946	0
1	19580	9823.067451540663	1
1	19581	9823.799184104294	0
1	19585	9824.643851600454	1
1	19586	9828.303950188082	0
1	19810	9942.111657513843	1
1	19811	9942.573608278857	0
1	19910	9973.066234606028	1
1	19911	9973.710041892772	0
1	20460	10191.566404728778	1
1	20461	10191.892084677765	0
1	21860	10957.449050614006	1
1	21861	10957.91156785256	0
1	21910	10967.356989760891	1
1	21911	10968.038907744144	0
1	22095	11052.075430804037	1
1	22096	11052.495390406329	0
1	22545	11278.549080914	1
1	22546	11278.776287967779	0
1	23197	11645.909593984047	1
1	23204	11647.042957973899	0
1	23275	11665.712279550442	1
1	23276	11665.846323140579	0
1	23380	11696.154149145312	1
1	23381	11696.372680613573	0
1	23385	11697.272268904268	1
1	23389	11697.778212656335	0
1	23697	11836.209163081148	1
1	23704	11838.407965821863	0
1	23832	11873.983997711003	1
1	23834	11874.877048789703	0
1	23852	11878.047194274334	1
1	23861	11882.870393320782	0
1	23919	11904.5140869488	1
1	23924	11905.881251142198	0
1	23927	11906.512477460503	1
1	23939	11909.457643557434	0
1	23950	11911.77752837576	1
1	23951	11912.734658969684	0
1	23960	11914.835906432594	1
1	23961	11914.907406083404	0
1	23974	11917.062548573598	1
1	23976	11917.127073565983	0
1	24410	12074.839146535307	1
1	24411	12074.959218440476	0
1	25234	12413.528464788041	1
1	25254	12417.056813804461	2
1	25258	12417.352178889115	1
1	25265	12419.290463611948	0
1	25352	12452.965685014565	1
1	25356	12454.511236472339	0
1	25410	12485.012186650327	1
1	25411	12487.020063143837	0
1	25430	12490.926068300343	1
1	25431	12492.564854075178	0
1	25435	12493.49509197881	1
1	25439	12495.552952408824	0
1	25447	12496.82295584694	1
1	25449	12497.563178062016	0
1	25734	12601.601405255421	1
1	25741	12602.63332411553	0
1	25935	12705.94728678388	1
1	25936	12707.994299294772	0
1	25945	12709.618713554713	1
1	25946	12710.131865721106	0
1	26029	12752.311902483839	1
1	26036	12754.220769281827	0
1	26045	12756.545210803494	1
1	26061	12759.288256222454	0
1	26120	12772.005077164838	1
1	26121	12773.216825576728	0
1	26445	12929.856055446975	1
1	26446	12931.929660362172	0
1	26530	12956.586762836351	1
1	26531	12957.48168865256	0
1	26535	12958.38111754423	1
1	26536	12959.172895352022	0
1	26714	13057.218522634281	1
1	26716	13057.463499708685	0
1	28451	13780.398356670614	1
1	28460	13781.461236772904	0
1	28930	14006.005690552598	1
1	28931	14006.574945690056	0
1	29195	14081.794761024802	1
1	29196	14083.951722205604	0
1	29205	14085.972083713195	1
1	29206	14087.295151564316	0
1	29265	14126.980177606302	1
1	29266	14127.081456579775	0
1	29607	14218.709814612954	1
1	29614	14219.952373792381	0
1	30490	14720.795198548385	1
1	30491	14721.499066408718	0
1	30795	14916.244136065869	1
1	30796	14916.451552036001	0
1	30805	14918.306570208414	1
1	30809	14919.143078266115	0
1	30825	14923.209264485451	1
1	30826	14924.715142803707	0
1	30830	14925.524365634166	1
1	30831	14926.170376474044	0
1	31322	15158.491137272692	1
1	31326	15161.372086874987	0
1	31590	15371.032780325708	1
1	31591	15371.929221656982	0
1	31595	15372.9487616277	1
1	31601	15376.891626650149	0
1	32297	15717.856204750328	1
1	32300	15718.947176028913	2
1	32301	15720.057605582704	1
1	32305	15720.978285629158	2
1	32306	15721.022208454867	1
1	32311	15722.309573489942	0
1	32792	15893.943293973122	1
1	32795	15894.759029210609	2
1	32799	15895.810796706914	1
1	32802	15896.140258887733	2
1	32805	15897.06529900259	3
1	32806	15898.473173913576	2
1	32810	15899.387171369262	3
1	32819	15901.808557264412	2
1	32826	15902.881864696999	1
1	32832	15904.197251508798	2
1	32834	15904.562111000557	1
1	32836	15905.117884911481	0
1	33070	16054.577744297241	1
1	33074	16054.634392408759	0
1	34307	16600.569844550769	1
1	34311	16601.757952988302	0
1	34315	16602.670940676579	1
1	34316	16602.928557760177	0
1	34337	16606.82609193083	1
1	34339	16606.835105059664	0
1	34369	16612.979138702433	1
1	34375	16615.07975987466	2
1	34384	16617.528063875723	1
1	34392	16618.448682550978	2
1	34396	16622.873020199113	1
1	34399	16623.192669739184	0
1	34402	16623.785125117083	1
1	34405	16624.765977063482	2
1	34406	16625.843396682972	1
1	34409	16626.15189453075	0
1	34422	16628.633390400959	1
1	34427	16629.52278361435	2
1	34429	16629.543636008907	1
1	34431	16629.596658117407	0
1	35075	16948.9926313181	1
1	35076	16949.137622386801	0
1	36450	17608.920412445041	1
1	36451	17609.037061323203	0
1	36460	17610.736573923729	1
1	36464	17611.380252544654	0
1	40372	19654.058679993821	1
1	40374	19654.335104129889	0
1	40390	19657.994011279473	1
1	40394	19659.850446624761	0
1	40785	19845.618862224134	1
1	40786	19847.902329553385	0
1	41472	20249.071599436519	1
1	41479	20251.430421547914	0
1	41732	20354.142610703349	1
1	41736	20358.305369828345	0
1	41900	20428.347758960338	1
1	41901	20428.517836676571	0
1	42222	20553.487220112781	1
1	42231	20556.365594918661	0
1	42775	20860.5715230221	1
1	42776	20860.715502882522	0
1	42790	20863.803773364663	1
1	42791	20863.923191919157	0
1	42797	20865.104698167534	1
1	42804	20867.619037001604	0
1	43032	21015.499449677818	1
1	43034	21015.713153515611	0
1	43337	21103.855209187526	1
1	43340	21104.815134045683	2
1	43344	21105.776246231265	1
1	43349	21106.004065088029	0
1	43437	21172.229152038021	1
1	43444	21173.859015665146	0
1	43619	21249.822431975338	1
1	43621	21250.150474738733	0
1	43647	21255.264158692504	1
1	43650	21256.132329809866	2
1	43651	21256.314063265428	1
1	43656	21256.582214665728	0
1	43659	21257.324750747133	1
1	43661	21258.132637527431	0
1	44155	21479.053047065809	1
1	44157	21479.33765034093	0
1	44193	21486.656470857001	1
1	44195	21486.743223493404	0
1	44217	21493.440238556451	1
1	44219	21493.46431397935	0
1	44560	21635.508292766227	1
1	44561	21636.483734080511	0
1	44785	21759.286645438806	1
1	44786	21761.019043708667	0
1	44900	21813.427430426463	1
1	44901	21813.665964587967	0
1	45285	22043.352726545829	1
1	45286	22045.877432477009	0
1	45567	22174.3773044542	1
1	45574	22175.836405946365	0
1	47037	22805.844910631701	1
1	47041	22806.363147939722	0
1	47750	23063.832501890056	1
1	47751	23064.428228769826	0
1	47876	23105.48501358067	1
1	47878	23106.044512794959	0
1	47906	23111.861882882541	1
1	47919	23115.145086735731	0
1	47930	23117.385351399959	1
1	47936	23118.876681004356	0
1	48205	23246.516492962247	1
1	48206	23247.980740350669	0
1	48402	23356.515784142797	1
1	48404	23356.580401654649	0
1	48412	23358.451275800241	1
1	48414	23359.284542569698	0
1	48900	23626.502403103075	1
1	48901	23627.124765648452	0
1	49212	23789.012150489776	1
1	49214	23789.263087145474	0
1	49225	23792.133750538672	1
1	49226	23792.202890387129	0
1	49230	23793.324129532695	1
1	49234	23793.750057576305	0
1	49240	23795.535150730499	1
1	49241	23798.262031674601	0
1	49245	23799.321479571082	1
1	49246	23799.484438970465	0
1	49650	24082.926679191971	1
1	49655	24086.53435604942	2
1	49659	24086.926404711846	1
1	49671	24089.464645651425	0
1	49710	24097.875313393053	1
1	49711	24098.591198052207	0
1	49717	24099.454374240546	1
1	49721	24099.909470520449	0
1	49747	24105.466461656728	1
1	49751	24107.354379516774	0
1	49954	24172.519446107789	1
1	49956	24172.762464329245	0
1	50095	24230.877081445571	1
1	50096	24230.982649864475	0
1	50870	24620.08365137677	1
1	50874	24621.527714958011	0
1	51077	24717.673216779713	1
1	51079	24718.123686747212	0
1	51110	24725.235620507864	1
1	51111	24726.703451316065	0
1	51355	24821.381931376712	1
1	51356	24821.875593400683	0
1	52727	25535.41139922628	1
1	52736	25536.43880857019	0
1	52767	25542.887037902435	1
1	52775	25545.142457065449	2
1	52776	25545.250796583658	1
1	52779	25546.324016430217	0
1	52789	25547.460494695222	1
1	52794	25548.647884277251	0
1	52935	25605.019043830538	1
1	52936	25605.669208200377	0
1	54090	26187.224068602896	1
1	54091	26187.328259938179	0
1	55245	26877.922588351304	1
1	55246	26878.140242290896	0
1	55757	27182.096778027059	1
1	55759	27182.803530705482	0
1	56910	27758.594331704167	1
1	56911	27759.878437862222	0
1	57810	28138.300565029566	1
1	57811	28139.130933114382	0
1	57817	28140.238834217338	1
1	57819	28140.904517007367	0
1	57822	28141.177782578355	1
1	57831	28147.045440070654	0
1	58010	28230.167426366152	1
1	58011	28231.242473922198	0
1	58015	28232.324144378857	1
1	58016	28233.959895763639	0
1	58371	28315.095980512254	1
1	58378	28316.656673929668	0
1	59700	28999.749626466261	1
1	59701	28999.82045065503	0
1	59974	29219.343879910835	1
1	59976	29219.357786091953	0
1	60197	29289.621205289172	1
1	60199	29290.04128153889	0
1	60202	29290.485799603326	1
1	60207	29291.429937639901	2
1	60209	29292.438166022547	1
1	60211	29292.484959108664	0
1	60725	29616.06862505893	1
1	60726	29617.202473015801	0
1	61235	29882.052585056577	1
1	61236	29885.25144510837	0
2	0	0	0
2	15	4.527245380953	1
2	16	4.885700214088	0
2	27	6.662318518731	1
2	28	6.880728701868	0
2	32	7.903173990892	1
2	33	8.026345543743	0
2	45	10.44270554563	1
2	46	11.144981809184	0
2	50	12.055074916497	1
2	51	12.064835441429	0
2	55	12.539416030447	1
2	56	12.978030706234	0
2	60	13.331461939752	1
2	62	13.447282321752	2
2	63	13.969083429351	1
2	67	14.01665440152	2
2	68	15.084563714489	1
2	72	15.626681168321	2
2	73	16.04640375575	1
2	77	16.398455854913	2
2	78	16.906766434144	1
2	83	17.728862973433	0
2	90	18.867401986355	1
2	91	19.650786882583	0
2	130	44.578713238192	1
2	131	45.454389672137	0
2	165	64.859119210768	1
2	167	64.912885455933	2
2	168	65.354094566056	1
2	171	66.386404496828	0
2	175	67.240314839254	1
2	177	67.546606854134	2
2	178	67.568139642967	1
2	181	68.721685331153	0
2	185	68.737506013404	1
2	188	69.66413544661	0
2	210	80.125389683657	1
2	211	80.996054372451	0
2	235	97.233592437667	1
2	236	98.359569902235	0
2	305	118.77550425216	1
2	306	119.454175838062	0
2	345	136.150309487752	1
2	347	136.583370261498	2
2	348	136.879049051157	1
2	351	137.840478649153	0
2	410	167.790198146515	1
2	412	168.550975895529	2
2	413	168.665280417687	1
2	416	169.783091734498	0
2	420	170.68375405212	1
2	421	170.899775461163	0
2	430	176.442511441245	1
2	431	177.258749400012	0
2	435	177.691774711269	1
2	436	178.318787973773	0
2	445	179.969192628459	1
2	446	180.520539730744	0
2	490	207.241121195354	1
2	492	207.581646408665	2
2	493	207.931841343394	1
2	498	208.93248493833	0
2	535	225.087295559073	1
2	536	225.655868214046	0
2	615	251.960889284281	1
2	616	252.857826757043	0
2	665	276.09590774144	1
2	666	276.877492488223	0
2	695	298.38781545524	1
2	696	298.60466270112	0
2	700	298.867922780816	1
2	701	299.75644789143	0
2	705	300.480389480675	1
2	706	300.857072132179	0
2	710	301.604136322417	1
2	711	301.989050900941	0
2	780	369.20464240948	1
2	782	369.223246311998	2
2	783	369.920508124437	1
2	786	370.926165079735	0
2	795	373.060754588639	1
2	796	373.788710662154	0
2	905	449.048327436264	1
2	906	449.074900120143	0
2	910	449.306794227323	1
2	911	450.154444482662	0
2	930	455.950692993264	1
2	931	456.833335052808	0
2	935	456.868013239406	1
2	936	457.773381161881	0
2	945	459.457115377333	1
2	946	459.631706921482	0
2	950	460.073143810061	1
2	951	460.633877309976	0
2	960	463.182616424118	1
2	961	463.895879883153	0
2	965	463.980413744223	1
2	966	464.872789733691	0
2	985	477.600639696768	1
2	986	478.337243331154	0
2	1020	501.853374906885	1
2	1021	502.302478455898	0
2	1025	502.72511253197	1
2	1026	503.32649205798	0
2	1035	505.422919321515	1
2	1036	506.289322674502	0
2	1040	506.605587060638	1
2	1041	507.165249243792	0
2	1050	509.187014120856	1
2	1051	509.270623901705	0
2	1057	510.175179410455	1
2	1059	510.237131702552	2
2	1060	510.461311480901	1
2	1064	511.411201723622	2
2	1065	511.586595518174	1
2	1068	512.576101487534	0
2	1075	513.977774999898	1
2	1076	514.551143750208	0
2	1080	515.473007713188	1
2	1081	515.521556700705	0
2	1087	516.433978294215	1
2	1088	516.696410452234	0
2	1145	536.004075127179	1
2	1148	536.419653015079	0
2	1157	538.339242536532	1
2	1158	538.51365553621	0
2	1164	538.573677630515	1
2	1166	539.46752536623	2
2	1167	539.594900488628	1
2	1170	540.44761127183	0
2	1197	547.209321862323	1
2	1198	547.765603394132	0
2	1205	549.308486887007	1
2	1208	549.840932501271	0
2	1212	550.545233662628	1
2	1213	550.656596971281	0
2	1222	552.137020152551	1
2	1224	552.245461566061	2
2	1226	552.455128021431	3
2	1227	552.803701749236	2
2	1230	553.635676117127	1
2	1234	553.781163339577	2
2	1235	554.637954598551	1
2	1238	555.665168372893	0
2	1242	555.709773008001	1
2	1243	556.612959508018	0
2	1270	568.869831715727	1
2	1271	569.679461264769	0
2	1275	569.929112108019	1
2	1277	570.325668956802	2
2	1278	570.607064244217	1
2	1281	571.68161195281	0
2	1325	633.180241049438	1
2	1326	633.760148660686	0
2	1350	643.688805822012	1
2	1352	644.156164450826	2
2	1353	644.277838025673	1
2	1361	644.764333611948	2
2	1362	645.37300312348	1
2	1365	646.303271023988	0
2	1375	648.422718310599	1
2	1376	649.214222639671	0
2	1395	666.042404885534	1
2	1396	666.549611038964	0
2	1427	676.708429701275	1
2	1428	677.394028328479	0
2	1432	678.010256830958	1
2	1435	678.498689267252	0
2	1455	682.630621483134	1
2	1460	683.332589723257	0
2	1467	685.250801701172	1
2	1468	685.454708558315	0
2	1475	687.132924407377	1
2	1476	687.277489737881	0
2	1485	688.583317301806	1
2	1486	689.357117476681	0
2	1502	692.480069479704	1
2	1503	693.138924825544	0
2	1520	706.586956276717	1
2	1521	707.076107768044	0
2	1535	711.59071465903	1
2	1536	712.093032315224	0
2	1544	712.769714161088	1
2	1545	713.209999195151	0
2	1600	737.187213832265	1
2	1601	737.40301404209	0
2	1610	739.399159837198	1
2	1611	739.600986792402	0
2	1650	754.366819146354	1
2	1651	755.153936607009	0
2	1800	860.291214308026	1
2	1801	861.116943319016	0
2	1805	861.38890161466	1
2	1806	862.215923376721	0
2	1810	862.289244976702	1
2	1811	863.05723613637	0
2	1895	897.876588107489	1
2	1896	898.566728615457	0
2	1960	941.861769293818	1
2	1961	942.808687148926	0
2	2015	960.93664365232	1
2	2018	961.857712125445	0
2	2095	1020.57719224934	1
2	2096	1021.509845489161	0
2	2140	1055.535727187567	1
2	2141	1056.212234971487	0
2	2150	1057.733141444651	1
2	2152	1058.170086966505	2
2	2153	1058.848571496633	1
2	2156	1059.990851870728	0
2	2185	1076.278455590664	1
2	2186	1076.614804549231	0
2	2192	1077.121501878402	1
2	2193	1077.494961404423	0
2	2205	1079.724686221963	1
2	2206	1080.67382569468	0
2	2225	1085.743693946024	1
2	2226	1086.167774064229	0
2	2240	1088.250959036564	1
2	2241	1089.103740626506	0
2	2245	1089.283367031636	1
2	2246	1090.003602716445	0
2	2255	1092.605740496532	1
2	2256	1093.032051233211	0
2	2340	1154.964763304941	1
2	2343	1155.79911945321	0
2	2354	1156.788682683089	1
2	2355	1157.932898816544	0
2	2365	1160.517026197144	1
2	2366	1161.095308512526	0
2	2375	1172.400855495779	1
2	2376	1172.528085635594	0
2	2442	1215.483554063514	1
2	2443	1215.499276200612	0
2	2460	1219.010406023615	1
2	2462	1219.027276130233	2
2	2463	1220.134896979567	1
2	2466	1221.056034404684	0
2	2475	1223.64004073997	1
2	2476	1224.29202713452	0
2	2485	1227.530231603645	1
2	2486	1228.498228547771	0
2	2490	1229.495832364633	1
2	2491	1229.633814701207	0
2	2565	1278.189703622715	1
2	2566	1279.007890768895	0
2	2625	1300.168334813916	1
2	2626	1300.228294663945	0
2	2650	1306.329428349538	1
2	2651	1306.380660475169	0
2	2670	1312.524357129859	1
2	2671	1312.674761238053	0
2	2729	1326.095200551368	1
2	2732	1326.902403650777	0
2	2772	1335.3457192784	1
2	2773	1335.862314545056	0
2	2780	1337.725416146068	1
2	2781	1337.752957064072	0
2	2785	1338.322844312528	1
2	2786	1338.802607400408	0
2	2835	1358.43932534586	1
2	2836	1358.782593139271	0
2	2925	1401.972065511088	1
2	2926	1402.698637626495	0
2	2930	1402.994171499335	1
2	2931	1403.638277535036	0
2	2935	1403.892141227793	1
2	2936	1404.787185774267	0
2	2965	1426.104446721705	1
2	2967	1426.7078732201	2
2	2968	1427.083119403255	1
2	2973	1428.13774749307	0
2	2980	1429.654716518666	1
2	2981	1430.280985159856	0
2	3010	1438.448231217375	1
2	3011	1439.243397882718	0
2	3015	1439.899213476575	1
2	3016	1440.236188202489	0
2	3025	1441.65331206656	1
2	3028	1442.02060651886	0
2	3035	1443.134340201483	1
2	3036	1443.698540542039	0
2	3050	1448.470971362842	1
2	3051	1449.130671049724	0
2	3060	1450.187853197348	1
2	3061	1451.0635158004	0
2	3115	1497.421634143569	1
2	3116	1497.786750933619	0
2	3130	1501.958138405809	1
2	3133	1502.21174962187	0
2	3140	1503.996194925301	1
2	3141	1504.162264297826	0
2	3145	1504.817197755945	1
2	3148	1505.03073510669	0
2	3155	1506.293724991621	1
2	3156	1506.931119770201	0
2	3167	1508.524744676734	1
2	3168	1508.791974785195	0
2	3177	1510.63019124263	1
2	3178	1511.106308682186	0
2	3225	1538.35532434217	1
2	3226	1538.999284246726	0
2	3270	1592.550753244946	1
2	3271	1593.522219949013	0
2	3325	1625.037015732214	1
2	3326	1625.896509765197	0
2	3350	1632.548728081685	1
2	3351	1632.875853731663	0
2	3355	1633.406889069957	1
2	3356	1633.843442398489	0
2	3380	1644.774098992406	1
2	3384	1644.944067467712	2
2	3385	1645.542387549828	1
2	3388	1646.378951840258	0
2	3400	1649.005833905348	1
2	3401	1650.020169769802	0
2	3475	1684.543716403633	1
2	3476	1685.343395134604	0
2	3500	1705.544295529997	1
2	3501	1706.212207357857	0
2	3555	1757.418025827877	1
2	3556	1757.775554959287	0
2	3585	1778.991141960657	1
2	3586	1779.872439895627	0
2	3685	1848.099607923286	1
2	3686	1848.66051548323	0
2	3690	1848.869904342899	1
2	3691	1849.858217158489	0
2	3720	1859.594710101593	1
2	3721	1859.78505406098	0
2	3785	1894.793057511464	1
2	3786	1895.605476028479	0
2	3815	1913.143677480196	1
2	3816	1913.855118330362	0
2	3822	1914.843376341655	1
2	3823	1914.884777216966	0
2	3835	1917.814169675619	1
2	3836	1918.59994737271	0
2	3840	1919.556521900502	1
2	3841	1919.644305488353	0
2	3895	1963.011974706395	1
2	3896	1963.721952066883	0
2	4010	2050.182858076983	1
2	4011	2050.560880952783	0
2	4015	2050.626842443184	1
2	4017	2050.650137687563	2
2	4018	2051.411532004912	1
2	4022	2051.79177217546	2
2	4024	2051.84358035765	3
2	4025	2052.346662104771	2
2	4029	2052.546467310191	3
2	4030	2053.163058075298	2
2	4034	2053.618909810825	3
2	4036	2053.870207142476	4
2	4037	2054.255508301862	3
2	4040	2055.302882650856	2
2	4044	2055.306861373222	3
2	4046	2056.348309052523	4
2	4047	2056.36417110496	3
2	4050	2057.316295508005	2
2	4054	2058.071015345886	3
2	4055	2058.212332036894	2
2	4060	2059.160852206394	1
2	4065	2060.122612175427	0
2	4069	2060.821143666119	1
2	4071	2060.835130526807	2
2	4072	2061.251839564543	1
2	4076	2062.244547622482	2
2	4077	2062.403714958101	1
2	4081	2062.804494093953	2
2	4082	2063.303046266444	1
2	4085	2064.448821991019	0
2	4125	2097.118604547259	1
2	4126	2097.639052085371	0
2	4135	2098.797385024135	1
2	4136	2099.600402284308	0
2	4140	2099.769843119063	1
2	4141	2100.433616911421	0
2	4155	2103.974333467271	1
2	4156	2104.319888388708	0
2	4177	2110.125143803786	1
2	4179	2110.30711250033	2
2	4180	2111.031137035516	1
2	4185	2111.90044568424	0
2	4192	2113.484888110109	1
2	4193	2113.748990628504	0
2	4197	2114.09828867328	1
2	4202	2114.836412886631	0
2	4206	2115.024883333098	1
2	4208	2115.748814406762	2
2	4209	2116.000440428693	1
2	4212	2116.999218761835	0
2	4219	2118.295635794149	1
2	4221	2118.323737022539	2
2	4222	2119.072503850896	1
2	4228	2119.699394392306	2
2	4229	2120.147058545154	1
2	4232	2121.196637809378	0
2	4236	2121.485843107421	1
2	4237	2122.361529133105	0
2	4307	2151.752662532081	1
2	4309	2151.917428373481	2
2	4310	2152.049844910815	1
2	4313	2152.945531426329	0
2	4317	2153.177889575164	1
2	4318	2153.904621733218	0
2	4322	2154.584568921978	1
2	4323	2154.769729963369	0
2	4330	2156.207590413446	1
2	4331	2156.845599076669	0
2	4337	2157.773325277477	1
2	4338	2157.886427316773	0
2	4342	2158.318068838291	1
2	4343	2158.891178101539	0
2	4347	2159.169260311022	1
2	4348	2159.871569081168	0
2	4360	2162.282095735352	1
2	4363	2162.877353810718	0
2	4372	2164.1322264525	1
2	4373	2164.781138259558	0
2	4377	2165.114344821544	1
2	4378	2165.869292281488	0
2	4385	2167.518903353404	1
2	4387	2167.69178049747	2
2	4389	2167.700293082628	3
2	4390	2168.046262646852	2
2	4395	2169.099796908362	1
2	4399	2169.861362927644	2
2	4400	2170.010356464716	1
2	4404	2170.30452407376	2
2	4405	2171.14773327663	1
2	4408	2171.976352352476	0
2	4420	2173.922095324068	1
2	4421	2174.845776938102	0
2	4510	2244.771665039194	1
2	4511	2245.488340080236	0
2	4540	2252.539096069332	1
2	4541	2253.35056782595	0
2	4545	2253.850540033653	1
2	4547	2253.901093130251	2
2	4548	2254.160210497278	1
2	4552	2254.230787647249	2
2	4555	2255.131362098056	1
2	4558	2256.260059063948	0
2	4562	2257.090705845024	1
2	4563	2257.296391202948	0
2	4575	2260.476502616539	1
2	4576	2260.545869334012	0
2	4655	2289.532607582386	1
2	4656	2289.950483720581	0
2	4670	2293.959423978791	1
2	4671	2294.006362588984	0
2	4675	2294.123280676156	1
2	4676	2294.986982298178	0
2	4682	2296.065718718943	1
2	4683	2296.148098898401	0
2	4700	2304.491878193679	1
2	4703	2305.297187750202	0
2	4735	2329.020647975547	1
2	4736	2329.817125693906	0
2	4747	2331.46903504016	1
2	4748	2332.031741226356	0
2	4810	2371.483317483365	1
2	4811	2371.624509588721	0
2	4852	2390.623558872585	1
2	4855	2391.055810360814	0
2	4879	2396.016744048524	1
2	4880	2396.104728779959	0
2	4887	2397.021533650362	1
2	4888	2398.131955059356	0
2	4897	2399.210574301072	1
2	4898	2400.16278803164	0
2	4925	2407.788415993876	1
2	4926	2408.043049721655	0
2	4935	2409.111291681264	1
2	4936	2409.835461573724	0
2	4950	2414.122027475576	1
2	4951	2414.991943743126	0
2	4955	2415.288677588852	1
2	4956	2416.014957971358	0
2	4990	2447.195928784353	1
2	4991	2447.91258775158	0
2	5005	2460.642512248205	1
2	5006	2460.939005966521	0
2	5030	2491.645971412399	1
2	5031	2491.741050958862	0
2	5035	2492.343715475841	1
2	5036	2492.758978483403	0
2	5045	2494.266582541847	1
2	5047	2494.427084491161	2
2	5048	2494.829582165763	1
2	5053	2495.73065458259	0
2	5075	2504.614503695048	1
2	5076	2505.095126788645	0
2	5162	2561.659521231485	1
2	5163	2562.147800982917	0
2	5190	2583.995544763238	1
2	5191	2584.664302629227	0
2	5215	2593.638219406095	1
2	5217	2593.677583112758	2
2	5218	2594.494403155403	1
2	5221	2595.642866225423	0
2	5365	2681.706668404651	1
2	5366	2682.304536891678	0
2	5405	2705.197210431015	1
2	5406	2705.373253069851	0
2	5410	2705.66544651222	1
2	5411	2706.372125016186	0
2	5440	2735.227727607325	1
2	5441	2735.532819604647	0
2	5465	2741.725152122354	1
2	5466	2741.859684492584	0
2	5490	2746.996257786607	1
2	5491	2747.241151130876	0
2	5500	2749.232438565112	1
2	5501	2749.38227297876	0
2	5550	2763.540455727741	1
2	5551	2764.321855569919	0
2	5555	2764.341050807503	1
2	5558	2765.343907826216	0
2	5590	2779.70120578898	1
2	5591	2780.326476752094	0
2	5595	2781.293787127963	1
2	5596	2781.403953891794	0
2	5600	2782.030579297064	1
2	5601	2782.427742243266	0
2	5610	2785.151081340574	1
2	5611	2785.62443736387	0
2	5640	2806.853927070412	1
2	5641	2806.921465279493	0
2	5760	2869.238527344251	1
2	5761	2869.594191672534	0
2	5820	2902.660025810991	1
2	5821	2903.175980291083	0
2	5850	2913.773022264774	1
2	5851	2914.757800007727	0
2	5885	2946.160579377602	1
2	5886	2946.582297827578	0
2	5890	2946.64973894385	1
2	5891	2947.39941527843	0
2	5925	2960.173358583893	1
2	5926	2961.243892410445	0
2	5965	2972.781015861449	1
2	5966	2973.340760367293	0
2	5995	2989.325731439151	1
2	5996	2989.988658953234	0
2	6075	3029.049581173455	1
2	6076	3029.200094075655	0
2	6175	3096.266678224108	1
2	6176	3096.817671058706	0
2	6240	3117.952751118768	1
2	6243	3118.793491630207	0
2	6260	3123.196025993791	1
2	6261	3123.900543502874	0
2	6275	3126.864908133168	1
2	6276	3127.597333104432	0
2	6280	3127.814331757845	1
2	6283	3128.511961550348	0
2	6315	3148.639579005843	1
2	6316	3149.50224884735	0
2	6330	3152.960374400322	1
2	6331	3153.601360346267	0
2	6335	3153.741120230794	1
2	6336	3154.760505793972	0
2	6340	3155.655356317123	1
2	6341	3155.892434833089	0
2	6345	3156.376728561178	1
2	6346	3156.974085380679	0
2	6350	3157.191826001484	1
2	6351	3157.989075562434	0
2	6375	3182.114701065228	1
2	6376	3183.227626615573	0
2	6385	3186.942983187778	1
2	6386	3187.576750185971	0
2	6390	3188.031615904855	1
2	6391	3188.381250489202	0
2	6395	3188.4599522504	1
2	6397	3188.940119142239	2
2	6398	3189.449599197951	1
2	6401	3190.283129553755	0
2	6405	3190.376538174625	1
2	6406	3191.293657060691	0
2	6410	3191.986180136458	1
2	6411	3192.108748716188	0
2	6427	3198.273561315959	1
2	6428	3199.064640040549	0
2	6445	3208.220009590223	1
2	6446	3208.2433606201	0
2	6465	3234.946588429399	1
2	6466	3235.333495166356	0
2	6470	3235.478996147219	1
2	6471	3236.233062431885	0
2	6475	3236.68269071586	1
2	6476	3237.080565744376	0
2	6520	3271.450053278351	1
2	6521	3272.212851399439	0
2	6525	3272.646058288993	1
2	6526	3273.294363248511	0
2	6530	3273.802939035406	1
2	6531	3274.152684808778	0
2	6535	3274.330224460766	1
2	6536	3274.968595681036	0
2	6540	3275.167384948883	1
2	6541	3275.944407455413	0
2	6545	3276.821368449548	1
2	6546	3276.985876697092	0
2	6585	3296.459218236102	1
2	6587	3296.925606680106	2
2	6588	3297.61760474517	1
2	6591	3298.701182370717	0
2	6605	3307.239889655795	1
2	6606	3307.971273539919	0
2	6610	3308.078121113079	1
2	6611	3308.836538329027	0
2	6620	3310.64016634581	1
2	6621	3310.688216851797	0
2	6635	3313.588107338479	1
2	6636	3314.118830092677	0
2	6645	3316.531003865245	1
2	6646	3317.654180650288	0
2	6675	3345.523940224414	1
2	6676	3345.982365589392	0
2	6680	3346.39129250309	1
2	6681	3347.041155028705	0
2	6685	3347.635918663257	1
2	6686	3348.050064078428	0
2	6700	3350.964663645571	1
2	6701	3351.015965442255	0
2	6725	3358.430775591057	1
2	6726	3359.196929732161	0
2	6730	3359.246344849997	1
2	6731	3360.164341140455	0
2	6750	3364.611644005941	1
2	6751	3365.331349423079	0
2	6775	3372.52014288916	1
2	6776	3372.88503210756	0
2	6780	3373.191825117956	1
2	6782	3373.327104517129	2
2	6783	3373.712071132073	1
2	6786	3374.899027638668	0
2	6795	3377.049055385583	1
2	6796	3377.762988661769	0
2	6802	3378.714640796741	1
2	6803	3378.872047553751	0
2	6845	3410.827227788467	1
2	6846	3411.588954452881	0
2	6925	3457.829838716491	1
2	6926	3458.65961049929	0
2	6935	3460.118162189816	1
2	6936	3461.034180456689	0
2	6965	3488.586453586471	1
2	6966	3489.231418532116	0
2	7000	3509.438031220984	1
2	7001	3510.345660155887	0
2	7010	3511.577679521336	1
2	7011	3512.089264200038	0
2	7025	3514.922575167529	1
2	7027	3514.973862554955	2
2	7028	3515.101226029515	1
2	7033	3515.976282189198	0
2	7042	3516.993018260223	1
2	7045	3517.94180276689	0
2	7052	3518.972267286357	1
2	7053	3520.004678614687	0
2	7064	3521.686339872058	1
2	7065	3522.119389813549	0
2	7079	3524.316864866927	1
2	7080	3525.087488200019	0
2	7125	3561.068713563873	1
2	7126	3561.474859955967	0
2	7130	3561.664864516084	1
2	7132	3562.425288009367	2
2	7133	3562.46238602946	1
2	7139	3562.780203743746	2
2	7142	3563.341238369946	1
2	7145	3564.323118562311	0
2	7157	3566.445705871471	1
2	7158	3567.174416996598	0
2	7170	3572.292218899421	1
2	7171	3572.880956665923	0
2	7185	3580.347595633743	1
2	7186	3580.437552351339	0
2	7205	3614.264461134168	1
2	7206	3615.114474667211	0
2	7240	3626.77345479249	1
2	7241	3626.932867100827	0
2	7260	3636.311063501322	1
2	7261	3636.364395218669	0
2	7275	3639.705422204755	1
2	7278	3640.22632343511	0
2	7287	3641.614039998539	1
2	7289	3641.628014945762	2
2	7290	3642.320743051105	1
2	7294	3642.351747180311	2
2	7295	3643.365803457078	1
2	7298	3644.383246100627	0
2	7302	3644.529319744408	1
2	7303	3645.413182621848	0
2	7307	3645.993608511273	1
2	7308	3646.513997668799	0
2	7315	3647.783263822283	1
2	7316	3648.634271190621	0
2	7345	3657.186593851775	1
2	7346	3657.391605251461	0
2	7360	3659.503235429702	1
2	7363	3660.555992639803	0
2	7377	3663.458828003353	1
2	7378	3663.877077603985	0
2	7385	3665.527621493198	1
2	7386	3665.725965561432	0
2	7410	3684.324314920752	1
2	7412	3684.406019500395	2
2	7413	3684.495811137623	1
2	7416	3685.496089018854	0
2	7420	3685.870405912352	1
2	7421	3686.565939700297	0
2	7425	3686.817217074651	1
2	7426	3687.450084783203	0
2	7430	3687.574195104228	1
2	7431	3688.531768657613	0
2	7440	3692.079500354233	1
2	7442	3692.197068070908	2
2	7443	3692.804628077062	1
2	7446	3693.916482369421	0
2	7455	3695.051443943886	1
2	7456	3696.063733619114	0
2	7460	3696.885631231639	1
2	7461	3697.14502588812	0
2	7477	3700.835909328218	1
2	7478	3701.314237186176	0
2	7482	3701.37669467965	1
2	7483	3702.125853710671	0
2	7552	3754.806697165436	1
2	7553	3755.397722720599	0
2	7575	3759.404263250161	1
2	7576	3760.404750494903	0
2	7595	3774.480435572568	1
2	7596	3775.056339159915	0
2	7625	3791.8217103308	1
2	7626	3792.238875515485	0
2	7685	3822.494923000333	1
2	7686	3822.666666560012	0
2	7755	3844.71231236853	1
2	7758	3845.184363696255	0
2	7805	3859.196754072928	1
2	7806	3859.686887312311	0
2	7870	3881.739432012871	1
2	7871	3882.427108499557	0
2	7912	3900.768083952003	1
2	7913	3901.243264152318	0
2	7920	3902.776119804777	1
2	7922	3902.791768238616	2
2	7923	3902.909800023794	1
2	7929	3903.839951077376	2
2	7930	3903.867964793671	1
2	7934	3904.402965247845	2
2	7935	3904.852272263378	1
2	7938	3905.851529815722	0
2	7942	3906.220634702793	1
2	7943	3906.840528361801	0
2	7947	3907.748497416985	1
2	7948	3907.749281676322	0
2	7952	3907.796662902042	1
2	7953	3908.67510899857	0
2	7965	3910.65081777466	1
2	7966	3911.418048030439	0
2	7977	3912.440085251551	1
2	7978	3913.397205431222	0
2	8010	3922.054391581409	1
2	8011	3922.940702648759	0
2	8130	4022.230884508362	1
2	8131	4022.916989413574	0
2	8210	4073.745323877997	1
2	8211	4074.461720577075	0
2	8235	4082.511566826188	1
2	8236	4083.280302627117	0
2	8245	4085.265883884751	1
2	8246	4086.180868043112	0
2	8320	4149.580531693171	1
2	8321	4149.975724698537	0
2	8330	4150.847940786897	1
2	8331	4151.796325009064	0
2	8350	4157.927171785573	1
2	8352	4157.930538656526	2
2	8353	4158.493230535814	1
2	8357	4158.671314875504	2
2	8361	4159.218749600902	3
2	8362	4159.365838921235	2
2	8365	4160.180663361565	1
2	8368	4161.108208465927	0
2	8372	4161.632322532835	1
2	8373	4162.009973885842	0
2	8395	4178.283099735819	1
2	8396	4178.693899810897	0
2	8400	4179.12720231647	1
2	8402	4179.488197295248	2
2	8403	4179.601863578452	1
2	8406	4180.591120252038	0
2	8410	4181.212669952	1
2	8411	4181.614992519586	0
2	8415	4182.08457855652	1
2	8416	4182.475291579055	0
2	8420	4182.767660110289	1
2	8422	4182.864511712952	2
2	8423	4183.481618155191	1
2	8427	4183.550373278259	2
2	8429	4184.096505049266	3
2	8430	4184.30513970873	2
2	8433	4185.208296670231	1
2	8436	4186.311673245697	0
2	8440	4186.452724022027	1
2	8441	4187.336673429354	0
2	8475	4211.150809011437	1
2	8478	4211.79048598007	0
2	8482	4212.427269582155	1
2	8483	4212.794803536298	0
2	8487	4212.904788123277	1
2	8488	4213.688240098847	0
2	8495	4215.436968882376	1
2	8497	4215.818535093112	2
2	8498	4215.879720991184	1
2	8501	4217.061606067498	0
2	8505	4217.20702978754	1
2	8508	4217.979764529583	0
2	8520	4220.651687146233	1
2	8521	4221.386665049786	0
2	8535	4227.695953781805	1
2	8536	4227.712125734243	0
2	8555	4231.801892027258	1
2	8556	4232.109546724171	0
2	8565	4233.260496039196	1
2	8566	4234.335647490085	0
2	8620	4246.213208817315	1
2	8621	4246.99294418237	0
2	8625	4247.538989650675	1
2	8628	4247.943694086474	0
2	8632	4248.132491461534	1
2	8633	4248.876286841378	0
2	8652	4253.207920943604	1
2	8653	4253.296548623885	0
2	8660	4254.577424744418	1
2	8661	4255.462841760847	0
2	8670	4257.670250362295	1
2	8672	4257.702995449819	2
2	8673	4257.892519343235	1
2	8676	4258.903429671806	0
2	8687	4261.148240148404	1
2	8688	4261.325575484201	0
2	8697	4262.813686347339	1
2	8698	4263.358950170833	0
2	8710	4266.15327586042	1
2	8711	4266.510456041206	0
2	8750	4312.052206527252	1
2	8753	4312.598171183337	0
2	8759	4313.75468936948	1
2	8760	4313.788714006693	0
2	8767	4314.84129523496	1
2	8769	4315.289985606451	2
2	8770	4315.751073902716	1
2	8773	4316.930298219957	0
2	8777	4317.77117202826	1
2	8778	4317.846526828651	0
2	8790	4320.83003662646	1
2	8791	4321.214461627836	0
2	8845	4367.643727234509	1
2	8846	4368.417401391352	0
2	8865	4376.59018628386	1
2	8866	4377.297591115717	0
2	8870	4377.610163449992	1
2	8872	4377.862609798819	2
2	8873	4378.420684699245	1
2	8877	4378.920942505977	2
2	8878	4379.594844300762	1
2	8881	4380.730856570412	0
2	8930	4420.427960051263	1
2	8931	4420.469891514656	0
2	8950	4425.411992516925	1
2	8951	4426.321891944225	0
2	8960	4428.749440497693	1
2	8961	4429.551196134032	0
2	8965	4429.816693678585	1
2	8966	4430.731846467627	0
2	8970	4430.803684334294	1
2	8971	4431.757511539141	0
2	8975	4431.942550014228	1
2	8976	4432.78216859795	0
2	8980	4433.374183884891	1
2	8981	4433.712579006924	0
2	8985	4433.748183979163	1
2	8986	4434.651409707534	0
2	8992	4435.185070519868	1
2	8993	4435.66291744219	0
2	9000	4436.896506701405	1
2	9001	4437.768516359328	0
2	9010	4439.25671642515	1
2	9011	4440.255437680742	0
2	9022	4442.174586214035	1
2	9023	4442.643402081801	0
2	9045	4446.347259650247	1
2	9048	4447.374592086001	0
2	9060	4449.812403441573	1
2	9061	4450.648440176694	0
2	9110	4466.879360111114	1
2	9111	4467.543230480045	0
2	9115	4467.648908267028	1
2	9116	4468.7391260853	0
2	9125	4470.262393036615	1
2	9127	4470.451549669948	2
2	9128	4471.136326549555	1
2	9131	4471.966667921076	0
2	9135	4472.592631977379	1
2	9136	4473.014816328397	0
2	9145	4475.60168659032	1
2	9146	4475.8240886296	0
2	9160	4478.374743341514	1
2	9161	4479.253214591899	0
2	9215	4506.310873864318	1
2	9216	4507.129378919532	0
2	9225	4509.297098614927	1
2	9226	4509.8222105716	0
2	9230	4510.181179828704	1
2	9231	4510.729127047362	0
2	9235	4510.750223172998	1
2	9236	4511.715903404786	0
2	9240	4512.61157194518	1
2	9241	4512.840689995012	0
2	9245	4513.21552323355	1
2	9246	4513.877041987109	0
2	9250	4514.256243177136	1
2	9251	4514.934322346619	0
2	9255	4515.031699013313	1
2	9257	4515.240142859384	2
2	9258	4515.874620151578	1
2	9262	4516.661026520983	2
2	9263	4516.963230271323	1
2	9266	4518.05881584041	0
2	9270	4518.216850334614	1
2	9271	4518.925122954847	0
2	9275	4519.107140072316	1
2	9276	4519.835778845625	0
2	9280	4520.294229568751	1
2	9281	4520.735737018066	0
2	9300	4525.322972060188	1
2	9301	4526.005584427868	0
2	9305	4526.290152484985	1
2	9307	4527.125096963703	2
2	9308	4527.162736885776	1
2	9311	4528.195075039067	0
2	9350	4547.654322279111	1
2	9351	4548.194204056918	0
2	9355	4548.487987247267	1
2	9356	4549.001186848621	0
2	9370	4552.702937468274	1
2	9371	4553.68732456291	0
2	9420	4568.559399155151	1
2	9421	4569.05469210667	0
2	9445	4597.515063638661	1
2	9446	4598.230916052603	0
2	9475	4615.185354575642	1
2	9476	4615.477902410767	0
2	9515	4636.829705406227	1
2	9516	4637.635650360657	0
2	9550	4661.740857364029	1
2	9551	4661.986248352127	0
2	9665	4727.91874136698	1
2	9666	4728.027019797877	0
2	9670	4728.754910572478	1
2	9671	4728.932645194099	0
2	9675	4729.883234608751	1
2	9676	4730.028677276761	0
2	9685	4733.286691618284	1
2	9686	4734.152574683759	0
2	9705	4739.245050461385	1
2	9707	4739.27859417084	2
2	9708	4739.472878020373	1
2	9712	4739.987066214153	2
2	9713	4740.278169170697	1
2	9717	4740.93114963895	2
2	9718	4741.115708674979	1
2	9723	4742.046953873732	0
2	9745	4749.14928317379	1
2	9746	4749.383583409829	0
2	9760	4753.249208150087	1
2	9761	4754.302694535787	0
2	9765	4754.659409095048	1
2	9766	4755.411286194036	0
2	9770	4755.455549080055	1
2	9771	4756.296686523473	0
2	9775	4756.901373609022	1
2	9778	4757.470579517325	0
2	9782	4757.654137187478	1
2	9783	4758.543468552613	0
2	9790	4760.152089093292	1
2	9791	4760.647208671988	0
2	9795	4760.848155925918	1
2	9796	4761.713847890374	0
2	9800	4762.598685812703	1
2	9801	4762.69095793289	0
2	9830	4789.323450849862	1
2	9832	4789.524714234399	2
2	9833	4790.071076990406	1
2	9837	4790.094628258682	2
2	9838	4791.070669295474	1
2	9841	4792.069400437384	0
2	9845	4792.283746599713	1
2	9846	4793.24503766375	0
2	9855	4795.080236218128	1
2	9856	4795.64543297679	0
2	9865	4798.701592913998	1
2	9866	4799.295590085262	0
2	9880	4802.291336251886	1
2	9881	4802.40808923801	0
2	9910	4816.748451416986	1
2	9911	4816.830876951554	0
2	9980	4838.389108021414	1
2	9981	4838.929335318436	0
2	9985	4839.249343364308	1
2	9987	4839.694375041519	2
2	9988	4839.732145489031	1
2	9993	4840.596946777893	0
2	10005	4852.991369060021	1
2	10006	4853.286142708372	0
2	10045	4881.53005595437	1
2	10046	4881.551574350149	0
2	10070	4887.380824633324	1
2	10071	4888.041049870674	0
2	10175	4957.762000702928	1
2	10176	4958.270872768691	0
2	10187	4959.652846497558	1
2	10188	4960.315157946317	0
2	10260	4987.838751570453	1
2	10261	4988.459425725408	0
2	10265	4988.826872681931	1
2	10268	4989.43267974769	0
2	10272	4989.831825384337	1
2	10273	4990.351258380518	0
2	10277	4990.527065819893	1
2	10278	4991.490063627616	0
2	10282	4992.120792113396	1
2	10283	4992.349918538791	0
2	10290	4993.479904558851	1
2	10291	4994.449293551122	0
2	10295	4994.65658425949	1
2	10296	4995.625275179272	0
2	10302	4996.166552916123	1
2	10303	4996.638609584322	0
2	10307	4996.725412798517	1
2	10308	4997.478659119637	0
2	10312	4998.342778401521	1
2	10313	4998.414727084332	0
2	10319	4999.535797741876	1
2	10320	4999.590157082763	0
2	10324	4999.678052792047	1
2	10326	4999.901866325701	2
2	10327	5000.713470918399	1
2	10330	5001.602534192235	0
2	10350	5010.863869426142	1
2	10351	5011.794531317282	0
2	10360	5013.157066664649	1
2	10362	5013.859226234813	2
2	10363	5013.968267692888	1
2	10368	5015.102744250448	0
2	10375	5016.37064269522	1
2	10376	5017.175055493305	0
2	10385	5018.461058789373	1
2	10386	5019.277904967202	0
2	10390	5020.155597542087	1
2	10391	5020.234763020912	0
2	10405	5022.596518929272	1
2	10406	5023.68106612814	0
2	10415	5024.672239557366	1
2	10416	5025.682857605157	0
2	10450	5040.534087619517	1
2	10451	5041.29717911429	0
2	10460	5042.496663965919	1
2	10461	5043.326257761878	0
2	10470	5044.292180889161	1
2	10471	5045.025216471062	0
2	10545	5115.769719636152	1
2	10546	5116.496953561113	0
2	10555	5118.123407382577	1
2	10556	5118.596499959894	0
2	10565	5120.372880223707	1
2	10567	5120.636719538228	2
2	10568	5121.289786568333	1
2	10571	5122.489142887064	0
2	10580	5125.593879986962	1
2	10581	5126.575177673476	0
2	10715	5217.875405199062	1
2	10717	5218.016844705972	2
2	10718	5218.242811799267	1
2	10722	5219.306628817761	2
2	10723	5219.391452776672	1
2	10726	5220.441191829865	0
2	10735	5223.33628949883	1
2	10737	5223.42753739316	2
2	10738	5224.259322698186	1
2	10741	5225.252397786784	0
2	10800	5257.840992306043	1
2	10801	5258.001483944812	0
2	10810	5261.875699531302	1
2	10811	5263.02096236483	0
2	10830	5271.555781073241	1
2	10831	5272.152314710566	0
2	10835	5273.124429225749	1
2	10836	5273.342333412306	0
2	10840	5273.421698059612	1
2	10841	5274.297269658601	0
2	10845	5274.598566581188	1
2	10846	5275.350909363987	0
2	10850	5275.432151425132	1
2	10852	5275.705785234261	2
2	10853	5276.311848654362	1
2	10856	5277.303569035275	0
2	10865	5279.009803699106	1
2	10866	5279.741346140642	0
2	10960	5347.144627024997	1
2	10961	5348.042627478762	0
2	11015	5363.991546497297	1
2	11018	5364.666929165124	0
2	11070	5381.745731258231	1
2	11071	5382.37343021906	0
2	11115	5395.530985657989	1
2	11118	5395.707742896271	0
2	11137	5400.137031250478	1
2	11138	5401.110032992212	0
2	11165	5424.400880968171	1
2	11166	5424.702442331118	0
2	11180	5429.230672193111	1
2	11181	5429.313268158181	0
2	11185	5429.791815386413	1
2	11186	5430.360293237275	0
2	11190	5430.63007065322	1
2	11191	5431.230610785788	0
2	11200	5443.506651270716	1
2	11201	5444.0030866474	0
2	11205	5444.224209862518	1
2	11208	5445.192272383821	0
2	11215	5446.82299486955	1
2	11216	5447.066577971362	0
2	11225	5449.009479309759	1
2	11226	5449.351902813195	0
2	11250	5454.615820364294	1
2	11251	5455.235067943045	0
2	11310	5484.544915160291	1
2	11311	5485.264196534972	0
2	11345	5499.655575865311	1
2	11346	5499.739552656868	0
2	11355	5502.145341504414	1
2	11356	5502.920178620177	0
2	11385	5530.950936437843	1
2	11386	5531.221709602347	0
2	11395	5535.178845476859	1
2	11396	5535.850547592087	0
2	11410	5558.35096486614	1
2	11411	5558.934528835484	0
2	11420	5560.065254629126	1
2	11421	5560.786133770546	0
2	11430	5563.303669522722	1
2	11431	5563.874998968325	0
2	11440	5567.496576043823	1
2	11441	5568.032142197088	0
2	11445	5568.425800950874	1
2	11446	5569.013490126681	0
2	11450	5569.063014671836	1
2	11451	5569.909819020451	0
2	11510	5595.106011285981	1
2	11512	5595.412217771871	2
2	11513	5595.826954567735	1
2	11516	5596.987791556795	0
2	11575	5631.01765711898	1
2	11576	5631.589794088202	0
2	11590	5648.008498494219	1
2	11591	5648.761517821737	0
2	11615	5674.440619445732	1
2	11616	5675.178505508597	0
2	11750	5731.21468965084	1
2	11752	5732.171862923178	2
2	11753	5732.287467104488	1
2	11756	5733.428812152811	0
2	11760	5733.647390679911	1
2	11761	5734.402603262116	0
2	11845	5814.992667502207	1
2	11846	5815.695973913505	0
2	11890	5838.386471010975	1
2	11891	5838.627280979174	0
2	11900	5840.795685578948	1
2	11901	5841.173046861859	0
2	11905	5842.161976510847	1
2	11906	5842.261504958561	0
2	11910	5843.054293070658	1
2	11911	5843.275437481879	0
2	11935	5850.661413771518	1
2	11936	5851.479545122432	0
2	11955	5859.101974051233	1
2	11956	5859.608925454937	0
2	11975	5862.575628377253	1
2	11977	5862.69787782206	2
2	11980	5863.329743902438	1
2	11983	5864.151336060983	0
2	12045	5910.851149574165	1
2	12046	5911.605310849211	0
2	12050	5911.968914036202	1
2	12051	5912.670821905806	0
2	12060	5914.551820222816	1
2	12061	5914.773978741553	0
2	12070	5920.502744003631	1
2	12073	5921.060694104699	0
2	12120	5948.594483026363	1
2	12121	5949.383495573147	0
2	12125	5949.867390576088	1
2	12127	5950.011537983537	2
2	12128	5950.447822068265	1
2	12131	5951.474142016383	0
2	12140	5952.766076129905	1
2	12142	5952.776306699512	2
2	12143	5953.526025768655	1
2	12147	5953.988118627943	2
2	12148	5954.362482655613	1
2	12151	5955.413193365006	0
2	12230	6016.442473127566	1
2	12231	6016.834404106358	0
2	12285	6070.326079253102	1
2	12286	6071.309539826907	0
2	12290	6071.413004551668	1
2	12291	6072.383908921893	0
2	12295	6072.588357661052	1
2	12296	6073.205245229083	0
2	12305	6078.771098446215	1
2	12306	6079.68331559494	0
2	12310	6080.032950694336	1
2	12311	6080.702493374495	0
2	12315	6081.368651637517	1
2	12316	6081.836961866429	0
2	12320	6081.976534640651	1
2	12322	6082.001725992782	2
2	12324	6082.160062499549	3
2	12325	6082.650556683427	2
2	12329	6083.364965323121	3
2	12330	6083.451221854313	2
2	12334	6083.876832568247	3
2	12335	6084.546378938741	2
2	12338	6085.543233900498	1
2	12342	6086.087996672698	2
2	12343	6086.552790531683	1
2	12347	6086.694867910305	2
2	12348	6087.48044683447	1
2	12352	6087.514863184313	2
2	12353	6088.651065289116	1
2	12356	6089.74772188438	0
2	12360	6089.812017513247	1
2	12362	6090.095603516229	2
2	12363	6090.778008947409	1
2	12366	6091.90598470129	0
2	12370	6092.858663771595	1
2	12371	6092.989704973604	0
2	12375	6093.907453439256	1
2	12376	6094.050961063317	0
2	12380	6094.908862182482	1
2	12381	6095.079395079686	0
2	12385	6095.581277430734	1
2	12386	6096.068070057387	0
2	12394	6096.719698304461	1
2	12395	6096.896421615201	0
2	12399	6097.355120495967	1
2	12400	6097.920612914841	0
2	12407	6098.921443598952	1
2	12408	6099.727073875517	0
2	12415	6101.278491987387	1
2	12416	6101.563819602207	0
2	12425	6102.969600161277	1
2	12428	6103.751349764672	0
2	12440	6106.009418336674	1
2	12441	6106.557060934585	0
2	12450	6108.208892285395	1
2	12451	6108.646818484054	0
2	12465	6116.42242259133	1
2	12466	6116.856310533269	0
2	12470	6117.196795044566	1
2	12471	6117.697911475229	0
2	12475	6118.235884619349	1
2	12477	6118.544301301846	2
2	12478	6118.623576352934	1
2	12481	6119.552664666625	0
2	12500	6124.868708246353	1
2	12501	6125.266258353748	0
2	12505	6125.909816779075	1
2	12506	6126.288828295664	0
2	12570	6169.038287837862	1
2	12571	6169.83181963497	0
2	12575	6170.166105180482	1
2	12576	6170.83188321422	0
2	12582	6171.157050431447	1
2	12583	6171.742163406211	0
2	12655	6235.009855290779	1
2	12656	6235.534070364452	0
2	12670	6241.011528412868	1
2	12671	6241.209124955533	0
2	12675	6241.269008694603	1
2	12677	6241.838116700974	2
2	12678	6242.009209384022	1
2	12681	6243.026400214152	0
2	12685	6243.253422310338	1
2	12686	6244.193286716563	0
2	12695	6246.64059937905	1
2	12696	6246.765674451219	0
2	12702	6246.95031873939	1
2	12705	6247.867098692285	0
2	12712	6249.285901994133	1
2	12714	6249.922463023242	2
2	12715	6249.98545564566	1
2	12719	6250.389431720044	2
2	12721	6250.517966058005	3
2	12722	6250.824242987616	2
2	12726	6251.064976206513	3
2	12727	6251.936805188788	2
2	12731	6252.675643288148	3
2	12732	6253.062676744109	2
2	12735	6253.986778213682	1
2	12739	6254.536479739725	2
2	12740	6254.973287310491	1
2	12743	6255.973221226449	0
2	12747	6256.154375444499	1
2	12748	6257.070811382442	0
2	12780	6268.071963126563	1
2	12781	6268.314318330481	0
2	12815	6299.722282010953	1
2	12816	6300.551669791493	0
2	12825	6302.220354903786	1
2	12826	6302.450415228817	0
2	12842	6305.490369803759	1
2	12843	6305.698068156383	0
2	12850	6306.819668211542	1
2	12851	6307.723365889221	0
2	12855	6307.796628704694	1
2	12856	6308.817549419414	0
2	12860	6309.440132841793	1
2	12861	6309.828019175037	0
2	12875	6312.532168519857	1
2	12876	6312.934388067506	0
2	12890	6316.839289023504	1
2	12892	6317.314587013684	2
2	12893	6317.466491939376	1
2	12898	6318.42176736972	0
2	12902	6318.874743085706	1
2	12903	6319.253035199611	0
2	12907	6319.802962423649	1
2	12908	6320.201648659694	0
2	12915	6321.387544154055	1
2	12917	6321.768220422776	2
2	12920	6322.208706883031	1
2	12923	6323.011922591801	0
2	12955	6335.649521921968	1
2	12958	6336.549755168426	0
2	12975	6341.079119538149	1
2	12976	6341.129727199393	0
2	12980	6341.813948251506	1
2	12981	6342.062973571381	0
2	12995	6344.629709732509	1
2	12996	6345.56322211308	0
2	13020	6351.064971809974	1
2	13021	6351.75615036045	0
2	13042	6377.522002227217	1
2	13043	6377.768797896986	0
2	13060	6382.490262823651	1
2	13061	6382.746649755628	0
2	13065	6383.230122718319	1
2	13066	6383.767085346204	0
2	13075	6385.256755857589	1
2	13076	6385.978726972078	0
2	13225	6542.015388995781	1
2	13226	6542.128920425577	0
2	13235	6543.459598051494	1
2	13237	6543.9047498541	2
2	13238	6544.34210127919	1
2	13241	6545.180210182546	0
2	13255	6548.783825527485	1
2	13258	6549.408908264727	0
2	13285	6572.175378014226	1
2	13286	6572.263432175874	0
2	13320	6586.960417047823	1
2	13321	6587.386752298405	0
2	13380	6617.764733307292	1
2	13381	6618.526483420968	0
2	13385	6618.67263980379	1
2	13386	6619.360339721605	0
2	13390	6619.872185947738	1
2	13391	6620.183710409548	0
2	13402	6625.580884494625	1
2	13403	6626.314826286069	0
2	13410	6627.660023321185	1
2	13411	6628.501117285478	0
2	13420	6629.726700699072	1
2	13421	6630.350453769832	0
2	13427	6630.535536848095	1
2	13429	6630.723234423407	2
2	13430	6631.518037701535	1
2	13434	6631.608974772878	2
2	13435	6632.32941484763	1
2	13438	6633.207016841366	0
2	13445	6634.463760044132	1
2	13446	6635.17413986637	0
2	13455	6637.554423464073	1
2	13456	6637.622624877596	0
2	13465	6639.642017480534	1
2	13466	6640.241062950311	0
2	13470	6640.675253827464	1
2	13471	6641.202303399859	0
2	13500	6677.000943360583	1
2	13501	6677.387021094344	0
2	13505	6678.022676692398	1
2	13506	6678.27879527888	0
2	13510	6678.928915244535	1
2	13511	6679.473889578569	0
2	13575	6724.411821866835	1
2	13576	6724.644364170367	0
2	13580	6725.461365014171	1
2	13581	6725.767418679232	0
2	13615	6756.858837586869	1
2	13616	6757.773030781986	0
2	13655	6776.194704047361	1
2	13656	6777.200240557274	0
2	13660	6777.86958187352	1
2	13661	6778.157383376086	0
2	13665	6778.470167221682	1
2	13666	6779.236003325606	0
2	13677	6780.330776428372	1
2	13678	6781.247719236282	0
2	13700	6790.473737684505	1
2	13701	6790.833599508604	0
2	13710	6792.576501483532	1
2	13711	6793.069155114779	0
2	13747	6811.981804242295	1
2	13748	6812.714168981825	0
2	13780	6837.191560727525	1
2	13781	6837.756587101613	0
2	13880	6894.544964448833	1
2	13881	6894.687576218565	0
2	13940	6923.063667663103	1
2	13941	6923.363698397546	0
2	14070	7094.401243561316	1
2	14071	7095.245539603803	0
2	14115	7124.120864968227	1
2	14118	7124.970204653235	0
2	14135	7128.820524060017	1
2	14138	7129.919916282267	0
2	14145	7131.012773660869	1
2	14146	7131.800958232906	0
2	14175	7144.215592101461	1
2	14176	7144.385628664351	0
2	14185	7146.670779215329	1
2	14186	7146.672519688818	0
2	14194	7147.594249743429	1
2	14195	7147.861145033452	0
2	14265	7193.795748208154	1
2	14266	7194.803513489158	0
2	14270	7195.001581334073	1
2	14272	7195.328465590612	2
2	14273	7195.826542885282	1
2	14277	7196.618696342511	2
2	14278	7196.679525906925	1
2	14281	7197.491526214738	0
2	14285	7198.178065989367	1
2	14286	7198.656554047723	0
2	14290	7198.849227367571	1
2	14292	7198.99117382411	2
2	14293	7199.838021072426	1
2	14297	7200.848101234274	2
2	14298	7200.855176711322	1
2	14301	7201.955380582304	0
2	14355	7242.424345281853	1
2	14356	7242.870055564575	0
2	14410	7274.949971556675	1
2	14411	7275.392889509631	0
2	14420	7277.188612007639	1
2	14421	7278.053855243835	0
2	14469	7293.556499128164	1
2	14470	7294.183252494011	0
2	14515	7340.064943637665	1
2	14516	7340.160926049927	0
2	14520	7340.798364034753	1
2	14521	7341.006810183337	0
2	14555	7382.537190785657	1
2	14556	7382.992156937729	0
2	14560	7383.285256772361	1
2	14563	7384.006954980187	0
2	14567	7384.893505700799	1
2	14568	7385.027437769167	0
2	14572	7385.148724187097	1
2	14573	7385.905874679994	0
2	14577	7386.262200357211	1
2	14578	7386.741956920002	0
2	14585	7388.148758516959	1
2	14586	7388.620119672373	0
2	14595	7390.013319964639	1
2	14596	7390.961315573968	0
2	14610	7397.635388776108	1
2	14611	7397.990697049497	0
2	14615	7398.032712412619	1
2	14616	7399.130061212609	0
2	14660	7415.509449098866	1
2	14661	7415.955193083494	0
2	14670	7418.917392885402	1
2	14671	7419.314245394248	0
2	14720	7446.652561673089	1
2	14722	7446.704622883297	2
2	14723	7447.519227586626	1
2	14728	7448.339946606695	0
2	14735	7449.36528357093	1
2	14736	7450.456627184278	0
2	14822	7533.536969333166	1
2	14823	7534.180246536311	0
2	14845	7540.709105166686	1
2	14846	7541.095270094372	0
2	14855	7542.58910676972	1
2	14856	7543.029563765398	0
2	14870	7549.602742523477	1
2	14871	7549.779534130924	0
2	14875	7549.877077512306	1
2	14876	7550.650108272777	0
2	14880	7550.790660298158	1
2	14881	7551.810766551745	0
2	14895	7555.909397746861	1
2	14896	7556.522317391059	0
2	14904	7557.424260804175	1
2	14905	7557.456909243094	0
2	14965	7580.774345478639	1
2	14968	7581.924353452035	0
2	14972	7582.529063924008	1
2	14973	7582.741393471983	0
2	14979	7583.575369652538	1
2	14980	7583.810779055309	0
2	14984	7583.910460254249	1
2	14985	7584.777058338754	0
2	14989	7585.425129550544	1
2	14990	7585.834540479545	0
2	14994	7586.220952150477	1
2	14996	7586.222809772307	2
2	14997	7586.650622343932	1
2	15001	7586.691346362612	2
2	15002	7587.732580805578	1
2	15006	7587.815398975405	2
2	15007	7588.872183583219	1
2	15010	7589.914209431883	0
2	15014	7590.633357032831	1
2	15015	7590.737396771375	0
2	15022	7592.008334664635	1
2	15023	7592.768053102221	0
2	15065	7610.626401304532	1
2	15068	7610.977324327296	0
2	15085	7626.310979519633	1
2	15087	7626.687124677244	2
2	15088	7627.247225694762	1
2	15092	7627.613036672059	2
2	15094	7627.648628670423	3
2	15095	7628.097154278526	2
2	15098	7629.019898136923	1
2	15103	7630.105176210435	0
2	15107	7630.772486645631	1
2	15109	7630.977275329622	2
2	15110	7631.12294594779	1
2	15114	7631.286288170967	2
2	15115	7632.160563407776	1
2	15119	7632.78094688803	2
2	15120	7633.104999286805	1
2	15123	7634.097040487391	0
2	15130	7635.555165798739	1
2	15133	7636.053243987852	0
2	15140	7637.295169831475	1
2	15142	7638.149964389736	2
2	15144	7638.240012210071	3
2	15145	7638.418412471407	2
2	15150	7639.447626802263	1
2	15156	7639.623644489034	2
2	15157	7640.442974418153	1
2	15161	7640.922854484733	2
2	15162	7641.379018915568	1
2	15166	7641.687841363222	2
2	15167	7642.449966412906	1
2	15171	7642.987559438186	2
2	15172	7643.402007216245	1
2	15175	7644.403888797976	0
2	15182	7646.006988767371	1
2	15183	7646.522865988996	0
2	15192	7647.724168087913	1
2	15193	7648.354775974371	0
2	15200	7649.477752580222	1
2	15201	7650.31139041235	0
2	15275	7690.245872484891	1
2	15276	7690.902432898177	0
2	15285	7692.621809032469	1
2	15286	7692.891426276683	0
2	15295	7693.870221062176	1
2	15296	7694.773238121986	0
2	15305	7696.23344901091	1
2	15306	7696.938471538623	0
2	15330	7703.937977236597	1
2	15331	7704.754361796065	0
2	15340	7706.88157078839	1
2	15341	7707.795717193862	0
2	15380	7719.721654675371	1
2	15381	7720.062915323708	0
2	15435	7749.203237689138	1
2	15436	7749.641117527341	0
2	15455	7753.049513457301	1
2	15456	7753.510067658317	0
2	15475	7763.129455063884	1
2	15476	7764.109750466342	0
2	15525	7783.552011164118	1
2	15526	7784.348637978499	0
2	15530	7784.384785621399	1
2	15531	7785.161967991897	0
2	15535	7786.000346081331	1
2	15536	7786.174997079139	0
2	15540	7786.448931835002	1
2	15541	7787.220278965821	0
2	15550	7799.797374393181	1
2	15551	7799.86284846804	0
2	15565	7803.340058499069	1
2	15566	7804.272587811355	0
2	15570	7805.137576729517	1
2	15571	7805.387327123866	0
2	15595	7830.51423561857	1
2	15597	7830.885852342124	2
2	15598	7831.264337609267	1
2	15602	7831.415333461254	2
2	15603	7832.42318382573	1
2	15606	7833.317742860808	0
2	15610	7834.138559677148	1
2	15611	7834.205293657935	0
2	15620	7836.747292213318	1
2	15621	7837.165752617643	0
2	15625	7837.447480431992	1
2	15627	7837.534923710433	2
2	15628	7838.018341725413	1
2	15633	7839.055104905274	0
2	15644	7840.694536711055	1
2	15645	7840.885503722542	0
2	15654	7843.038392713438	1
2	15655	7843.139633525909	0
2	15670	7846.683618674017	1
2	15671	7847.608718477943	0
2	15675	7847.692296423973	1
2	15677	7847.697288649355	2
2	15678	7848.767693842025	1
2	15681	7849.938069541854	0
2	15685	7850.398078310365	1
2	15688	7850.834142855843	0
2	15692	7851.642476301217	1
2	15693	7851.722872735476	0
2	15697	7852.345726008565	1
2	15698	7852.623986600628	0
2	15707	7854.186038655547	1
2	15708	7854.499390792017	0
2	15735	7878.112856486823	1
2	15738	7878.680119802638	0
2	15747	7880.252442125757	1
2	15748	7880.727075565814	0
2	15755	7882.983967131005	1
2	15756	7883.113669262383	0
2	15765	7884.60439371229	1
2	15766	7885.394192138709	0
2	15785	7903.93920403326	1
2	15786	7904.04911256515	0
2	15805	7911.170434001629	1
2	15806	7911.567297608715	0
2	15837	7929.945878758356	1
2	15838	7930.139669854541	0
2	15842	7931.010409324615	1
2	15843	7931.197433009998	0
2	15851	7931.989952170075	1
2	15852	7932.014039051228	0
2	15859	7933.57566862053	1
2	15860	7934.072269302302	0
2	15864	7934.415978763468	1
2	15867	7935.182034276773	0
2	15874	7936.381524967512	1
2	15876	7936.503009519247	2
2	15877	7937.278568098483	1
2	15881	7937.605074859292	2
2	15882	7938.222281267469	1
2	15886	7938.841888745677	2
2	15888	7939.082201032122	3
2	15889	7939.272914042392	2
2	15893	7939.58204544184	3
2	15894	7940.164991187838	2
2	15898	7940.678960565716	3
2	15899	7941.095721260992	2
2	15902	7941.916633078803	1
2	15906	7942.23489888491	2
2	15907	7943.013069891904	1
2	15910	7943.920931474746	0
2	15917	7945.666949894927	1
2	15918	7945.754629452594	0
2	15930	7948.104585342228	1
2	15932	7948.776377041687	2
2	15933	7949.025595844978	1
2	15936	7949.877609212113	0
2	15940	7950.147345685357	1
2	15941	7950.87733712138	0
2	15955	7953.299669086587	1
2	15957	7953.883892364851	2
2	15960	7954.187200740672	1
2	15963	7955.037800347193	0
2	15970	7956.153256163074	1
2	15971	7956.987109877209	0
2	15980	7958.881004487418	1
2	15981	7958.95894705443	0
2	16025	7975.83893216602	1
2	16026	7976.574017806133	0
2	16060	7991.664311065492	1
2	16061	7992.072734489216	0
2	16075	7995.623615173623	1
2	16076	7996.622195510001	0
2	16085	7998.363322882525	1
2	16086	7998.720935051462	0
[...]
6	53595	25942.41915394012	7.35074500956
6	53615	25948.248641724593	8.471578332292
6	53620	25951.532860216973	6.971647482282
6	53625	25956.220612783988	1.147892626747
6	53650	25963.07524461546	5.502490253738
6	53655	25968.75855531734	0.840337582026
6	53660	25972.366857353789	1.177200816385
6	53665	25974.988326832708	1.15699293334
6	53675	25977.372138730516	1.674308824881
6	53690	25988.667725706634	13.57341808182
6	53705	25999.22265304427	0.948215191811
6	53725	26011.164424147162	1.509885466585
6	53730	26018.800244384543	0.965018474404
6	53740	26025.344540669344	3.04870860508
6	53797	26060.152596864033	8.789842982016
6	53810	26076.710237140486	0.926000178233
6	53817	26078.065571491504	3.561474345967
6	53820	26079.026804066999	1.057062486546
6	53825	26081.554392394712	0.91797167724
6	53855	26087.712242507717	5.988801071849
6	53860	26091.421145315204	1.142080836743
6	53875	26096.656606579683	4.786335702193
6	53880	26100.325773942765	0.839553409908
6	53904	26107.16140834142	3.920666668055
6	53907	26108.078150528506	6.409620170488
6	53929	26112.41402410448	5.262587526756
6	53932	26113.418997217365	4.679242612908
6	53950	26118.5545496311	9.305624148537
6	53962	26126.739553971574	0.881013387349
6	53975	26134.004806442932	0.875139081443
6	53985	26142.390392395658	1.006282790843
6	54026	26161.195257702105	4.12744431384
6	54029	26162.243767546498	3.274250228228
6	54062	26180.292890429587	1.270198697399
6	54080	26185.073827623712	2.139698925463
6	54114	26206.203210966185	2.805818298812
6	54122	26208.003107256804	2.000225398851
6	54145	26214.098311191524	8.115924929024
6	54175	26228.563296710292	5.689886899744
6	54220	26246.132965548209	2.196049151731
6	54237	26251.908809881695	4.615633796345
6	54255	26260.003796328538	1.191355330404
6	54260	26264.65959155596	1.043850305211
6	54272	26275.298815443525	3.556717834758
6	54275	26276.350528403902	1.914874882768
6	54302	26283.393055489203	4.928065578645
6	54310	26286.028338792817	3.025463872888
6	54340	26295.822762439914	8.355058907947
6	54375	26317.576069551225	8.90731285268
6	54380	26325.148295780174	1.088840804994
6	54390	26329.183608219608	3.807229373092
6	54462	26351.029254035246	6.652828052386
6	54480	26365.593157720737	3.797138379862
6	54485	26366.656718020841	0.852546825446
6	54500	26382.670727750672	0.804844363593
6	54510	26387.092202993961	2.804371946213
6	54540	26409.128290273374	1.952906114067
6	54575	26425.099714679586	7.274600652166
6	54590	26429.998151696878	12.448871335687
6	54625	26440.717506214122	2.727718902752
6	54640	26446.951157642365	5.542227949066
6	54647	26448.409080328203	4.117847550204
6	54665	26457.663199918359	3.116005494805
6	54677	26459.904996019291	2.224494666532
6	54685	26462.279726304368	3.037825549835
6	54695	26480.59574795621	1.229503329417
6	54710	26494.184503930514	1.049408642203
6	54715	26516.235942639472	1.082574142609
6	54720	26525.862669105571	0.965013865661
6	54730	26542.814028286328	2.282651836188
6	54745	26554.836380645905	4.562537268246
6	54787	26586.137677137582	1.312401176836
6	54790	26587.010742075304	3.110690516233
6	54822	26609.844517443226	5.530649563128
6	54827	26610.879549150438	7.348898621648
6	54830	26611.757834200644	0.997558995386
6	54835	26622.403472663305	1.141534582991
6	54855	26628.135992567539	5.602856259359
6	54860	26639.96134175245	0.961108436435
6	54875	26648.03387943862	1.467546485618
6	54880	26653.100147652726	0.87441687081
6	54912	26667.518020498368	5.233313333337
6	54942	26675.440137889401	13.113631511124
6	54965	26696.292231634426	4.348712765085
6	54970	26703.090376993994	0.939291627519
6	54975	26725.094499735059	1.044895983208
6	54980	26728.6336546855	1.012167752068
6	54985	26730.832349934936	0.861479757167
6	55010	26752.832970010532	3.873781425602
6	55015	26758.058396914269	1.179091260768
6	55020	26771.569910380323	0.922620349377
6	55057	26783.201051117201	9.73774653727
6	55060	26784.237417436112	1.867371143224
6	55067	26790.862312428121	1.152119990345
6	55092	26796.383049879258	4.498194172864
6	55095	26797.259974422248	1.453692979202
6	55142	26814.850571248595	9.142019489151
6	55147	26815.663586537548	3.423152259806
6	55175	26835.14801911303	4.909056366963
6	55180	26838.773577939774	1.169332286529
6	55195	26847.954632979558	3.647077530855
6	55217	26855.649462633791	1.171593805589
6	55225	26857.904301907519	1.862540443136
6	55235	26872.549204342509	2.714462049571
6	55285	26889.587969003747	6.641500158917
6	55292	26891.565726664568	5.130250557863
6	55295	26892.679566543827	6.226143319064
6	55310	26902.197884129348	5.54101369278
6	55325	26909.756054945682	3.390835454502
6	55347	26933.445849448727	1.176425171457
6	55360	26936.556946338252	4.273883377462
6	55382	26945.531980693053	1.429576134208
6	55390	26947.375111089266	1.088839609221
6	55397	26949.601305126036	5.87953924762
6	55415	26963.114821544612	0.876211949438
6	55437	26994.628393594869	4.57948552713
6	55450	26997.89657505345	5.383711718395
6	55455	27000.523325601318	5.62720764068
6	55475	27024.161735749345	0.891223489214
6	55490	27044.614027814958	1.127524814848
6	55505	27051.461346616167	1.663127315808
6	55512	27052.669828417499	4.044566629579
6	55537	27061.979865179808	1.008508169651
6	55540	27063.17590954708	4.666725353399
6	55545	27074.145694426493	1.174731138628
6	55565	27080.98685567648	5.624280882479
6	55592	27106.345264530732	1.920084882765
6	55602	27108.19607332944	1.565637214108
6	55607	27109.026556112515	6.98218358742
6	55647	27124.950313283894	10.193951294749
6	55652	27125.965166384838	1.696861454359
6	55655	27127.011902042031	1.608467426907
6	55715	27166.97173781003	1.154027717188
6	55740	27177.375662773531	0.965087328572
6	55764	27183.094645551124	1.480584609845
6	55780	27208.792244980036	0.857637885027
6	55814	27217.362058172851	7.583496271223
6	55820	27219.195746430393	2.324410155386
6	55839	27222.764728700426	10.001111584563
6	55870	27237.583328718676	0.897837402113
6	55890	27249.435541787968	6.978678508541
6	55915	27274.475692466481	5.650330967957
6	55925	27278.924984572298	2.98969497993
6	55935	27288.293071379081	0.887017382588
6	55945	27292.22281457147	1.944448462741
6	55950	27299.575123759678	1.065354994033
6	55980	27318.167377706267	2.240028653779
6	55987	27319.776965292692	1.071176700573
6	56020	27332.747615642376	0.863187340368
6	56025	27335.313106270239	0.841231574304
6	56030	27352.939551267592	0.849496542104
6	56035	27361.293657811404	0.816315432265
6	56045	27365.054422958524	3.266932132397
6	56067	27375.143335607511	1.091546325292
6	56070	27376.100435364389	1.88754998986
6	56100	27408.184248824142	0.818677990418
6	56112	27410.689708097976	5.388921125132
6	56120	27412.619641844856	2.401295206987
6	56132	27421.444180865169	1.150475967955
6	56142	27423.305270020154	1.211064638807
6	56145	27424.402624796753	1.266712092998
6	56160	27432.079718581311	7.222400870826
6	56170	27434.685577227304	2.33074703385
6	56187	27443.142038736619	1.153889954928
6	56195	27445.515074297856	6.778642117689
6	56205	27452.753784341582	0.873922175914
6	56225	27466.728943896941	1.243389465295
6	56235	27469.158221796483	4.531669454423
6	56240	27474.920131157169	0.830105886608
6	56262	27489.123509839756	1.453918560289
6	56272	27491.291471238361	4.34306068914
6	56290	27496.538375361214	2.068758748607
6	56327	27530.857404976744	4.916669950497
6	56339	27533.059520699211	12.308653151607
6	56342	27533.862203460128	6.802361575639
6	56347	27534.885687675734	2.487171556738
6	56360	27539.46399718759	10.354378466169
6	56375	27549.53890047569	3.806068198439
6	56416	27560.431478670775	1.085486104432
6	56428	27562.483065096917	2.365225685554
6	56438	27564.701855444512	11.863501856941
6	56441	27565.669529063231	2.351400794605
6	56444	27566.85407965749	12.430591605643
6	56465	27572.372530682996	5.446952137903
6	56475	27575.3037958306	2.398126671201
6	56497	27581.752131391335	2.769999201037
6	56512	27585.604397018884	1.022777121235
6	56520	27588.835957020848	0.96100301519
6	56525	27590.831627686983	14.855970366102
6	56547	27598.272502780516	6.569793108314
6	56550	27599.440747496575	3.14894584706
6	56585	27609.669620914738	6.072841535403
6	56602	27615.065186482669	1.048061827477
6	56627	27620.172910633484	5.521253295421
6	56647	27630.346862027741	8.163023832805
6	56662	27639.009087416928	0.886947346386
6	56695	27648.099173667415	17.923276563227
6	56707	27650.396616022902	4.049622490271
6	56727	27654.462840945158	3.680577173855
6	56730	27655.40925436623	6.898323785437
6	56745	27675.935186536414	2.773490204104
6	56750	27687.164704416463	0.885671049729
6	56760	27689.90152181772	2.710850759831
6	56800	27708.147170696174	2.996321134294
6	56852	27737.434007888478	2.263955326968
6	56870	27749.166447300733	3.252589355471
6	56880	27751.992097931971	1.335299673756
6	56897	27755.854433062759	5.612946072437
6	56907	27757.735957913094	4.056222232897
6	56932	27764.169444326559	1.114717423543
6	56982	27777.977804705876	7.079351041919
6	56985	27778.853117655686	2.74747667741
6	56990	27805.246932443467	0.931978528667
6	57009	27816.753155890478	1.841538273407
6	57012	27817.605620250104	2.146891631897
6	57034	27828.070728940997	1.410752596467
6	57037	27828.965884993799	4.145663139551
6	57045	27831.205979876703	0.873900212906
6	57060	27841.761995298784	3.064712117147
6	57080	27847.247061758337	3.942821404508
6	57115	27862.752606230402	12.320846757147
6	57137	27876.171980902522	4.51940882921
6	57145	27878.41567904527	1.381746797928
6	57160	27886.323677654725	2.501435390544
6	57170	27894.082022879046	4.043366918646
6	57180	27906.460133368179	1.113207131438
6	57190	27912.239285550612	3.83840984922
6	57205	27921.747090096907	6.763190517857
6	57227	27925.846756549555	3.740866861987
6	57250	27939.816134302448	1.002715768944
6	57257	27941.529471850133	1.036843255628
6	57265	27947.641840142072	6.589525400622
6	57335	27974.488797349586	5.67101779756
6	57345	27977.771256357808	0.992094817385
6	57360	27989.52047444608	2.799322535018
6	57409	28006.481145161914	7.034369857686
6	57442	28013.686887049183	1.077973297593
6	57455	28018.146078914628	8.259957179128
6	57462	28019.141015567809	0.976064855885
6	57472	28021.25713085801	7.986855528591
6	57475	28022.456688855203	1.627082092489
6	57482	28026.564988403917	1.067579121515
6	57529	28035.730883141105	10.030330344046
6	57532	28036.896137120259	10.258292796043
6	57550	28048.216383547315	7.364458621483
6	57590	28060.773785613595	5.330565752778
6	57604	28063.646597815036	8.038889012441
6	57615	28066.486595470748	4.901107957587
6	57632	28070.186928542282	2.687357214085
6	57650	28076.97331516543	5.502399791777
6	57655	28079.228491331483	9.155794793418
6	57685	28092.192397636603	1.171367220208
6	57720	28103.305613754295	2.202595861002
6	57727	28104.690744673707	8.663620229798
6	57737	28106.873984873169	1.254043954916
6	57742	28108.034623257038	2.290332435257
6	57757	28112.213557303537	18.672834039855
6	57760	28113.329762459666	3.266258506975
6	57765	28119.477676592041	1.1573309578
6	57777	28122.841377444274	0.87491481388
6	57780	28123.655012132122	1.647940464499
6	57850	28154.283813541126	8.38650432895
6	57890	28173.713244076423	2.372406859926
6	57916	28181.490538790218	3.264803580766
6	57919	28182.469279128175	2.44798529112
6	57945	28192.059310029769	10.89276635703
6	57977	28221.512565486835	1.885035194161
6	57989	28223.306748251015	1.198698980093
6	57992	28224.40523260902	14.552479741821
6	58049	28242.513419691649	1.175596712343
6	58052	28243.587713545457	6.888203296342
6	58080	28252.088798976704	5.529616952242
6	58104	28255.817700313231	6.134444612475
6	58109	28256.986631599268	3.141843308746
6	58112	28257.996194980213	4.57270199637
6	58120	28260.372982532728	3.65472666309
6	58158	28271.500429888206	4.654175461771
6	58177	28274.653702646723	2.722343270311
6	58182	28275.582815840976	3.553257069167
6	58185	28276.491867098162	9.752653975691
6	58193	28278.29293501102	1.403391317847
6	58219	28284.700307161497	3.410592524261
6	58245	28290.376708326625	1.14892821699
6	58259	28292.718071264771	21.816188604562
6	58270	28293.833828883895	5.21789631023
6	58280	28295.913606356734	2.597296629146
6	58341	28309.083032415991	2.279524847376
6	58349	28311.20351362908	17.776198455646
6	58376	28316.132663145471	22.874026832534
6	58393	28319.199649882406	3.603133464333
6	58396	28320.355009760331	14.168738780389
6	58417	28325.479218576371	13.729619832528
6	58442	28334.1493960844	4.470318982426
6	58455	28337.60927952117	3.596664535075
6	58460	28347.403403183087	0.856919706333
6	58465	28356.562371069629	1.033456249628
6	58475	28367.107526720685	2.206244254902
6	58497	28379.154803215803	5.664225469192
6	58510	28382.786869871935	5.939516640496
6	58520	28386.78805769742	2.503928045338
6	58530	28396.592389876962	5.503520361508
6	58575	28431.921236043389	3.503252584384
6	58580	28442.919117290747	0.816245510429
6	58615	28481.380270765359	0.871891048085
6	58632	28490.889264357931	3.896276883736
6	58657	28495.956965852346	5.086117312839
6	58677	28503.501390850051	11.268749243334
6	58690	28506.274108848228	3.676082356321
6	58735	28541.550738263712	0.802326102369
6	58742	28547.540979159972	1.061268782709
6	58745	28548.560257747	1.546346408989
6	58750	28559.045349408114	0.988554016873
6	58755	28565.361985852767	0.836114739254
6	58775	28574.371144254726	2.641999671353
6	58800	28583.995735525471	5.89768705276
6	58805	28588.657572357979	0.975327062327
6	58810	28590.591718312729	0.936742592696
6	58857	28604.310815271284	3.770094098976
6	58865	28606.763373709915	10.319074764613
6	58910	28650.967728483121	7.947247466182
6	58935	28662.778550833584	2.820526998384
6	58954	28667.446523509294	3.202355226985
6	58959	28668.440644769862	2.432953867092
6	58981	28672.590288480303	3.271887232698
6	58992	28675.670806813078	10.270266348029
6	59014	28682.329685978137	2.990062661748
6	59027	28685.158631159005	4.410810072474
6	59040	28690.084439320524	10.693031164578
6	59049	28693.678155624778	1.033719545789
6	59052	28694.534279435785	1.763842640999
6	59055	28695.368710508482	2.408389454302
6	59087	28720.058251392719	1.043902976904
6	59119	28731.081672647623	5.619449175652
6	59144	28735.966110394737	9.398628447351
6	59149	28737.114432345359	6.727222585028
6	59152	28738.225879598251	3.088347513167
6	59155	28739.0527257453	3.016490653654
6	59160	28744.746004386272	0.956966044661
6	59175	28753.187766176346	3.650619946483
6	59185	28770.271667530868	1.067023608182
6	59200	28778.217870143625	1.243181626044
6	59205	28800.978349741961	0.891836891044
6	59230	28811.480779822507	1.172427946795
6	59245	28825.963079961961	3.501714556642
6	59255	28829.526509395636	2.538570366555
6	59265	28835.247827165691	1.268227720015
6	59275	28840.763142649729	3.247149220769
6	59297	28847.643659698513	3.246344994153
6	59327	28858.728195505496	4.716792333851
6	59364	28865.604694944643	22.038508652305
6	59377	28868.588640281768	7.578804316425
6	59380	28869.772806836223	9.542914249285
6	59385	28874.752683086394	0.850625401735
6	59390	28882.11169643162	0.825573604461
6	59395	28887.515257345254	0.823872442078
6	59444	28901.111968748039	1.498688458059
6	59450	28902.857367143269	8.761065039961
6	59455	28904.504709814568	13.876176296073
6	59465	28908.492740461924	1.479012543728
6	59495	28916.661240897482	4.945427341945
6	59500	28925.787811187329	1.015322125982
6	59510	28928.45467235523	2.178942872387
6	59522	28933.393229958335	2.192486660052
6	59525	28934.198934995117	1.549054244654
6	59550	28957.609743554619	1.113971621264
6	59560	28960.767959448939	1.473102133195
6	59596	28968.71779104252	4.805066144924
6	59599	28969.755084713778	3.767067833629
6	59612	28973.26541562855	7.516062576523
6	59627	28976.61708088761	3.885573867244
6	59655	28985.076945379528	11.385273533673
6	59660	28990.026126658308	0.906136702839
6	59679	28994.519736761735	3.64806775101
6	59692	28997.69293769682	3.540130670158
6	59720	29012.025477528034	4.679228728407
6	59725	29020.093201066873	0.840995656326
6	59730	29026.999129294932	0.935904343519
6	59765	29058.251828442081	7.290688790773
6	59770	29067.209049049285	0.898076491524
6	59790	29091.974902069052	3.603267251026
6	59800	29103.037332592166	2.855148135263
6	59810	29117.701773664602	0.948673810717
6	59815	29121.810465915955	0.822651197203
6	59852	29146.857555571186	6.668641970308
6	59880	29165.811268920652	2.002160808222
6	59902	29189.544580960104	1.989337345057
6	59910	29193.46567442481	1.023910472449
6	59966	29217.017628514484	8.093536072803
6	59981	29220.305308659744	10.16111949805
6	60045	29238.230620179236	9.775757887064
6	60064	29249.392959759052	1.698237901783
6	60080	29254.003313487773	5.762922963003
6	60105	29266.981418786413	6.643142262875
6	60140	29275.427399024814	5.133321973215
6	60145	29276.988629382382	1.19611622896
6	60154	29280.745994897721	0.963240209501
6	60232	29296.136167452739	1.382626562377
6	60237	29297.269811180768	1.911939118563
6	60240	29298.154629731433	1.89767846995
6	60265	29313.698803552161	4.336700182625
6	60275	29317.535766563723	3.465550572259
6	60280	29320.071067122242	0.985954671353
6	60297	29330.780101251431	0.894778959733
6	60305	29335.49522510097	5.382057206579
6	60312	29343.888599040508	0.910806112085
6	60320	29346.259764855889	2.37229374995
6	60325	29353.36638313951	1.023419357277
6	60335	29363.702846731612	3.088576229827
6	60350	29395.746686572308	0.832673456334
6	60360	29403.852623564294	1.042529566865
6	60377	29407.821115966143	1.155166260712
6	60380	29408.788415865974	4.653262670973
6	60390	29413.70573533983	1.136663193535
6	60437	29441.838930092015	6.260630833379
6	60440	29442.994972427942	6.81113252253
6	60445	29446.229685307005	1.144491258264
6	60450	29450.147690249263	0.895774921961
6	60462	29456.003143388069	1.115555633418
6	60482	29463.344051154734	4.27262083787
6	60502	29480.777315219738	1.015947924089
6	60522	29486.392114683442	2.961653303973
6	60525	29487.237970753215	6.950356943134
6	60530	29492.20473876266	1.155572145618
6	60535	29496.610787711821	0.972303131223
6	60540	29501.046115919039	0.980335602071
6	60570	29508.67456345825	3.906737617999
6	60577	29509.763280295492	5.439662288579
6	60600	29526.65096998754	1.158599179052
6	60612	29535.893429334022	1.47271836623
6	60640	29566.284086641881	4.116495653795
6	60657	29576.871118738239	4.156700824322
6	60684	29581.933968999346	4.424633100185
6	60689	29582.803450749085	7.658247639052
6	60795	29641.303111668249	6.424870724689
6	60800	29644.305618578499	1.043733853288
6	60817	29653.949454856859	1.177303981595
6	60825	29656.992916023404	8.195740102091
6	60845	29671.025077481373	1.736526635665
6	60855	29673.309212734077	1.771604768995
6	60860	29674.458417463088	8.947630262994
6	60867	29676.118606655707	0.876172124129
6	60872	29677.185058591643	1.359095871824
6	60877	29678.161879131885	1.821303302332
6	60890	29682.032946797394	4.61409741927
6	60912	29706.77355446603	1.705668296621
6	60915	29707.745716983749	2.876089317258
6	60935	29726.784886444732	7.730758558962
6	60962	29746.215683985852	1.651112467734
6	60976	29748.428900104832	6.560742899279
6	61012	29755.822175778333	8.402654246755
6	61027	29760.841284201794	1.770675525756
6	61030	29761.702307943941	1.515595265592
6	61062	29775.383467038873	5.047992470771
6	61074	29778.31402409255	3.29818191597
6	61100	29784.923400216654	1.514093822921
6	61105	29790.875776697081	9.667863280899
6	61110	29792.577905304343	14.300315028633
6	61137	29804.131190671875	4.812582779685
6	61140	29805.229249401028	2.064980735091
6	61155	29821.48810607547	0.975497144554
6	61170	29835.780083510465	0.89560896717
6	61185	29846.791193047907	0.845459030382
6	61204	29858.840454792085	2.655205776064
6	61207	29859.989679547067	1.188651975907
6	61220	29867.261659517798	1.196506077051
6	61260	29892.60329579558	4.236742072719
6	61272	29925.784806939662	1.157976869959
6	61275	29926.727257560082	1.531760746262
6	61324	29953.573977034953	7.818762862359
6	61335	29956.396060554725	4.891750046145
6	61340	29967.034591422323	0.814085593075
6	61345	29970.013526243616	0.959234898724
6	61360	29973.763364132526	1.214300410374
6	61374	29975.572133537126	1.638635040558
6	61395	29984.309734704199	9.426029982639
6	61410	29992.034223458927	7.132209153569
6	61432	29999.819095931809	1.694440385748

