version 2
run Second_exit_2-18-20191114-11:42:32-8898
attr configname Second_exit_2
attr datetime 20191114-11:42:32
attr experiment Second_exit_2
attr inifile omnetpp.ini
attr iterationvars ""
attr iterationvarsf ""
attr measurement ""
attr network ResponseTimeNetwork
attr processid 8898
attr repetition 18
attr replication #18
attr resultdir results
attr runnumber 18
attr seedset 18
param **.Source.interArrivalTime exponential(5s)
param **.jobPriority bernoulli(0.6)
param **.PS.serviceTimeU1 "uniform(0.8s, 1.2s)"
param **.PS.serviceTimeU2 "uniform(1.8s, 2.2s)"
param **.SS1.serviceTime exponential(1s)
param **.SS2.serviceTime exponential(1.2s)
param **.PS.exitProbability bernoulli(0.2)

vector 0 ResponseTimeNetwork.sink lifeTimeU1:vector ETV
attr interpolationmode none
attr title "lifetime of arrived jobs U1, vector"
attr unit s
vector 1 ResponseTimeNetwork.sink totalServiceTimeU1:vector ETV
attr interpolationmode none
attr title "the total time spent  by arrived jobs U1, vector"
attr unit s
vector 2 ResponseTimeNetwork.sink lifeTime:vector ETV
attr interpolationmode none
attr title "lifetime of arrived jobs, vector"
attr unit s
vector 3 ResponseTimeNetwork.sink totalServiceTime:vector ETV
attr interpolationmode none
attr title "the total time spent  by arrived jobs, vector"
attr unit s
vector 4 ResponseTimeNetwork.QueueU1 queueLength:vector ETV
attr interpolationmode sample-hold
attr title "queue length, vector"
vector 5 ResponseTimeNetwork.sink lifeTimeU2:vector ETV
attr interpolationmode none
attr title "lifetime of arrived jobs U2, vector"
attr unit s
vector 6 ResponseTimeNetwork.sink totalServiceTimeU2:vector ETV
attr interpolationmode none
attr title "the total time spent  by arrived jobs U2, vector"
attr unit s
vector 7 ResponseTimeNetwork.QueueU2 queueLength:vector ETV
attr interpolationmode sample-hold
attr title "queue length, vector"
vector 8 ResponseTimeNetwork.SS1 queueLength:vector ETV
attr interpolationmode sample-hold
attr title "queue length, vector"
vector 9 ResponseTimeNetwork.SS2 queueLength:vector ETV
attr interpolationmode sample-hold
attr title "queue length, vector"
0	12745	10005.238807459246	5.736148411992
0	12752	10006.708298252035	1.022914563026
0	12755	10007.834415745527	2.092858957
0	12765	10011.252314691189	2.396151610908
0	12775	10026.557412032816	2.583953732841
0	12785	10031.281171769261	2.074216965193
0	12797	10034.376764723898	1.434007581975
0	12800	10035.342686602992	2.284291283821
0	12807	10036.863106158874	0.971934998129
0	12810	10038.060073834318	1.350210681842
0	12820	10040.801786379117	1.106396555342
0	12830	10044.552017361433	0.926749063749
0	12837	10057.465261304337	0.944413798768
0	12840	10058.382481068145	1.355339891679
0	12857	10065.492287520367	3.007571758795
0	12860	10066.66303826538	3.580636949551
0	12865	10069.477509368427	1.142969417013
0	12870	10076.754698946713	1.074796943739
0	12875	10092.823236550238	0.945112312213
0	12894	10102.056307126401	1.175181073789
0	12905	10105.062355371104	5.428789479258
0	12915	10119.154156095824	1.01495196186
0	12920	10120.578088910087	0.869326441176
0	12925	10129.498898706736	1.147513159271
0	12942	10136.417807773653	2.133639307968
0	12955	10143.174292041891	2.615815725798
0	12977	10160.824145741715	1.641816986023
0	12980	10161.848674132815	2.280709160694
0	12985	10176.826464962128	0.919012739975
0	12990	10178.248727262178	1.157011863217
0	12995	10181.067746057647	0.929597052559
0	13000	10182.058944483233	0.886848120578
0	13005	10191.720517630363	0.943539848551
0	13010	10197.653807480397	0.853725938592
0	13027	10218.494553187555	1.060828268994
0	13035	10223.298367547693	8.673272241182
0	13040	10231.824499022867	1.098426973075
0	13045	10236.794380998353	1.060557747446
0	13050	10239.941027018327	0.826607675385
0	13055	10241.697884439795	0.941014888603
0	13065	10246.804169801463	1.078052151762
0	13070	10270.453086757076	1.141695442889
0	13084	10274.407200729569	1.718075021779
0	13087	10275.366629068089	2.566637434462
0	13092	10276.238788081241	3.047685728496
0	13095	10277.220596674831	1.482825736328
0	13100	10283.708162184712	1.055034446344
0	13109	10294.092100612889	1.067179858964
0	13112	10294.992391190841	1.080738475262
0	13144	10300.923558555427	1.882278043997
0	13149	10301.934600908752	2.656042419918
0	13152	10302.794852271467	7.139530166717
0	13169	10310.565687306957	2.441084870152
0	13182	10313.893444012724	3.767469887536
0	13197	10323.630096742568	1.009214115422
0	13209	10325.558377225661	1.833035071341
0	13212	10326.451832326372	3.719928695105
0	13222	10330.17901131799	1.028304299153
0	13240	10338.046142829218	0.850833813101
0	13245	10344.617767182703	0.82747499831
0	13250	10346.281495188708	0.843797864113
0	13262	10354.666460064203	2.052327568476
0	13270	10356.75811847426	2.06450618988
0	13282	10361.20502167872	0.949895759393
0	13285	10362.235557961248	3.60739534794
0	13290	10364.708948221115	0.903532959241
0	13295	10366.472387906718	1.049227938615
0	13307	10391.368591662472	1.181380259991
0	13310	10392.531801133113	1.545122123579
0	13315	10398.070726948329	1.118325088639
0	13320	10399.385404114771	0.99741325397
0	13327	10401.818250090059	1.061247437913
0	13330	10402.813148445625	2.010320781036
0	13346	10406.937794679868	1.321013575386
0	13351	10408.121455044019	3.481699637882
0	13380	10418.194600181343	6.640964849003
0	13385	10420.57217607645	0.928577698208
0	13395	10437.231209031103	0.856141216308
0	13400	10439.438813246785	1.192916919198
0	13417	10451.17459572574	1.378046412904
0	13427	10460.006542571307	1.155925127678
0	13430	10460.984429265511	2.091145789783
0	13445	10482.282332195188	1.15520574674
0	13465	10506.969157392978	2.102625977063
0	13475	10514.695841634292	0.973385812994
0	13490	10526.177928906335	2.227728627143
0	13502	10538.226131625891	1.54099395792
0	13505	10539.348143410355	3.243593190517
0	13510	10557.91658389462	0.932839047257
0	13522	10571.467747700449	1.618371548745
0	13535	10579.383797802423	0.914098482765
0	13545	10587.55836733632	0.964933152404
0	13550	10589.074610940849	0.917717717309
0	13557	10590.838123217606	1.03082580464
0	13560	10591.63877656917	1.760719081605
0	13565	10600.37029392672	1.083778813668
0	13570	10603.143038720631	0.956676420849
0	13585	10617.501558852016	3.440640595763
0	13595	10622.206745036991	0.92241722662
0	13600	10629.403143314866	0.850888525788
0	13625	10648.774828725587	2.451664941405
0	13630	10650.206962149214	0.972810960934
0	13640	10685.739681030826	1.11331302803
0	13650	10699.501006078428	1.00073793577
0	13660	10706.977628588536	1.197057773926
0	13680	10735.703941332089	2.443141067213
0	13697	10744.470933974397	4.730510623203
0	13705	10749.249304496019	7.520957202884
0	13710	10756.22458155325	0.842975011654
0	13715	10757.927151174554	1.043823300581
0	13720	10759.766825995524	1.188269299734
0	13727	10761.653405621072	1.143920028489
0	13735	10765.286288201377	4.445542872005
0	13750	10788.66741899113	1.031201757491
0	13762	10808.088579215	0.818094009534
0	13775	10814.503805694845	2.161029739872
0	13780	10824.491777873731	0.800714084227
0	13785	10828.129470504301	1.127890224662
0	13795	10835.886155536138	0.958719434217
0	13815	10844.695825248278	3.650694367611
0	13825	10849.464331029696	1.03701356072
0	13830	10850.99438275001	1.130312221311
0	13835	10859.468856297552	0.924530979246
0	13842	10864.760036248534	1.068388456572
0	13855	10882.513385810006	3.249875819928
0	13860	10903.248358940322	0.822514385171
0	13872	10908.50139364218	1.206063066711
0	13880	10910.925116546944	4.539105399821
0	13890	10913.749919526377	2.382241066009
0	13900	10920.233063778801	2.263545924095
0	13914	10927.44536656587	0.960112234205
0	13926	10929.521446480868	1.787241081898
0	13945	10934.960935800822	2.830662396376
0	13955	10940.389248271834	1.073120012879
0	13982	10951.739889253749	3.374625326788
0	13985	10952.859607619027	1.969667927708
0	13992	10956.638897044561	1.047069057822
0	14024	10991.083312709517	3.184643254733
0	14029	10991.9876391026	1.170858480621
0	14044	10994.8624710433	2.910548342791
0	14055	10997.923361488879	4.388453882365
0	14085	11021.109140794115	0.931392439082
0	14115	11048.631043008946	1.194420738239
0	14130	11056.746896943702	1.040561492555
0	14140	11065.725668370206	1.02489003446
0	14145	11076.751422055131	0.951233457215
0	14160	11085.657029877206	2.537906733966
0	14165	11092.159978515686	0.838615327328
0	14175	11095.171156339109	1.741564050071
0	14184	11096.330293386932	3.11662713177
0	14195	11104.076323244358	0.805657161865
0	14205	11118.585774488871	2.493252333825
0	14215	11123.645804103231	1.055922859441
0	14220	11128.971469494479	0.911019441579
0	14235	11147.650645532828	3.782673863743
0	14255	11154.936895236835	1.187350006565
0	14265	11165.221498408541	2.169984778147
0	14295	11171.769206862562	6.033271881566
0	14310	11186.515835161926	4.967471264716
0	14330	11198.035524841486	2.101929753681
0	14335	11199.907599202575	0.803714955691
0	14342	11208.59531247661	1.139160296228
0	14345	11209.395950498046	1.780024922409
0	14350	11224.638987862713	1.115175541211
0	14370	11233.053825982028	2.525349553049
0	14375	11250.330301986788	0.806656841561
0	14385	11267.128419289576	0.855198676232
0	14410	11296.51219819175	1.360514011226
0	14415	11299.545472737732	0.898497069348
0	14420	11303.073361688302	0.983384703007
0	14425	11308.685937754308	0.983347036038
0	14430	11311.863050144446	1.026085298881
0	14435	11315.708517981378	0.94413167173
0	14444	11321.563990495694	0.850423783436
0	14447	11322.382871580091	1.04990425332
0	14450	11323.279509085291	1.741328847191
0	14460	11327.286339022964	1.573176711021
0	14485	11345.177339255617	1.674323838774
0	14490	11346.563215419415	3.338191576539
0	14502	11352.555304007679	1.04631497385
0	14505	11353.581006069835	1.562589501978
0	14520	11361.455823827071	1.958791395501
0	14535	11396.231235299615	0.860346094146
0	14540	11400.537370082943	0.890950460546
0	14545	11405.969027191841	1.076348240674
0	14550	11407.087730914863	0.809196215402
0	14555	11408.225135404413	0.935811599158
0	14562	11409.594207763002	1.172878110874
0	14579	11412.722927583922	1.152716319024
0	14582	11413.649399271496	1.628329219182
0	14599	11416.576246863213	6.803255573718
0	14602	11417.760024877806	2.704414451531
0	14610	11419.555055096634	5.777295482779
0	14615	11430.747404441785	1.17414162932
0	14627	11444.289491676984	5.101655957753
0	14637	11446.737006920036	2.988807099368
0	14640	11447.791021560617	1.271261193386
0	14675	11471.917812243226	1.043592547253
0	14680	11475.682847573295	0.904739122838
0	14700	11506.157104397515	1.093408665247
0	14707	11510.535742440636	0.954119432811
0	14710	11511.389638819269	1.250811948624
0	14722	11513.499233654577	1.195346547244
0	14730	11516.023161795225	4.511825951174
0	14735	11531.013162284595	1.046753428038
0	14740	11539.542466740215	1.140072841942
0	14745	11542.979168331557	1.063358633127
0	14752	11546.233029826787	1.132614136953
0	14755	11547.37251683917	1.143875244172
0	14767	11554.350979853152	1.331469792659
0	14770	11555.434024203858	3.443984979578
0	14780	11569.759239608918	1.005055203661
0	14790	11572.892526245347	2.88915214953
0	14795	11575.712772771467	1.175296138972
0	14807	11582.652694535429	1.925409929458
0	14810	11583.758240607927	1.871834848039
0	14820	11587.565044833115	1.227784036724
0	14840	11616.945030544985	0.981862752233
0	14857	11632.789078193244	2.023396554026
0	14860	11633.820373984326	2.726522354225
0	14865	11641.962901395809	1.110004489124
0	14900	11652.766298445185	10.068173751275
0	14915	11659.26755083551	1.169447370153
0	14920	11668.788810295115	1.192891504057
0	14957	11692.429337511898	1.10759076234
0	14960	11693.487770622631	1.840932414705
0	14970	11696.860897010519	1.931678617102
0	14979	11698.123975577492	0.9972945977
0	14990	11701.279194312923	3.824808941737
0	15005	11722.859241459855	0.884756523743
0	15012	11725.968855776491	1.12337556472
0	15022	11728.577402593285	1.109848659579
0	15030	11730.510995046884	1.753298696715
0	15040	11752.890515041901	2.485774288961
0	15050	11763.057182242185	1.087698734552
0	15080	11799.994462846554	1.012326384615
0	15085	11805.384263149322	0.953133699298
0	15090	11813.478601125311	0.826678618416
0	15100	11821.61082172112	0.936227733269
0	15120	11873.954655616065	1.431964550293
0	15125	11875.2110913676	1.02251721127
0	15135	11891.806812865907	0.800914925151
0	15140	11893.400615993324	4.630068155811
0	15145	11900.273296030038	0.867258413695
0	15155	11913.946252205057	1.047633625567
0	15184	11934.189364690457	1.444369307204
0	15187	11935.288185974986	2.064218020401
0	15190	11936.40855220224	4.991551609336
0	15195	11938.124818225413	0.887824757118
0	15200	11944.810154402534	0.878092386946
0	15212	11958.938099033606	0.864309756551
0	15222	11960.961511931416	1.369082137329
0	15227	11961.980441648547	2.191104496339
0	15230	11962.916989951801	1.748568795066
0	15240	11974.764947317087	2.425249612737
0	15255	11991.526563041278	1.215997031665
0	15274	11995.96855067961	1.266525967979
0	15279	11996.840901921746	1.743688859137
0	15290	12000.466770577153	6.674266367351
0	15300	12012.824991303298	1.127311617043
0	15325	12022.472315038131	1.193452362902
0	15330	12023.853939991742	0.834446237236
0	15340	12027.049040761461	2.108718890661
0	15345	12029.019024683235	0.983418610133
0	15354	12031.279064182544	1.02377332896
0	15367	12034.381537290456	3.881438842638
0	15375	12038.279944161545	0.931662977766
0	15380	12042.182148528853	0.830483341776
0	15390	12050.254845222327	2.86232262813
0	15405	12057.086446075479	0.803539400548
0	15425	12082.80300198227	0.837500901148
0	15430	12085.790922401544	0.891920370143
0	15440	12091.678915809915	1.040447681025
0	15462	12098.869513686171	2.517730310483
0	15472	12100.999612097591	1.120365747903
0	15480	12103.105534427669	1.995835724015
0	15485	12107.070992960683	1.002161677927
0	15490	12110.971764129186	1.111796823982
0	15505	12123.544400186944	1.150076080766
0	15512	12125.109831330704	1.11851137979
0	15515	12125.915093316289	1.145186066398
0	15520	12158.87569951929	1.053590219282
0	15530	12166.418045016703	1.866551385638
0	15540	12174.713450985822	0.94018534841
0	15547	12175.937310359645	0.998492235132
0	15552	12177.136751596741	2.047577819133
0	15555	12178.205161517597	1.870619359669
0	15570	12186.371652493645	3.165842033643
0	15577	12187.609273088559	0.81400649948
0	15582	12188.710272524621	1.719655311317
0	15585	12189.669874757737	6.294880516555
0	15590	12201.22657185969	1.010226886068
0	15595	12215.172775779664	0.889852295257
0	15607	12222.74627715977	0.983535129298
0	15610	12223.553885793258	1.780298150742
0	15622	12246.086342917241	2.03074732241
0	15625	12247.188814389936	1.187946347883
0	15632	12250.711061540205	0.980571129639
0	15640	12256.152052359728	0.865151143447
0	15652	12263.148316059708	0.830523829814
0	15655	12264.0760396282	3.877851862714
0	15660	12266.35156227079	0.92202116251
0	15665	12275.387258428976	0.882314563449
0	15670	12277.578577920122	1.150814086013
0	15680	12284.56932661391	2.06546933956
0	15692	12315.190139827931	1.150589341205
0	15695	12316.348149296229	1.374248485139
0	15705	12321.100726073641	1.061724864878
0	15727	12343.602256773143	3.271645193733
0	15737	12345.712273006524	4.325668550062
0	15740	12346.758682483911	3.238559816383
0	15750	12356.599525866437	2.379660195937
0	15757	12367.24463115881	0.827145648934
0	15760	12368.306496186245	1.680440077955
0	15792	12377.596413179498	7.838380386911
0	15800	12394.147274105433	1.157965813018
0	15817	12406.258479612215	0.841557756998
0	15830	12409.724051562834	1.076302507054
0	15839	12411.511247425784	1.068060843181
0	15842	12412.698843420089	1.205241858799
0	15852	12416.324276143459	1.113763961289
0	15855	12417.42787168022	1.568258418961
0	15865	12428.211375931874	0.814143458381
0	15882	12456.106444218239	1.036887310166
0	15895	12460.891173443121	0.981909542531
0	15907	12464.434169909044	1.198052591272
0	15925	12475.171019536761	1.132384231128
0	15940	12485.262803505077	4.83257828192
0	15950	12496.869837773756	0.874314606283
0	15957	12505.178720354172	1.043218987249
0	15960	12506.336149962036	1.922777354956
0	15975	12525.552496830733	2.563454056725
0	15982	12545.635046479265	1.09873031415
0	15985	12546.641527724518	1.508399632403
0	15992	12557.954159613217	0.82540750131
0	16000	12560.47160173936	0.908704249002
0	16005	12579.272066680392	0.983693875559
0	16012	12580.598070614198	0.831964121666
0	16020	12584.321817181427	0.974263102002
0	16055	12620.542298618362	3.05034104241
0	16065	12622.888232781396	1.909440661672
0	16075	12639.355240178304	2.574662879339
0	16087	12641.783333846058	0.827221920434
0	16090	12642.663751105934	2.655508407134
0	16095	12644.242190079526	1.042373166699
0	16100	12650.465860244002	1.107161203492
0	16124	12661.384498904095	2.723646800313
0	16135	12668.510744643063	0.90051523298
0	16150	12679.910930979316	3.510538606631
0	16155	12682.112568060202	1.181152641401
0	16160	12691.791669794146	1.197676870786
0	16167	12692.874564717736	0.99417801369
0	16170	12693.99992498162	1.435207961
0	16180	12697.381725478762	2.697542443155
0	16190	12706.186323985006	0.920423612464
0	16200	12709.998619618425	1.73665586127
0	16227	12740.560508561124	2.80946174107
0	16230	12741.517064865854	1.49207594813
0	16239	12743.703111984004	1.170400269888
0	16250	12746.736295583592	4.066189322553
0	16255	12748.649130825835	0.899789279327
0	16265	12766.603264944619	1.181797345355
0	16270	12776.049364506789	0.937601385918
0	16277	12779.331807502641	0.880928754713
0	16280	12780.270700656904	1.229340796342
0	16285	12800.944169519248	0.94726653453
0	16304	12815.037769836508	1.63859244892
0	16307	12816.020481283259	2.819084372372
0	16317	12820.166154998666	1.105370615795
0	16332	12822.801124105821	2.746315739061
0	16340	12824.871631073518	1.309265587228
0	16347	12829.148516108419	0.859982552379
0	16350	12830.203193336769	1.058161173489
0	16355	12833.943385128616	1.026486531086
0	16370	12852.353070719127	1.02751937313
0	16390	12875.050980039252	0.872060644999
0	16395	12876.19322180921	1.102861524001
0	16410	12886.724387783304	1.090465532802
0	16415	12907.905527733994	0.945337452088
0	16425	12918.231648104021	0.888193903305
0	16432	12919.716596092729	1.081572785322
0	16435	12920.768405387158	1.644710954431
0	16440	12924.5773528486	1.068698353972
0	16445	12935.243312120129	1.106797097344
0	16460	12944.232333655392	0.860192725435
0	16465	12946.082458520106	0.956136719324
0	16477	12953.665282824732	1.173735851329
0	16492	12957.402189258826	1.625357465183
0	16495	12958.56310066801	6.007194267378
0	16500	12964.396305555659	1.114133896213
0	16510	12986.319618446308	0.947255387064
0	16515	12987.578521690057	1.154624245316
0	16525	12998.230927753669	1.04892697027
0	16535	13008.356526871036	2.417071629199
0	16540	13012.376863662458	0.810205391888
0	16550	13019.530370419495	2.361720555087
0	16555	13025.800571008772	1.034245267231
0	16560	13033.29227950009	1.084823152423
0	16575	13047.055069765999	1.16437257044
0	16585	13050.76341296126	0.954966753452
0	16590	13051.755367568823	2.831754881935
0	16595	13056.933325058776	1.092407522164
0	16600	13071.047479997588	1.020943132043
0	16605	13072.250795731205	1.16226754263
0	16610	13088.298202833449	0.881753971428
0	16615	13089.343706366732	0.976957313158
0	16630	13095.441523059111	1.395837298156
0	16635	13097.099596985258	4.265134962938
0	16645	13113.261338914806	1.162893479969
0	16652	13120.292086670608	0.803569447156
0	16657	13121.43234441333	1.447013397597
0	16680	13130.584385169499	3.255909887487
0	16705	13149.131496860712	1.536912234441
0	16712	13158.595052661039	1.063965247665
0	16717	13159.682227474023	2.020044641079
0	16730	13163.543585633415	0.823547882214
0	16765	13175.058062195493	1.11817520399
0	16782	13182.574838209054	1.495118132739
0	16805	13199.463245644416	2.40698103984
0	16810	13209.173724282575	1.161548526958
0	16815	13211.770986551039	0.954187770654
0	16832	13217.567652064051	3.077378577994
0	16840	13222.839919528563	1.013814305328
0	16845	13234.685146998364	0.900314601418
0	16860	13248.921457031136	0.802382820565
0	16865	13250.928874928114	1.08740590075
0	16880	13261.777403367605	2.919149906248
0	16885	13265.034860850375	0.843069670256
0	16890	13268.99429940763	0.819970245194
0	16897	13279.787915156651	1.044355218578
0	16910	13285.304000423511	0.843394645583
0	16920	13291.443964694154	2.296783482395
0	16930	13296.377911345603	1.740566443424
0	16935	13297.580828161006	0.919679116551
0	16940	13298.982151864469	0.805281766411
0	16947	13300.334277733311	1.131769748591
0	16957	13312.270911096564	1.160829028487
0	16974	13315.631651350298	1.70038290115
0	16977	13316.72084301673	2.188603084809
0	16987	13319.840598249807	8.130236729962
0	17002	13323.105031915394	1.794897936866
0	17007	13324.298016700627	1.749904881823
0	17025	13337.106897492099	2.097502724265
0	17032	13342.034517766508	1.095519895945
0	17035	13343.105629604748	1.233672226408
0	17055	13370.605523215625	1.739846317728
0	17077	13378.336715948622	1.191153400856
0	17090	13381.926306692544	0.809958594106
0	17095	13383.506417258122	1.076378296223
0	17100	13388.984652654311	1.109559042752
0	17110	13401.494705831406	2.59356231188
0	17115	13407.098862826819	1.023668930214
0	17140	13428.591044306875	1.144484954514
0	17157	13433.130824481268	1.649647901193
0	17195	13459.639057986599	1.104191557597
0	17217	13484.994783822939	1.07692538416
0	17220	13485.884600328401	1.051338979556
0	17230	13488.084488570962	1.985579363932
0	17235	13495.112137812055	1.060380017105
0	17260	13511.882002369398	1.012624459807
0	17267	13516.871244901336	1.054476530664
0	17290	13528.104807149765	1.107350057643
0	17295	13530.034940813722	5.757673339041
0	17300	13541.369319379178	1.134853525087
0	17305	13548.327821889026	1.129459778778
0	17315	13569.898630833496	0.967282907199
0	17327	13580.894024978401	1.962866950439
0	17335	13589.221309581376	1.133234738465
0	17340	13595.769375500378	0.888670192473
0	17370	13609.722495456851	3.692878702561
0	17375	13620.235904749661	1.049531052727
0	17397	13636.960619643139	1.639016269992
0	17402	13637.773167940969	1.927398257456
0	17410	13641.621123564789	6.580341901529
0	17420	13647.662668011279	0.915334238019
0	17430	13671.347332438731	0.931275049318
0	17440	13698.625059277468	1.112198396586
0	17445	13707.977325986507	1.037105451897
0	17460	13731.927785675484	0.928991533071
0	17485	13755.391522054996	0.910890428256
0	17505	13789.893139326575	4.383922654514
0	17510	13792.150236457458	0.87449070178
0	17530	13799.23187459406	1.083475774362
0	17555	13813.647593086635	3.563853423865
0	17560	13817.361836906151	0.861377890036
0	17565	13821.117827438996	1.025592954643
0	17630	13855.920077791373	2.134595067768
0	17640	13876.719810590309	1.172073502745
0	17645	13880.307956236952	0.933018695563
0	17655	13889.223731761829	1.146853141114
0	17670	13896.383006688704	3.609754037826
0	17680	13898.540905377842	1.580945943118
0	17685	13900.380896021997	3.895507742369
0	17705	13918.955308755235	1.159062958788
0	17765	13947.617536447601	3.168430461028
0	17775	13956.051869382046	3.287954026041
0	17780	13962.114190545282	1.05354491435
0	17785	13963.866822235854	1.002940153703
0	17792	13967.447140574782	1.034625181183
0	17817	14000.778158828015	1.302184193291
0	17857	14022.625536414637	6.803544760345
0	17860	14023.674921095866	4.166714013491
0	17865	14024.830935519737	1.010785281193
0	17889	14034.172049410494	1.571928094351
0	17892	14035.346092195103	2.256111101533
0	17907	14051.700648229773	1.102339905407
0	17920	14054.930880313644	3.444664159298
0	17935	14062.219847805861	3.513819416168
0	17945	14067.023307240317	1.490547902281
0	17950	14070.516182402806	1.048756766506
0	17955	14073.772536884684	0.908379535098
0	17972	14088.196883328476	2.706933876965
0	17982	14090.372430364229	0.919601548277
0	17992	14097.894679517414	1.085483635589
0	18000	14114.335717452342	1.097055462748
0	18012	14139.349756390762	1.057231550664
0	18017	14140.313348382872	1.204757426956
0	18027	14142.056131334949	1.329989910362
0	18045	14147.803189636279	2.569202058089
0	18050	14149.999827063147	0.953602604568
0	18055	14164.844275868938	0.969884120673
0	18060	14168.857162662366	0.907102448307
0	18065	14172.886108729888	0.86720773587
0	18082	14183.417791161432	0.940915754903
0	18087	14184.452108890961	1.524275758058
0	18090	14185.364449528444	1.095308370766
0	18095	14190.718096693137	1.175895739626
0	18100	14195.835244608429	1.018072809465
0	18105	14198.892031953953	1.171396637708
0	18115	14209.001181311098	1.075796257239
0	18125	14215.621341027006	0.973399058729
0	18130	14229.009369508871	0.884658604302
0	18155	14243.36282261566	1.109209066816
0	18165	14246.047375087105	2.035513499724
0	18175	14248.763173304015	2.580257915053
0	18199	14280.804991732414	1.859630011593
0	18209	14282.511626014921	4.016575063765
0	18220	14285.440154907264	6.345176755485
0	18235	14297.168514527453	1.108731590398
0	18240	14306.138764198203	0.84045774769
0	18245	14320.341540476792	1.074240832031
0	18252	14323.257743859576	0.800944479927
0	18255	14324.351890452677	1.592171924305
0	18267	14327.002637333224	1.486914484001
0	18270	14327.867870550776	0.870566155434
0	18275	14335.899999571981	0.818521201331
0	18310	14371.957716415163	2.798472474661
0	18320	14382.30205272015	1.134705826733
0	18325	14393.853846718854	0.877664630394
0	18330	14399.136165186259	1.157512649614
0	18355	14419.880885292183	4.650715474996
0	18360	14424.642352294222	1.169736452587
0	18370	14428.182228781395	1.138024194539
0	18380	14431.062830476062	2.479463061834
0	18402	14454.559249396075	3.280775621999
0	18407	14455.494801924017	4.135995723005
0	18415	14457.251840259147	1.564438252721
0	18420	14479.253755344863	1.073156441934
0	18425	14482.810399412383	0.833299340121
0	18430	14490.72015388957	0.857768806163
0	18445	14507.985343377779	0.935033810791
0	18450	14509.516667219175	0.850017079059
0	18470	14517.052666298626	1.535181797417
0	18475	14522.47472886502	0.855172980111
0	18480	14523.834808546518	0.855695843324
0	18485	14534.846932850702	0.925843028165
0	18515	14562.404462965202	2.856285981647
0	18535	14566.681419370945	3.106277105355
0	18540	14569.452745754663	1.159202110674
0	18545	14571.610051011103	1.019296308607
0	18550	14577.365715338212	0.867448976543
0	18565	14580.640351187397	2.771352774743
0	18570	14593.252768177514	0.992447479628
0	18585	14604.974764757963	1.037388164643
0	18590	14625.62035655956	1.035344605986
0	18595	14627.169212563234	1.115430527087
0	18610	14645.709454092301	2.600845247879
0	18630	14654.107256578748	0.827205416467
0	18635	14666.429639915612	0.899439317361
0	18642	14671.107016423567	0.814468038455
0	18645	14672.214392199683	1.853410853824
0	18655	14679.222885548947	3.102283336186
0	18675	14693.32497647805	1.301535409225
0	18685	14696.7762388214	5.795983688208
0	18702	14704.539353823051	1.508146234185
0	18707	14705.564282005321	2.00577946714
0	18717	14707.662267961674	1.73235001029
0	18739	14712.097553936807	3.303850388983
0	18742	14713.026850852599	2.42491844698
0	18745	14713.908391353344	2.912994766177
0	18760	14734.373347194242	1.107414706238
0	18775	14743.64405817131	0.953883711249
0	18797	14758.613889835523	0.911475301068
0	18817	14762.687875142213	4.194813767419
0	18822	14763.792239664294	1.945689713947
0	18825	14764.984412148394	2.281462169303
0	18840	14771.072179545836	2.455994543133
0	18855	14781.055157539515	1.067174573988
0	18865	14804.845533442001	1.124291488528
0	18870	14814.033389632311	1.051443573274
0	18887	14829.485515368025	1.49305579567
0	18927	14856.797752908978	1.060766776837
0	18940	14859.819092909829	5.287372942459
0	18980	14879.868460186786	0.950459693465
0	18990	14886.997817443787	0.877555552777
0	19002	14900.928154759966	1.169060643762
0	19022	14907.90577208792	0.858354327641
0	19035	14912.670498148199	1.15545614874
0	19045	14916.234111284313	0.876108760666
0	19050	14920.776742263785	1.193490309734
0	19057	14930.851436063125	1.113237209897
0	19060	14931.660546741857	1.508500984816
0	19070	14938.411157897328	2.151632795529
0	19075	14947.573052768132	1.165584186837
0	19095	15004.153765142389	1.199787600059
0	19132	15025.736217998842	1.316583739612
0	19135	15026.59840981908	1.982003606721
0	19160	15057.811465672325	0.992826078646
0	19180	15084.178197626269	1.102374751773
0	19185	15092.683049415855	1.050086499937
0	19205	15105.845922365074	0.900017522275
0	19220	15113.179886467377	1.511319142715
0	19227	15130.706285819376	1.036361382715
0	19235	15134.29827668051	1.100829970557
0	19275	15176.444714233711	2.319108987259
0	19280	15207.665671928004	0.962161733583
0	19287	15219.64880847644	1.142409342062
0	19315	15246.948809989227	3.249380128072
0	19320	15261.783848713794	0.864326373022
0	19325	15263.688462140738	0.813372224942
0	19342	15269.416242603177	1.605061266448
0	19345	15270.4438482436	2.032427636546
0	19350	15279.205494411269	1.013634773064
0	19370	15298.081745664644	2.665416264475
0	19395	15322.475065281699	5.953351495764
0	19400	15323.710993094694	6.030792376136
0	19405	15334.162292433316	1.020452264138
0	19412	15336.666617842713	1.065087543894
0	19415	15337.825304760081	2.080424796078
0	19420	15339.117290346673	1.102416016534
0	19470	15374.332945354394	1.68647886057
0	19475	15376.474675289653	0.963643231615
0	19490	15381.913511524499	2.707831114189
0	19500	15387.042357746465	1.98543051327
0	19505	15388.251628645395	1.022020473331
0	19519	15423.217925026879	0.995808086917
0	19522	15424.085350679566	1.791279862044
0	19527	15425.24522605376	2.813886095986
0	19530	15426.393895371311	1.736570839549
0	19540	15443.675276548949	1.105924309231
0	19550	15462.9767047958	1.104164018389
0	19560	15481.434891061812	1.100732887071
0	19582	15492.161382097195	3.102508692582
0	19595	15495.775280408397	1.982708876816
0	19605	15504.450073681587	3.688169842572
0	19610	15506.536827476772	0.862368198577
0	19620	15510.154671979705	1.020018988034
0	19627	15517.250532379898	0.852493473049
0	19630	15518.156350378378	1.585290227357
0	19654	15541.530936372955	1.658427532429
0	19667	15553.997818891329	1.187512661796
0	19670	15554.799580703766	0.851406284584
0	19694	15562.261944709816	5.473572279855
0	19697	15563.1580644141	1.744936884773
0	19702	15564.263122351286	4.642733778273
0	19705	15565.087487658118	1.424800033988
0	19712	15571.816981022149	1.016317610629
0	19720	15575.606309460071	0.920213120058
0	19725	15577.047567738911	0.879237028304
0	19735	15590.605137498861	0.834134380519
0	19740	15600.037246663167	1.040210644901
0	19762	15613.187910658027	1.359376473731
0	19802	15645.910961199948	1.191582808923
0	19810	15651.513390355385	1.133668782003
0	19822	15655.788855413591	2.205391498834
0	19825	15656.692845085321	1.28752492937
0	19852	15669.721942499714	0.938169222418
0	19855	15670.867130233502	1.400639661353
0	19875	15690.075397877183	1.079732550308
0	19905	15703.432910141768	6.035593481184
0	19940	15720.619922479664	0.980565540493
0	19955	15730.806469495902	0.959321149532
0	19960	15734.868491849135	1.187868072279
0	19965	15741.89731773824	1.02044219356
0	19970	15743.88978127886	0.878632808942
0	19990	15761.87135180228	1.494976871227
0	19995	15766.413299473949	0.849916144367
0	20002	15773.076089293876	0.883523263503
0	20024	15777.599594001982	3.942898460454
0	20030	15779.300225970566	5.117052272393
0	20035	15781.735026355458	4.784514707243
0	20047	15786.114584162929	2.180569973057
0	20060	15799.599684532139	1.007086981554
0	20077	15804.693106121821	1.292330735909
0	20095	15813.492291857709	4.921213485585
0	20102	15815.349815788267	1.04881698871
0	20115	15818.956352538694	3.564153712824
0	20120	15835.456571607119	1.195107242838
0	20145	15868.348057908311	2.591681335374
0	20167	15890.126447951754	3.41453981595
0	20177	15895.717524280678	1.122417232674
0	20189	15897.943849268648	1.740155999739
0	20192	15898.78082076339	3.417422846467
0	20200	15900.569261528271	1.340951759793
0	20205	15908.088531335758	1.125869252346
0	20225	15923.28961246664	2.319711584496
0	20255	15941.640075540829	5.840148005563
0	20270	15945.254543122966	2.43981017705
0	20280	15951.030982040756	1.988325524657
0	20290	15966.651711974441	0.858634194918
0	20300	15986.443516263809	1.022139844298
0	20315	15994.32523023085	0.92721370561
0	20322	15995.543455115025	1.071838050708
0	20330	15998.169955828425	0.918213088438
0	20337	16009.537782562346	0.881137026008
0	20340	16010.418391912625	1.719439697147
0	20345	16012.742121162803	0.980490268208
0	20352	16019.284617161564	1.168698882777
0	20357	16020.484171078819	2.26609759407
0	20360	16021.509626362565	1.976874355826
0	20377	16032.9903205702	0.819045558386
0	20397	16040.661686455752	0.941962989233
0	20407	16042.823565290282	3.01286373614
0	20422	16077.014766682396	0.959839156456
0	20430	16080.195434598271	1.013266321365
0	20440	16092.949256712682	1.12425348371
0	20462	16105.583951608873	1.042350682989
0	20490	16138.826440678427	3.004529942099
0	20497	16141.953343767269	1.006609531678
0	20500	16142.87640591419	1.763080897025
0	20505	16146.967827188562	0.821567176282
0	20510	16148.438954276977	0.910554559343
0	20520	16153.718169610782	2.045106392342
0	20535	16169.48617083721	0.83869483145
0	20540	16174.813168704659	0.9675172491
0	20554	16180.329314664396	1.194547222182
0	20561	16181.511992202623	1.45392691619
0	20566	16182.447136014251	1.72455137037
0	20569	16183.342342226597	2.272096194513
0	20590	16189.697468112814	1.262870392616
0	20605	16197.38301513768	0.879216879047
0	20624	16204.976088554769	0.885944554582
0	20627	16205.959337642773	4.645359256109
0	20637	16207.876184938274	1.371533140523
0	20650	16227.459106496979	1.081988038588
0	20657	16229.647833610969	0.958093813434
0	20665	16235.134876165048	1.158373687323
0	20670	16242.218192771631	1.079115726892
0	20675	16248.930075292929	1.06249891445
0	20687	16254.756452147613	1.194050872761
0	20695	16264.569618816318	0.900968248956
0	20715	16275.305953054642	5.460814527009
0	20720	16279.458906378087	1.023267640546
0	20725	16280.600670381547	1.020732042287
0	20735	16288.640526966956	0.956919199321
0	20747	16291.255935303893	1.691074988485
0	20752	16292.38373595693	2.237370182446
0	20770	16297.461395821434	1.063533563446
0	20780	16307.808268145866	0.987988473289
0	20785	16317.37278135622	1.144032327365
0	20790	16319.059006012853	1.003018546943
0	20795	16321.380796464887	1.046065388154
0	20800	16323.477942657649	1.140621802676
0	20815	16335.308924558539	1.115360676728
0	20825	16343.78149038124	1.070966485422
0	20830	16348.097818244515	1.059955286328
0	20835	16350.163696584383	0.845450947993
0	20845	16355.574245313996	0.818382658251
0	20852	16367.977753082451	1.117982722633
0	20855	16368.844686175578	1.651667519767
0	20870	16383.607817631073	1.174034162611
0	20877	16387.058362964154	1.151845734566
0	20882	16388.1277221131	1.239432984394
0	20915	16412.538172943648	0.857121325005
0	20920	16420.445965035348	1.030850331113
0	20937	16424.645228255308	0.968209378142
0	20940	16425.597181006475	4.330069610168
0	20962	16442.772649993085	0.912660025246
0	20972	16445.03872011517	6.143333647877
0	20975	16446.101394028578	2.602138320768
0	20985	16463.092300413366	0.952156778146
0	20990	16465.975716598603	1.051424458809
0	21010	16487.951008874512	0.977645151503
0	21020	16493.634691842634	2.854311931178
0	21035	16511.727027915071	0.897725804325
0	21040	16513.10012578542	0.986424507387
0	21045	16520.983283018982	1.186275842506
0	21052	16524.929219450071	1.101534912921
0	21057	16526.048524957723	1.148501532127
0	21065	16529.934781573185	4.047310583413
0	21070	16531.445978227781	1.165558342915
0	21075	16545.041424751001	0.925865274668
0	21080	16547.973140999516	1.111617538426
0	21092	16550.959581347313	2.480044572238
0	21100	16553.2299443806	3.08800677553
0	21107	16572.254067542448	0.911269992962
0	21115	16574.021128639102	2.534195208872
0	21135	16587.234503656626	1.599767961874
0	21147	16603.052327490437	0.868291515671
0	21160	16606.295361832514	3.926899946101
0	21165	16607.403921443875	0.817166179512
0	21170	16612.050449729081	0.808198550995
0	21192	16633.478573529074	0.877819420956
0	21202	16635.477228512546	1.424913829212
0	21205	16636.629558204325	2.101846149718
0	21215	16639.892241711323	0.854188879859
0	21225	16666.121777464303	0.936680090055
0	21235	16670.013685569326	3.241047523641
0	21242	16674.532268888346	1.155179099925
0	21252	16687.230024012863	0.912726269942
0	21270	16696.050410050669	1.022546392772
0	21275	16703.127717138018	0.814678522106
0	21287	16711.989879808755	1.689177245188
0	21304	16715.082139549026	2.156794891665
0	21314	16717.121366025316	4.877844155295
0	21317	16718.186460436875	2.404228334841
0	21330	16723.509752741195	3.483133237218
0	21337	16725.6528229544	0.872900790628
0	21345	16728.177499025175	0.931694193464
0	21359	16733.068346048388	1.242037121443
0	21362	16734.172054294831	2.297617130498
0	21365	16734.988390771913	3.807794652879
0	21370	16739.140372575978	1.036585017946
0	21375	16745.01734347211	1.129989602417
0	21392	16749.155762237088	3.340337462506
0	21400	16752.153967248049	3.389499019281
0	21405	16765.113801585968	1.031849909481
0	21410	16766.572399636026	1.040210593026
0	21415	16771.033481692374	1.156087144651
0	21425	16776.954400269578	2.031434542071
0	21435	16787.638954791728	1.009618489444
0	21442	16799.056033892724	1.190307050943
0	21454	16806.787032681506	1.093192089256
0	21457	16807.797540670063	2.10029320928
0	21480	16833.507575790315	0.896665420104
0	21522	16865.754623080899	2.060257088522
0	21529	16866.72354065973	1.847270318504
0	21536	16867.699523935017	0.991581659866
0	21539	16868.52728225609	1.773177562149
0	21557	16883.356784828299	1.174316808674
0	21565	16885.642678982512	3.27716269998
0	21604	16897.919062190795	11.577212813887
0	21615	16900.796829497464	12.733165344456
0	21620	16904.699069404109	0.907603355031
0	21630	16933.205875958344	1.197346336115
0	21650	16958.848217897921	0.946334550717
0	21659	16964.265546571994	7.171947465657
0	21662	16965.093249596627	1.044885563769
0	21670	16982.737406956073	1.02110457113
0	21685	16988.188475225129	0.958229626063
0	21690	16989.749676909773	1.124136031326
0	21695	17005.934961226285	1.161637196131
0	21700	17014.442161659901	1.067052080948
0	21707	17018.094349823267	1.012438174151
0	21710	17018.898253878047	1.237076962412
0	21715	17024.857892598524	0.913100998104
0	21725	17028.52288846252	1.384392481224
0	21759	17041.526487857784	1.710032271844
0	21762	17042.668059988442	2.257002047594
0	21785	17063.788907306828	5.315877222159
0	21790	17073.114274146535	1.090694669541
0	21797	17076.948966149366	1.129943011049
0	21802	17077.84652507029	1.662654803136
0	21810	17083.276775101227	1.03195153065
0	21817	17088.901058958658	1.149400608707
0	21822	17089.718478935027	1.030669096831
0	21830	17091.925798167103	2.064787865904
0	21845	17108.068278558566	1.783698203931
0	21855	17110.361055148318	1.641590099974
0	21860	17127.471091555137	0.896238696575
0	21870	17132.527229673561	0.855523283314
0	21875	17134.986640048618	1.093203978613
0	21890	17151.694960914506	1.773022704155
0	21900	17162.372142097942	0.963211952243
0	21929	17170.510235749254	1.221630110711
0	21932	17171.327699095545	1.349020509837
0	21940	17174.065344629349	0.801311286911
0	21945	17191.149405802306	0.895967794303
0	21954	17198.403752939957	1.065953833517
0	21957	17199.603695369228	1.535530959324
0	21965	17204.102999952241	1.088803571928
0	21980	17207.949361618116	2.862282800395
0	21985	17209.238248173463	0.889835270308
0	21995	17229.910233506447	0.888405115996
0	22000	17244.171629346022	0.847881930601
0	22005	17256.71813879643	0.823402768187
0	22010	17258.60183154835	0.929669645056
0	22029	17269.398001639422	0.927748822886
0	22040	17276.346341129322	0.944597925339
0	22062	17283.56428423906	4.862501028927
0	22105	17323.61591216841	2.856310973107
0	22110	17340.271405270065	1.199950327352
0	22130	17352.380530448885	3.303359485231
0	22135	17354.443290245965	0.848274860904
0	22150	17362.494400956237	3.561568172577
0	22155	17364.696031682652	0.817220159154
0	22160	17373.143297738243	1.1044275783
0	22167	17377.769375202939	1.128651516605
0	22172	17378.611132610723	1.07978374972
0	22175	17379.528815903183	1.000382841779
0	22185	17382.142774803233	1.81592172545
0	22190	17388.763076862168	0.905829975847
0	22197	17400.50960711385	1.092623979039
0	22202	17401.689610924617	1.959617664789
0	22205	17402.776522298575	1.210364300936
0	22210	17412.477621406974	1.052951241191
0	22215	17434.118330265694	0.990734129492
0	22225	17470.431088922845	0.843203834351
0	22232	17472.723823756432	1.131656492129
0	22235	17473.81160707193	1.096793064131
0	22242	17518.60466672605	0.908466840349
0	22255	17533.990730662943	0.861371754389
0	22260	17556.511556994416	1.196890207939
0	22272	17562.186330518325	1.68901133695
0	22287	17565.057206822471	0.998458470665
0	22295	17567.619743042923	1.133259739447
0	22300	17568.845908165614	1.135760621447
0	22310	17572.967962481405	1.149897131976
0	22317	17581.506406047441	0.917462790385
0	22320	17582.450402140211	1.753799042597
0	22332	17594.646708700127	0.935067624971
0	22345	17600.930007584046	0.907098336052
0	22350	17601.960414023336	0.892745036166
0	22357	17610.858546447534	0.905078129377
0	22367	17614.110680544931	0.973439676594
0	22375	17619.690162809781	1.191869241837
0	22392	17627.561823463212	2.847092349014
0	22400	17637.831129325526	1.18078559842
0	22405	17639.417022019166	0.882584096212
0	22422	17649.145131402178	1.950915362573
0	22432	17653.327304996207	1.051172646135
0	22445	17656.627279507609	1.455427159757
0	22450	17658.394634102058	5.877707990578
0	22464	17672.733329870356	1.164644444641
0	22467	17673.62926176087	1.352139060937
0	22475	17676.016667185073	0.894823645242
0	22480	17682.178437830007	1.064395648986
0	22485	17687.814631730411	0.849368771631
0	22505	17702.900830101247	0.965202171914
0	22510	17708.725334078311	0.921087793447
0	22515	17727.093401678253	0.831120186392
0	22530	17738.024063346057	2.029784305135
0	22544	17758.165970738651	1.051543161459
0	22547	17759.240292223776	1.790460662397
0	22550	17760.109162894963	4.181192429853
0	22580	17775.565620140035	9.233759340833
0	22590	17779.196756443038	1.017959199008
0	22595	17780.158889767181	0.930513653718
0	22600	17786.171295707994	1.178775498364
0	22605	17812.202052793756	1.052781017497
0	22610	17814.101238423581	1.068730539083
0	22615	17824.18560736889	0.980295637529
0	22620	17826.755997006959	0.859255870525
0	22625	17832.046612613255	0.90661741579
0	22639	17839.453768628087	1.122443041392
0	22642	17840.447064193521	1.22049453712
0	22687	17881.731554704855	2.218741052543
0	22690	17882.697149675569	1.158795160882
0	22695	17885.748962850184	0.85089188274
0	22700	17886.862414179707	0.814939011447
0	22710	17900.82300769278	0.961993435584
0	22715	17903.457505315362	0.852996479813
0	22720	17909.493969855629	1.09369594045
0	22725	17910.400523949839	0.805110994633
0	22750	17937.780420842782	1.161237602402
0	22760	17945.200848455529	1.068753447849
0	22765	17955.634260103508	1.079760309216
0	22775	17969.453314789139	1.111507315531
0	22792	17983.423178219729	1.006612952426
0	22800	17985.431058290255	1.670346403069
0	22825	18000.124195096415	3.520492161587
0	22850	18030.318504839755	0.941335338202
0	22865	18042.844397335861	1.094658254739
0	22870	18046.814771562824	0.961209229287
0	22882	18055.051996194404	1.781008220366
0	22890	18064.757406729193	0.805565254297
0	22900	18071.643488461052	1.102879670355
0	22920	18079.101372359217	3.129857799914
0	22942	18090.523574349097	1.139431736432
0	22945	18091.339983097835	1.183661108177
0	22955	18095.064547366577	2.368303518628
0	22975	18114.480048453412	1.023332815338
0	22980	18118.142138985573	0.850592263788
0	22985	18121.173880926546	0.939764204621
0	22992	18134.14287577882	0.992713116016
0	23020	18154.587172995067	2.39493594323
0	23027	18158.294422153588	0.836048148479
0	23030	18159.218568275794	1.062390329157
0	23042	18165.066974070794	2.310320570475
0	23055	18176.622287159695	0.825180233922
0	23065	18180.440443424537	0.825928891916
0	23075	18184.305386142817	1.036900127307
0	23082	18186.131918939181	1.180798116792
0	23085	18187.307564291243	2.044275639353
0	23092	18192.659564111889	1.168997415993
0	23105	18197.419887938004	0.890725952355
0	23110	18202.462005009502	1.023175998311
0	23117	18205.078335340646	0.986439255532
0	23130	18219.670411423015	1.192120756152
0	23137	18225.893025050886	1.161010428425
0	23145	18228.668958867591	3.542480232012
0	23152	18233.767232539727	0.95322893383
0	23155	18234.847896031978	1.290201871588
0	23165	18247.683949884727	1.124702947028
0	23170	18257.480225580784	0.954165935144
0	23175	18259.766157915622	0.805608769134
0	23194	18268.986210848805	3.047491071094
0	23197	18269.895754801989	1.73790843447
0	23205	18276.89360287153	1.044855272118
0	23212	18278.65225185335	0.855791858584
0	23225	18288.559484351777	0.916078365222
0	23235	18292.772030478155	7.968193492412
0	23240	18302.944768640287	0.899674654938
0	23245	18309.234337535607	0.88659716649
0	23255	18313.838289228015	0.942883356567
0	23280	18332.19217260947	1.014471922256
0	23285	18334.605557478923	0.878681125958
0	23290	18336.780484829956	1.163654176798
0	23297	18340.6070288529	0.928682177141
0	23300	18341.454087004469	1.230149411002
0	23315	18346.355936718548	3.650833940885
0	23320	18352.86362569292	9.081289990965
0	23330	18356.295582586267	1.776552346467
0	23342	18366.84909718198	1.134745493717
0	23365	18371.767231827664	5.832388158181
0	23370	18375.689167505607	5.861328586419
0	23375	18386.215549326122	0.815765443165
0	23390	18394.693410608856	1.133087151311
0	23400	18404.478105660761	0.865527450852
0	23405	18406.365964695673	0.826146129146
0	23417	18408.568778006577	1.918884180513
0	23420	18409.510111459375	2.939921612478
0	23430	18415.503820853327	2.216729866028
0	23440	18418.511770000848	0.973291427363
0	23445	18419.773809926439	3.647683604426
0	23450	18425.265662607088	1.159439514671
0	23457	18426.589997319794	1.019176547788
0	23467	18428.80819496823	0.8732301604
0	23470	18429.663379003326	1.186353596105
0	23475	18431.132303855979	0.951053224411
0	23480	18437.509152513594	1.019898498338
0	23495	18448.163402194677	2.210753219602
0	23505	18454.394401850298	3.925586391082
0	23512	18456.559354769101	0.816602410842
0	23528	18458.722210189083	1.767461753293
0	23540	18461.067625392264	4.903673325234
0	23543	18462.078677095322	3.383250892546
0	23553	18463.936246180943	1.688393919031
0	23556	18465.133836146201	6.885664894571
0	23570	18469.072155525851	1.280321609241
0	23580	18472.029701572542	1.256862765526
0	23600	18478.367611188909	1.402848021833
0	23610	18484.527857676509	0.922512510326
0	23615	18489.687696158947	1.171729570907
0	23640	18509.889982018912	5.493431002599
0	23645	18512.213783469037	0.938718230836
0	23667	18531.04790997697	2.576409037377
0	23672	18532.06850298034	1.033683931958
0	23675	18532.967967466134	1.377080554424
0	23680	18539.635651157479	1.082166638318
0	23685	18542.779209426767	0.946467469539
0	23702	18554.323505707042	0.966344309598
0	23705	18555.243592816641	1.832859626403
0	23715	18559.13322750173	1.213838653705
0	23722	18565.017584504282	0.925849348679
0	23737	18587.288159281781	1.090310436487
0	23742	18588.332471912934	1.926442845582
0	23752	18597.995938959852	1.056699818559
0	23755	18599.170557899349	1.809192770804
0	23775	18618.863904772257	0.903807282262
0	23785	18635.798740387067	2.81868918111
0	23790	18640.01788885744	0.877920679655
0	23800	18652.890737371349	2.428040096645
0	23810	18665.406675843352	0.842451692373
0	23827	18677.025442599918	1.174229437578
0	23837	18679.254700611826	2.508139046101
0	23840	18680.171020765059	0.967449243939
0	23867	18704.111035538194	1.302898347268
0	23870	18705.159452107092	1.394148603872
0	23885	18727.055709129105	0.830029382557
0	23890	18730.287786067159	1.176949908305
0	23927	18756.613881508272	3.902300306303
0	23932	18757.786547956347	1.922445040091
0	23945	18763.396785186083	6.071069385843
0	23952	18772.313358657329	0.817437771522
0	23969	18775.335884267079	1.953541761395
0	23995	18788.504896639165	0.916125759389
0	24000	18793.328526816964	1.118869859632
0	24005	18816.042306175037	0.936234738678
0	24015	18821.336762063488	1.152405808959
0	24020	18822.735991861935	1.193520019762
0	24025	18824.52558590409	0.840737736318
0	24030	18827.778473629251	0.918852194399
0	24040	18842.59383984806	0.892749959137
0	24045	18865.037536838854	0.878490472492
0	24055	18884.418063184392	0.98895867914
0	24060	18886.999732536667	1.016976952832
0	24065	18894.00923782305	0.902227579057
0	24079	18898.172495945797	1.804910966372
0	24082	18899.364884326116	3.478685813397
0	24090	18903.662184532243	0.82611549776
0	24112	18915.989652152058	0.848521785066
0	24115	18917.02910843359	1.286974508558
0	24125	18929.714399954266	3.403884512366
0	24142	18934.307648074949	1.078815077804
0	24155	18941.514817476849	0.969158539455
0	24160	18944.296593349551	0.990179348923
0	24165	18950.95279284285	0.913010763936
0	24170	18954.183485597445	0.803984682262
0	24177	18955.390892176763	1.088731811196
0	24182	18956.358434154899	1.901707679015
0	24190	18958.843826876057	1.198210036196
0	24199	18960.642790448078	1.067655370478
0	24210	18963.734788270731	7.492559062185
0	24220	18969.449847923234	1.963964356956
0	24237	18983.668209182423	1.62535677657
0	24247	18985.438678446458	1.576566775015
0	24270	19014.456778452187	1.015910280496
0	24275	19020.195589009866	0.82572556315
0	24290	19063.694322665718	1.079790039919
0	24305	19087.151850324057	2.079295851778
0	24327	19110.034160865907	5.433915181845
0	24330	19111.174173438613	1.340823014561
0	24335	19120.289490196945	1.067614390794
0	24340	19122.281229496986	0.930524675921
0	24352	19139.774621504704	1.176593104284
0	24377	19145.830883230888	1.496204395927
0	24385	19147.855573427737	6.655729745374
0	24390	19151.594809435697	0.899112051725
0	24410	19168.725815955393	0.880395128019
0	24417	19172.44136705563	0.953913134709
0	24422	19173.482130533611	1.192401524021
0	24430	19176.149305981727	3.553830636739
0	24440	19182.966946682314	0.871718584374
0	24452	19186.377340739211	2.661286418301
0	24467	19189.501057316912	3.48547407445
0	24470	19190.486370722288	3.41279790825
0	24480	19199.350579359644	0.866726040747
0	24495	19226.309165931799	0.911084136087
0	24512	19240.975211931421	1.048853211943
0	24520	19242.986882741498	4.871152467139
0	24532	19274.096060636404	0.851564892661
0	24535	19275.196319998193	1.276712378613
0	24545	19297.985888647407	1.172066674475
0	24550	19299.429425726494	0.993216434866
0	24555	19307.033808300949	1.183553694841
0	24560	19313.197674352252	0.976749807131
0	24565	19315.594046343038	0.999425487686
0	24575	19323.296277850026	0.815056104958
0	24597	19329.383315327747	9.174371448611
0	24600	19330.510434067512	5.699686998079
0	24605	19336.533378891487	1.19794944413
0	24615	19342.456638230099	0.809398710914
0	24630	19347.068955492906	4.257259019739
0	24635	19348.506009357175	1.168396496587
0	24645	19362.513975908474	2.952006358193
0	24650	19364.020850656231	1.17783845095
0	24657	19383.870146810625	0.979407485481
0	24660	19385.070068719786	1.848955238651
0	24675	19389.989966799497	2.645807022159
0	24690	19394.873495494732	3.723663391184
0	24695	19396.071657723334	3.086897445551
0	24707	19404.079625951224	1.773863767057
0	24735	19415.791832125661	6.395180286229
0	24740	19425.141330648925	0.952567349654
0	24755	19437.700988434663	0.962210805435
0	24760	19438.986197131863	0.80449352311
0	24772	19457.107893276514	0.988709105179
0	24775	19458.257915632912	1.396705569598
0	24798	19465.472346865823	1.977402107153
0	24801	19466.605498095946	2.256182341358
0	24830	19491.429805922359	0.856464073528
0	24845	19509.281571817886	2.114101597741
0	24850	19513.600360322561	1.143731199112
0	24880	19571.812399083728	0.930638842005
0	24885	19576.318637735214	0.967105886247
0	24895	19581.808118317226	2.188571000623
0	24932	19620.554016387682	1.753636377274
0	24942	19629.131461988396	1.143571515568
0	24945	19630.256885364658	1.787221756758
0	24957	19642.632751684274	3.994063839544
0	24960	19643.736983392398	1.6320405383
0	24965	19647.736177981388	1.0200348977
0	24975	19652.246223573649	2.2551976866
0	24980	19659.6439451804	0.967691345885
0	24985	19663.195584598656	1.09318397548
0	24990	19665.340410004889	1.192552942876
0	25004	19673.980274672565	1.042421911657
0	25007	19674.974017423523	1.909320597861
0	25020	19697.689032707911	0.984626897983
0	25025	19699.266208675647	0.912301383819
0	25035	19707.272771598656	1.058530948311
0	25070	19719.093302384769	1.177067240048
0	25075	19721.015397783041	0.933868836705
0	25090	19733.435609086683	2.873043533965
0	25095	19735.077187359921	1.05552904401
0	25105	19744.270484640336	1.022918041237
0	25117	19752.18056762749	1.837600559082
0	25130	19757.36865491973	1.839264291038
0	25139	19758.751849864817	0.959050543141
0	25142	19759.751000491923	4.261272310172
0	25192	19783.825142448962	1.210202618254
0	25195	19784.761119383395	2.966455210652
0	25200	19788.125663082832	0.991744131036
0	25215	19794.645988268235	2.608490261499
0	25232	19802.29138526349	0.974704718869
0	25237	19803.479913326825	5.751588333202
0	25240	19804.398625666282	5.768285105257
0	25250	19809.679631632216	1.898546910957
0	25260	19817.196463473903	3.900544721908
0	25265	19818.368027569754	1.083616857417
0	25275	19822.08018444403	2.181642078816
0	25285	19823.995523172427	0.918087719376
0	25290	19827.056705736545	0.99243207071
0	25310	19833.935841764649	5.799416662069
0	25320	19840.517329742499	0.964986272901
0	25330	19847.202536447314	1.173749814555
0	25335	19849.264995241509	0.852872835193
0	25357	19867.719651996471	0.818262203038
0	25360	19868.590029086486	2.5241914279
0	25365	19873.941224193012	0.935074326862
0	25370	19877.530217191541	0.934672862012
0	25375	19881.926434623636	0.824668150488
0	25380	19888.198690944806	0.887615401112
0	25385	19889.460046553229	1.14652172355
0	25390	19897.68634551838	1.194681251235
0	25405	19902.903421122034	1.548205797218
0	25420	19913.077816041426	0.800452253874
0	25435	19919.621280819891	1.525687070145
0	25445	19922.591735169591	0.815471769124
0	25455	19933.144705711229	1.045397373755
0	25460	19936.154092862889	1.196554767527
0	25465	19937.848655464815	1.128366965707
0	25480	19945.288169274883	2.099394450565
0	25485	19949.40026111144	1.12850632593
0	25490	19951.688850942638	1.007072883286
0	25499	19953.39073728683	1.102101532184
0	25502	19954.375901085572	1.729980107068
0	25524	19968.194355852078	3.281189697663
0	25527	19969.115745091732	1.855672723477
0	25550	19975.995118264044	1.179925732315
0	25575	19989.41447242522	0.824832801707
0	25580	19997.262489347904	1.083637656644
0	25600	20014.689114511518	2.473331032607
0	25615	20030.610296295216	1.068388082646
0	25635	20036.1548312213	5.09758618887
0	25657	20045.868224395016	1.747012692562
0	25660	20046.756719844179	2.861271659471
0	25665	20054.036925183333	1.178207414318
0	25670	20055.594200419352	0.940714083239
0	25675	20063.507088158976	1.064509806689
0	25680	20067.541485240325	0.838992322981
0	25692	20073.636778814862	1.431781831937
0	25695	20074.710554283815	2.872934631538
0	25700	20083.203773945568	1.088464083616
0	25705	20084.562499200523	0.86741739409
0	25715	20093.074382170265	1.129822388478
0	25725	20098.872289416974	0.806952244416
0	25730	20106.947574820411	0.924052737094
0	25740	20122.516814539338	1.179739851318
0	25750	20129.161674786662	0.978005980607
0	25757	20130.310030711687	7.073095384868
0	25765	20139.133150761056	0.945012827497
0	25787	20153.330230000275	1.565194444855
0	25797	20159.935368977855	0.909075300395
0	25805	20172.675579851451	1.034800752439
0	25810	20174.507258914119	1.167496043723
0	25815	20177.748509096784	1.090521791484
0	25820	20188.601519258374	1.04863985721
0	25825	20201.753714150839	1.005087995436
0	25835	20214.442853113802	1.116464831028
0	25847	20220.734852128401	0.833351967484
0	25857	20224.986010539893	0.954084461275
0	25865	20226.993491571851	1.468097201196
0	25872	20250.461645410483	0.86343252873
0	25887	20258.212131721394	2.996815519899
0	25905	20263.443895379164	3.601338920764
0	25910	20265.482314597055	0.930284262076
0	25920	20271.634109817504	0.961548609287
0	25927	20273.460262518343	1.024614955299
0	25940	20281.621955445266	1.009112395905
0	25945	20291.799313313799	1.00631837612
0	25950	20294.469470025466	1.034963883553
0	25955	20295.43537879608	0.934558531176
0	25960	20299.020956801736	0.899186368659
0	25975	20308.807933846052	1.130466536805
0	25980	20317.796316156039	1.194929993525
0	25985	20323.289816809092	0.963215773739
0	26000	20345.553136137674	0.985024696775
0	26012	20353.532482162827	2.346166260057
0	26015	20354.466493117214	1.121216650222
0	26020	20356.897593927913	0.98235070128
0	26025	20362.377369534621	0.947584540863
0	26030	20365.47572661471	1.100694508851
0	26045	20373.100721226902	1.050629404839
0	26050	20378.152867442326	0.810737594217
0	26070	20387.897246524468	0.932977972832
0	26085	20400.947010951958	0.829021446966
0	26105	20411.022272675608	1.02860623179
0	26112	20414.56993453949	1.177631284203
0	26115	20415.653796365943	2.117942649759
0	26130	20428.072787916338	2.841824673787
0	26135	20430.21634235071	1.045073371287
0	26142	20431.642589940164	1.030895356741
0	26150	20434.188409283391	2.687597046249
0	26155	20437.678963273308	0.89823271865
0	26167	20443.49866883442	0.875653783605
0	26175	20446.56598259385	3.809107625922
0	26185	20461.79489155635	1.049353536777
0	26197	20470.186890829501	1.060192833282
0	26205	20472.905508510347	5.214541510368
0	26215	20489.975327515427	0.95470724022
0	26220	20493.116730985705	1.008931655809
0	26252	20502.235933300599	0.898056744578
0	26255	20503.23905910936	1.349808863385
0	26270	20516.275019418598	0.966935613099
0	26279	20522.333505912123	0.892971642688
0	26292	20525.627758773875	1.102419202775
0	26305	20534.899780422877	1.036475765519
0	26310	20541.781454748813	0.925602781773
0	26315	20542.807717441892	0.906196987629
0	26350	20563.938969228678	2.176534154621
0	26355	20575.904685974408	1.011689144466
0	26360	20577.6419194354	1.141430064104
0	26365	20585.75002769085	1.101955848094
0	26372	20589.657351465089	1.036211134307
0	26375	20590.65577771909	1.195460265811
0	26382	20599.661972549965	1.044816147164
0	26385	20600.619398491119	1.003394557971
0	26400	20617.153635324142	3.44953159784
0	26405	20621.387835659192	0.941710027866
0	26425	20655.054738230758	2.014263053159
0	26435	20664.574598171344	2.738667374228
0	26440	20671.34831719802	0.953768722247
0	26450	20685.073605738982	1.465249311849
0	26465	20696.382985066472	0.923158312961
0	26470	20698.149927359968	0.817869107146
0	26487	20713.367615427775	0.864190620184
0	26492	20714.227743806829	1.352535292735
0	26505	20733.422256073051	1.189580915309
0	26515	20738.004992592049	3.52585874985
0	26520	20744.760301134093	0.934662200604
0	26530	20774.055378604136	0.88915115213
0	26535	20779.364969570412	1.086748912372
0	26540	20781.048909158738	1.184715299495
0	26545	20782.991739301608	1.075751765259
0	26550	20787.574005162749	0.81033794051
0	26555	20797.283236373657	1.012334217131
0	26580	20813.088809793491	4.595184612501
0	26585	20817.299795859914	0.947544162627
0	26595	20827.710207205382	2.488727359494
0	26600	20839.069928700291	0.815528910886
0	26605	20841.403958428367	1.131118079741
0	26615	20844.95792751645	2.351449692249
0	26620	20862.821268392141	0.927284511924
0	26660	20878.984027294143	10.648175333534
0	26665	20885.61483815652	0.873092714883
0	26677	20888.806023049296	1.025783211272
0	26702	20907.12893473707	1.17324244706
0	26705	20908.1206634997	1.577439224001
0	26710	20913.667695229754	0.809271401726
0	26737	20930.67936213793	2.826097079367
0	26747	20932.900316504469	3.367867118082
0	26752	20934.025319211172	1.7886209251
0	26755	20934.89161581731	1.538886619577
0	26760	20942.391766687426	1.141629103851
0	26770	20947.784145599546	2.85434808218
0	26775	20949.931828861191	0.834802387655
0	26795	20979.632189559935	3.47432557223
0	26800	20982.763593180141	0.807237344608
0	26840	21002.338644672192	3.955820502168
0	26852	21006.560161862568	3.177573069528
0	26855	21007.429789067757	1.312918333966
0	26865	21016.174939321108	0.894181457255
0	26880	21027.737173175629	1.071210987493
0	26890	21038.488664244939	1.184294483438
0	26905	21043.630171204175	1.294558676366
0	26917	21047.566659825414	2.602448466931
0	26925	21052.067944141803	5.368969049803
0	26935	21063.494856155865	0.819225678965
0	26940	21071.327548016785	0.940724627115
0	26950	21075.493668814456	1.83174157341
0	26955	21080.160308076979	0.986106347106
0	26960	21087.039813812747	1.17364725098
0	26985	21095.380907379262	3.040196930782
0	27002	21102.510138085704	3.060120316222
0	27005	21103.662291390203	1.168363729378
0	27017	21115.009616377861	0.955393002741
0	27020	21115.931710604676	1.256166950582
0	27025	21119.47912308179	1.12978299493
0	27035	21125.711939059471	2.232013493433
0	27042	21128.492568043389	1.035706229415
0	27045	21129.455292401884	1.926031127828
0	27050	21136.547551910972	1.148143602535
0	27075	21167.781062838841	1.174755237252
0	27082	21180.761885150177	1.17177362768
0	27107	21201.566815787632	2.87721934421
0	27122	21205.644881967198	1.785145002094
0	27132	21208.250240349532	1.128055177629
0	27135	21209.215816400428	5.298762846891
0	27140	21212.58181778471	1.118495760113
0	27145	21213.653559998327	1.01503984835
0	27167	21251.119285415446	1.906117468686
0	27214	21272.339817978548	5.741289907653
0	27220	21274.286649741153	2.465794403365
0	27232	21276.703157268424	1.485560044312
0	27242	21278.75202465491	1.3203357992
0	27256	21280.824055009766	12.507696973857
0	27259	21281.752932013909	1.77150919962
0	27262	21282.930879282358	2.303685770635
0	27290	21318.737211622933	1.008749409486
0	27300	21321.278995310399	2.333798655732
0	27305	21322.744532237045	1.166810096148
0	27315	21327.717907277313	3.745097298594
0	27345	21352.391843567099	0.91823969679
0	27360	21374.229384772643	0.955933837779
0	27370	21379.595363981544	0.966716926359
0	27390	21393.750348221284	0.94361539688
0	27402	21397.48777359901	1.687825136699
0	27429	21403.213142803715	3.470727203748
0	27432	21404.063579602571	4.773211675137
0	27445	21412.639510510184	0.856702845264
0	27455	21420.144100003079	3.482838130001
0	27460	21423.450529042917	0.896662246995
0	27482	21456.848300799763	1.865777983107
0	27510	21480.41827020837	1.015390385129
0	27515	21485.436242853989	0.891925859917
0	27537	21492.3124987272	0.905475218315
0	27545	21499.340090324227	1.076317475736
0	27550	21500.882698033309	0.923013134953
0	27557	21509.04916729864	1.152805090416
0	27571	21511.297255375909	1.887588000068
0	27574	21512.296295474025	2.101799276576
0	27590	21517.595654557336	0.925116055366
0	27595	21519.394646702811	1.066211416479
0	27617	21530.113509709335	0.872614697926
0	27630	21553.781139796272	2.169666778422
0	27635	21558.617506356961	1.042094783019
0	27640	21561.097876146579	0.957255417854
0	27645	21561.978353495272	0.803624327108
0	27652	21563.21123131017	1.065848605335
0	27655	21564.021185190387	1.009943485876
0	27660	21572.448178210865	0.819327880722
0	27667	21575.174663310827	1.081784769241
0	27675	21578.364551475423	3.304828044448
0	27680	21583.549657861376	1.117490507942
0	27690	21586.293589839608	2.525265879954
0	27710	21613.875614557214	0.822692947648
0	27715	21618.996329163711	0.84244141914
0	27720	21631.803460308474	1.040281953197
0	27737	21637.098219401621	1.08548216261
0	27742	21638.036493350052	3.061420405821
0	27757	21641.519685864802	3.650038270636
0	27762	21642.57268387366	1.352537997434
0	27770	21648.017254254193	1.084596013092
0	27785	21654.291230648853	0.870038332418
0	27815	21686.988528373857	1.089665873349
0	27830	21698.684886219434	5.597630333332
0	27835	21700.246619266418	0.966483857017
0	27840	21703.970348289051	0.893321835436
0	27845	21706.447680354541	0.979635853413
0	27850	21708.985312864203	1.031811355893
0	27855	21712.726076484548	1.032393861562
0	27870	21742.083329675244	1.085924957041
0	27882	21747.570444879151	0.856029919814
0	27887	21748.596931743278	3.75180196295
0	27912	21756.040313855883	1.085864168801
0	27915	21756.862807530117	1.181092882713
0	27922	21758.620767064655	1.060818416532
0	27945	21774.993950098083	4.395372606505
0	27955	21800.680443077324	1.10169756487
0	27965	21810.305954426631	0.916322507896
0	27970	21814.082785706419	0.932430595439
0	27975	21816.912682068441	1.027795221936
0	27990	21838.964895837887	1.041532499436
0	28005	21848.843090666299	2.793357963896
0	28010	21851.501831314463	1.111635300145
0	28022	21855.18270163612	1.745151286689
0	28035	21859.496165613891	6.575608234527
0	28040	21865.339579539825	1.006147964951
0	28050	21879.758087383921	1.036202716455
0	28060	21884.00087329247	1.190070331173
0	28070	21900.42358243138	1.073825711384
0	28075	21903.449453109892	0.981520514842
0	28080	21904.721040198841	0.884784106724
0	28090	21927.094178735224	1.131033945736
0	28105	21940.027316140268	0.9574978102
0	28110	21958.844025178538	1.100776366983
0	28120	21980.453695785374	1.037541462108
0	28130	21984.762727279701	3.20150532957
0	28140	21988.538953501496	2.938569221319
0	28145	21998.973839046611	1.119398101605
0	28150	22001.48721316935	0.958891141322
0	28155	22006.007934842761	0.903234221134
0	28160	22008.69217520506	1.194906265941
0	28170	22017.893208001207	1.131605706271
0	28180	22023.043526897713	4.190608790305
0	28190	22064.035876213963	0.994601119123
0	28195	22066.270278551283	1.009361597523
0	28200	22068.316077982731	1.16870441502
0	28205	22069.420641994505	0.937560258061
0	28220	22101.028275271384	0.830156160798
0	28240	22108.504734035813	5.199627378612
0	28255	22124.824749659101	3.820628607878
0	28265	22131.38989614401	1.994266172744
0	28275	22144.917693631945	0.865317817684
0	28290	22152.741205280382	1.063298900425
0	28295	22157.068602046816	1.007574046217
0	28315	22177.994529895146	0.942249012645
0	28320	22180.023578812296	1.076871203724
0	28325	22184.371423236972	1.110425949749
0	28337	22187.579354095231	1.818894792793
0	28350	22192.364380149695	1.469192184168
0	28385	22228.158110666908	1.210597546292
0	28390	22231.331197291144	0.968760441896
0	28402	22241.188836213978	2.153503012927
0	28415	22254.214154661962	0.875277245231
0	28431	22258.082652667806	1.524408482822
0	28434	22259.244007746399	2.404387735204
0	28450	22263.731072930516	5.756871963437
0	28465	22269.59114789024	8.757115426172
0	28505	22303.350426584408	6.302047648172
0	28510	22305.246934529036	0.917999696825
0	28515	22306.565838091358	0.803296415042
0	28522	22316.757591657808	1.066840954404
0	28537	22321.22744928679	1.177449156996
0	28540	22322.075576092271	0.884956216649
0	28550	22324.467302341813	1.230015339705
0	28555	22326.880923796128	0.860953293182
0	28560	22328.877290360586	1.078121271264
0	28570	22332.181105076888	1.881101042747
0	28575	22334.017373524831	1.143693915289
0	28587	22343.278967275917	1.953604235711
0	28602	22353.909153867861	0.951392228436
0	28605	22355.001548303453	1.97676913863
0	28615	22363.936637259279	2.938814387996
0	28640	22376.711152646821	0.80968861552
0	28652	22395.280199474721	0.91842264235
0	28655	22396.463166195686	1.396038830479
0	28665	22404.102619155891	0.889373004064
0	28685	22415.759104777713	1.551489463749
0	28710	22435.502408766317	0.865513765067
0	28730	22442.730230924012	4.626780258514
0	28735	22449.613513034853	0.831938440073
0	28752	22456.035693561454	3.630484293435
0	28760	22465.093223718792	0.846276006103
0	28765	22467.588851887906	0.854592363816
0	28775	22472.019300960244	1.068279303424
0	28795	22495.415881676793	1.882245376875
0	28800	22514.412882581356	1.036116272863
0	28805	22539.045338241914	0.961874368507
0	28810	22543.634819246929	0.842086296063
0	28815	22547.741621525904	1.004734676331
0	28825	22552.387856936813	1.567453287048
0	28835	22555.824497376971	1.939338485193
0	28845	22558.90073308399	2.25901872743
0	28850	22565.677478903924	1.09226246858
0	28869	22577.772185995859	2.951175094387
0	28872	22578.83437847091	2.943813082017
0	28875	22579.848622232267	2.193075392401
0	28885	22595.358656718482	0.814935965929
0	28895	22610.186055001698	1.17655062899
0	28900	22617.2123146947	0.843691254314
0	28920	22627.612166467686	1.051915649045
0	28925	22632.245523834326	1.133722820878
0	28977	22663.712819869162	0.909616571851
0	28980	22664.788057365173	10.346810068348
0	28985	22671.931862509658	1.078452068381
0	28990	22676.007964687338	1.179274001066
0	28995	22680.822347458306	0.944615851901
0	29000	22692.033024462232	0.949137508497
0	29010	22701.416332610265	2.241180361964
0	29015	22702.624977349177	0.91776214093
0	29020	22707.725563183289	1.154562981892
0	29032	22711.385624584208	1.469802037369
0	29035	22712.578136497295	3.487511825561
0	29040	22714.404242837129	0.845346069243
0	29050	22731.032018202623	1.159478820767
0	29055	22735.438050582145	0.859789968748
0	29060	22741.331662940616	1.109033246711
0	29070	22758.502789507566	3.335209003033
0	29080	22765.022075249949	0.862959411088
0	29090	22767.865453355109	1.619850599051
0	29095	22769.478439513361	0.905926140025
0	29100	22771.637947373433	0.991168427095
0	29105	22780.807003745748	0.89518036535
0	29117	22793.824178203612	3.98493860494
0	29125	22799.734885317282	1.072669871897
0	29130	22813.052889391373	1.015739590768
0	29145	22826.287975879488	0.920460310858
0	29150	22835.969560649656	0.929668010212
0	29180	22852.561774481362	4.302983955779
0	29185	22857.404019853368	0.965830961335
0	29190	22860.167934113287	1.158649978228
0	29200	22868.210068594596	0.830277072545
0	29205	22870.085428477778	1.143437607866
0	29215	22894.388531488031	2.710297105186
0	29225	22901.075652423757	1.550767344549
0	29234	22906.366705096962	0.887973971944
0	29237	22907.535641119892	1.537305356854
0	29240	22908.507653315256	2.414806858619
0	29257	22930.908923292035	0.844363936316
0	29277	22950.194934206319	0.909126556106
0	29282	22951.198279672445	1.237357440196
0	29290	22953.920911695577	3.049918900138
0	29297	22959.556067195783	0.837500150688
0	29307	22961.769722775821	2.685718609425
0	29310	22962.694543527704	1.607544650878
0	29317	22987.516526955353	1.03346509058
0	29320	22988.358304742711	1.721813312721
0	29327	22992.634338803396	1.106069014966
0	29340	22996.514034290798	1.134445973206
0	29362	23002.690965333939	3.760849701532
0	29375	23021.36998374683	1.013511893433
0	29405	23051.877708051701	1.106844072137
0	29410	23055.608551973022	0.821067547332
0	29415	23062.911307006551	0.996862698719
0	29420	23072.806851906428	0.955192364659
0	29430	23077.713004945409	1.140999672469
0	29435	23091.54805674716	1.023940771818
0	29465	23106.465883333595	0.8568135974
0	29500	23117.250736305059	7.140843371746
0	29509	23122.300416909526	0.91416509524
0	29512	23123.115389081831	1.451884062138
0	29525	23133.290502221996	1.626143024138
0	29530	23144.471675104666	1.085301170032
0	29561	23149.79605202488	0.827492535778
0	29600	23161.561069853306	4.014459598182
0	29620	23168.665477695144	3.215756823625
0	29625	23170.435974222335	3.685890537865
0	29642	23183.139235762629	2.972240152137
0	29655	23194.594252603361	2.682878784083
0	29680	23227.390308083266	0.825787580293
0	29690	23234.08437073833	0.851911178418
0	29695	23240.283967226736	0.971474856883
0	29710	23248.183020440677	2.245341273418
0	29715	23261.726205045505	1.048624171969
0	29725	23273.430932495485	1.071688806266
0	29730	23276.288508556995	1.03982472606
0	29735	23284.67937183042	0.862126675993
0	29740	23290.860928683462	0.80886268355
0	29755	23334.177349559113	3.781090757785
0	29760	23335.456823749915	0.997610567044
0	29765	23342.372428622497	1.077685962617
0	29770	23346.077336150752	1.058568520006
0	29775	23352.124346785355	0.978563368227
0	29789	23359.969429393656	0.860251205973
0	29792	23360.869376836515	1.750503790975
0	29802	23363.163059406368	0.994562975224
0	29805	23364.075738936396	4.557902016458
0	29825	23374.077530558311	0.813262437377
0	29835	23378.654069815401	1.421796947305
0	29852	23387.545329318459	1.05143966116
0	29860	23389.677359820449	0.923361789342
0	29865	23391.59286539135	4.365184460413
0	29870	23394.58815654876	0.843185726926
0	29877	23402.062553206657	0.966327160131
0	29880	23403.096121923265	1.894039070626
0	29890	23408.730759210807	1.327728638405
0	29895	23415.07916406122	1.158831126057
0	29900	23416.894818361936	0.970628568809
0	29910	23423.021404702592	1.629513874611
0	29925	23463.376482546449	1.167181064095
0	29937	23473.849330108477	1.191421905097
0	29945	23476.379887468178	0.875322456285
0	29962	23487.266851970478	1.138514348399
0	29965	23488.280244972481	1.257353980209
0	29975	23506.094248043202	1.124205686059
0	29995	23512.09530619526	1.209981006243
0	30005	23518.729397371645	1.167200073693
0	30015	23537.8484175201	1.072420041356
0	30027	23544.706029282695	1.03110852493
0	30040	23556.480216477726	0.89862463465
0	30050	23562.981749346481	1.942779439339
0	30070	23571.308831687139	0.816606182978
0	30079	23574.579913602382	0.987645730749
0	30082	23575.382857887805	7.189286681637
0	30090	23577.543120293956	10.740720466379
0	30100	23588.98205601658	1.121876520198
0	30115	23606.19612030974	2.594148317439
0	30120	23628.881082180799	0.944244659785
0	30155	23660.714661030421	3.095797111843
0	30165	23666.642526489262	1.815329193537
0	30170	23674.458925872728	0.809123777039
0	30190	23684.325048228301	2.044663221538
0	30195	23685.748935403291	1.019729523361
0	30220	23700.401095686315	1.01697910456
0	30225	23713.805384615159	0.803382102959
0	30230	23723.040995111049	0.821653479617
0	30240	23728.417642213291	1.080808916315
0	30260	23753.483405766713	3.463670511068
0	30265	23755.226253513081	1.073584964778
0	30270	23756.688784942729	0.922348900698
0	30275	23758.047053702829	0.901311288588
0	30290	23773.086633912294	3.160483893254
0	30302	23775.975132919458	1.051456566225
0	30305	23777.142363251449	6.045678815595
0	30315	23784.329148527514	2.125299121558
0	30325	23794.77619483346	1.069614067767
0	30335	23802.216484795208	1.170519813616
0	30345	23829.402842843716	0.836798009742
0	30365	23853.527909165249	2.211497644742
0	30370	23855.691603924411	1.079996377882
0	30380	23866.09739939485	1.188717591297
0	30390	23894.491502132786	0.988828774448
0	30395	23895.639879457226	0.870758549683
0	30420	23908.969969160126	7.768091602256
0	30445	23932.44701675884	1.067019345611
0	30460	23953.180635968386	1.119126341119
0	30465	23958.028321722085	0.869229040854
0	30480	23970.039510635313	0.906100438721
0	30490	23974.158061176236	0.893990603182
0	30505	23981.581999124603	0.849110936653
0	30522	23985.734122029025	2.081650189788
0	30530	23987.751093251243	1.95198887181
0	30550	24007.321860474571	1.808405104009
0	30570	24041.618816184589	1.453309933845
0	30580	24045.43664947315	3.203607797699
0	30590	24074.025483450691	1.165866556671
0	30607	24079.984464483843	4.478818255488
0	30615	24084.524639435319	1.092547558062
0	30620	24086.643375736719	1.073925629165
0	30625	24089.104813611357	1.072050292883
0	30670	24114.433092077977	2.409750021215
0	30675	24124.323847014056	0.862864590529
0	30680	24131.19955834444	1.023385513108
0	30685	24144.012498649311	1.003493689187
0	30692	24155.184929443064	1.194439064711
0	30695	24156.104201937846	0.93958841662
0	30700	24165.616715154159	1.125236258935
0	30705	24180.432801106953	1.10176607836
0	30710	24193.037888432492	0.83766382942
0	30715	24196.696786366444	1.003035877272
0	30750	24229.812639473255	1.160672892909
0	30760	24240.121807192776	1.108352143783
0	30765	24241.831452461374	1.0660493467
0	30775	24246.932073461683	1.007641600911
0	30782	24248.637681079181	3.745427851339
0	30785	24249.472725912267	1.548729737949
0	30790	24254.063238751673	1.098280643579
0	30795	24262.174312702112	1.084435244463
0	30805	24272.471073297666	2.845491247715
0	30820	24283.417755848759	6.712972998977
0	30827	24284.928966515583	0.987824767642
0	30830	24285.920171759163	6.075857588832
0	30835	24287.652617075348	0.887197310477
0	30845	24292.457240369673	0.828240790963
0	30857	24302.757934849117	0.922478892375
0	30862	24303.660044008274	1.18317084583
0	30865	24304.735250499159	1.933730576004
0	30875	24320.556743496174	2.540999880349
0	30890	24328.56235225536	3.089655544952
0	30905	24331.854588286448	1.480120952885
0	30910	24333.872757460872	0.864788283408
0	30925	24343.297671076401	4.533594015914
0	30930	24348.455472016841	1.034367793519
0	30937	24349.568185306306	0.897904755268
0	30940	24350.656855144131	1.686148781103
0	30945	24353.489145692438	0.869381322153
0	30950	24356.243290607111	1.188885151036
0	30965	24371.465337364844	0.965626652073
0	30970	24374.051600068206	1.096811275557
0	30975	24380.784096706238	1.142630076315
0	30990	24393.587106217994	1.040398021881
0	31002	24430.782784551559	0.897661835141
0	31017	24436.141739643398	0.974208950903
0	31030	24439.773014204113	5.911485111491
0	31040	24443.67149970997	3.683485840031
0	31045	24458.302280345872	0.892004931066
0	31055	24460.483476817764	1.530241679812
0	31060	24464.06203247719	1.014642706513
0	31070	24474.124863532616	0.816541263741
0	31085	24489.071785435625	1.006033942197
0	31092	24492.113232650621	1.08446354866
0	31095	24493.075750917209	1.501996549394
0	31100	24498.358191298008	1.170146521553
0	31105	24503.136911369072	0.921479887888
0	31115	24505.894030301275	2.059687830488
0	31130	24539.883269667343	0.815168149211
0	31140	24548.203514323294	3.113086840186
0	31159	24554.379521845428	1.072152323369
0	31162	24555.336598644087	4.665432977204
0	31190	24565.918243110218	7.071626714041
0	31195	24571.931989445358	1.113065640349
0	31210	24588.754743188834	0.932407874707
0	31215	24594.742510978846	1.09538997598
0	31220	24608.413736860283	0.977529177163
0	31225	24609.709768611781	0.851260099653
0	31232	24612.905500574494	1.093117822334
0	31252	24621.683131246322	0.935034159571
0	31255	24622.873860808888	1.788960661813
0	31270	24632.14311491175	4.961066293817
0	31279	24651.267454984842	0.918416839
0	31282	24652.132492541487	1.400433532485
0	31287	24653.320502593799	2.166808121524
0	31290	24654.496161164588	1.865312615959
0	31322	24694.368314646446	0.974214308877
0	31345	24712.781634112133	1.195550167467
0	31355	24721.377123117704	11.785846747412
0	31360	24725.927158137966	0.851543687936
0	31365	24732.848285376846	0.885087419301
0	31370	24734.47608244156	1.191622148082
0	31382	24742.694565316432	4.498506979537
0	31385	24743.582734310769	1.535063646057
0	31395	24753.385711046494	0.887845496461
0	31407	24758.088699216359	1.85986217709
0	31415	24762.162763782503	0.830412379373
0	31425	24765.883588369672	1.452064096098
0	31437	24771.016520137758	1.170192105897
0	31460	24787.377741670823	5.443794928167
0	31465	24800.397113783068	1.143118158262
0	31475	24804.16794977177	0.974060449377
0	31482	24806.382915119218	0.822698344756
0	31485	24807.353632145698	1.388696662723
0	31490	24809.502725777533	0.809624908864
0	31500	24817.539182089596	1.197328814502
0	31510	24824.158162273986	0.85255466029
0	31527	24843.830180914091	1.028391300621
0	31535	24867.379660617692	1.00030985726
0	31542	24882.876838513356	1.140216322616
0	31555	24902.584347566898	3.132396146508
0	31570	24933.95925955632	0.937266502064
0	31592	24955.878093839684	4.777090801199
0	31595	24956.820679442459	2.081407452258
0	31600	24961.74006932536	0.81255490575
0	31605	24991.514366475288	1.02834520936
0	31610	24996.929100422935	0.997684284113
0	31645	25034.305645346817	0.858378484286
0	31650	25035.436011264334	7.938043915981
0	31657	25037.70383324437	1.078372266889
0	31667	25039.842291274575	1.67153022613
0	31675	25042.806016812957	0.939730088133
0	31685	25052.38404846982	1.08345719073
0	31690	25055.387528546161	0.926144700125
0	31700	25058.669294848525	1.293147224169
0	31710	25068.569476996192	0.805571307987
0	31720	25073.150044795104	0.95553778531
0	31740	25090.07494678289	3.380982526228
0	31757	25105.261753002612	2.339780471019
0	31789	25119.32237354491	3.529529698409
0	31812	25129.872335288666	1.028403580748
0	31815	25130.697242369588	3.448086921254
0	31820	25132.163663490499	0.885479965899
0	31825	25136.584833428261	1.150368377008
0	31835	25146.319062674916	2.067852263585
0	31840	25150.494774387116	0.958109231666
0	31847	25155.078712697917	0.949323627166
0	31860	25158.875799208841	4.148192053733
0	31867	25161.02346576503	1.053352094162
0	31870	25162.187433605776	1.549461041008
0	31880	25178.621693098528	1.049898998719
0	31890	25180.8271653419	1.664228405525
0	31895	25182.0603045736	3.240491459139
0	31905	25185.426223136186	1.711092372205
0	31925	25194.268297902723	6.748850078225
0	31940	25204.608985920998	0.878304511681
0	31950	25214.063929302604	2.960782085917
0	31955	25223.370276889239	0.805620613135
0	31975	25271.57509270495	1.026076384261
0	32000	25302.324715353549	4.471195509829
0	32005	25303.310758528655	0.890835717879
0	32020	25313.032746857342	1.603011383029
0	32025	25315.405717090196	4.478251718751
0	32055	25353.468064162483	0.986176128965
[...]
7	21240	16674.285796948749	1
7	21241	16674.532268888346	0
7	21250	16686.618950066021	1
7	21251	16687.230024012863	0
7	21255	16687.623678316316	1
7	21256	16688.414382409058	0
7	21285	16711.874049501879	1
7	21286	16711.989879808755	0
7	21297	16713.88159210755	1
7	21302	16714.298970718219	2
7	21303	16715.082139549026	1
7	21316	16718.186460436875	0
7	21335	16725.023859454092	1
7	21336	16725.6528229544	0
7	21440	16798.937608720056	1
7	21441	16799.056033892724	0
7	21452	16806.157008201646	1
7	21456	16807.797540670063	0
7	21505	16857.473834933425	1
7	21506	16857.877625136324	0
7	21525	16866.214218950058	1
7	21534	16866.80598809791	2
7	21538	16868.52728225609	1
7	21541	16869.551722352502	0
7	21595	16896.16392636659	1
7	21606	16898.809227090249	0
7	21655	16964.016488487595	1
7	21661	16965.093249596627	0
7	21757	17041.094751547155	1
7	21761	17042.668059988442	0
7	21800	17077.066056688512	1
7	21801	17077.84652507029	0
7	21820	17089.031335204916	1
7	21821	17089.718478935027	0
7	21910	17165.21510605176	1
7	21911	17166.384991554778	0
7	21920	17168.472848526822	1
7	21931	17171.327699095545	0
7	21950	17197.409128548844	1
7	21956	17199.603695369228	0
7	21970	17205.320438987948	1
7	21971	17206.108454570427	0
7	22025	17268.660497773386	1
7	22027	17269.242782246891	2
7	22028	17269.398001639422	1
7	22031	17270.206518893287	0
7	22060	17283.488313759651	1
7	22061	17283.56428423906	0
7	22065	17284.450959582248	1
7	22066	17284.583911439034	0
7	22075	17304.132276609409	1
7	22076	17304.918497710409	0
7	22120	17349.117329097919	1
7	22121	17350.051849495781	0
7	22240	17517.860094655111	1
7	22241	17518.60466672605	0
7	22265	17560.267446728868	1
7	22271	17562.186330518325	0
7	22280	17563.419224618977	1
7	22286	17565.057206822471	0
7	22330	17594.263943316201	1
7	22331	17594.646708700127	0
7	22355	17610.275826721837	1
7	22356	17610.858546447534	0
7	22365	17613.16388291747	1
7	22366	17614.110680544931	0
7	22390	17627.519757442475	1
7	22391	17627.561823463212	0
7	22417	17647.336420225196	1
7	22421	17649.145131402178	0
7	22460	17671.848499382584	1
7	22466	17673.62926176087	0
7	22635	17838.989585080414	1
7	22641	17840.447064193521	0
7	22790	17983.334464529566	1
7	22791	17983.423178219729	0
7	22877	18053.389314232663	1
7	22881	18055.051996194404	0
7	22990	18133.280965440964	1
7	22991	18134.14287577882	0
7	23040	18164.300135807031	1
7	23041	18165.066974070794	0
7	23090	18192.511785717567	1
7	23091	18192.659564111889	0
7	23115	18204.523202054145	1
7	23116	18205.078335340646	0
7	23180	18266.426825860581	1
7	23181	18266.820932625741	0
7	23187	18267.799078962952	1
7	23196	18269.895754801989	0
7	23210	18278.209648502777	1
7	23211	18278.65225185335	0
7	23345	18366.866446800605	1
7	23346	18367.887285519887	0
7	23455	18425.771379879819	1
7	23456	18426.589997319794	0
7	23522	18458.512422671396	1
7	23531	18458.750757494748	2
7	23536	18460.218947840766	3
7	23555	18465.133836146201	2
7	23558	18466.176368351131	1
7	23561	18467.054182307179	0
7	23590	18475.095894585379	1
7	23591	18476.214827390297	0
7	23650	18513.87515295538	1
7	23651	18514.110682227617	0
7	23720	18564.096390084786	1
7	23721	18565.017584504282	0
7	23740	18587.535027758925	1
7	23741	18588.332471912934	0
7	23765	18608.811659405829	1
7	23766	18608.820812374595	0
7	23875	18718.861320062465	1
7	23876	18719.498392587049	0
7	23900	18742.142338831947	1
7	23902	18742.343057331901	2
7	23903	18742.556379038716	1
7	23906	18743.640331372028	0
7	23950	18771.991184379152	1
7	23951	18772.313358657329	0
7	23955	18772.959618035361	1
7	23956	18773.138709686963	0
7	23962	18774.040138558653	1
7	23967	18774.859031005744	2
7	23968	18775.335884267079	1
7	23971	18776.437800288094	0
7	24075	18897.136835333448	1
7	24081	18899.364884326116	0
7	24130	18931.242049510894	1
7	24131	18931.586495497242	0
7	24140	18933.629873646694	1
7	24141	18934.307648074949	0
7	24195	18959.828912267971	1
7	24201	18961.718183005665	0
7	24235	18983.251007449466	1
7	24236	18983.668209182423	0
7	24245	18984.77509862679	1
7	24246	18985.438678446458	0
7	24350	19139.325414701311	1
7	24351	19139.774621504704	0
7	24375	19145.708026900193	1
7	24376	19145.830883230888	0
7	24395	19158.090720076498	1
7	24396	19158.587811812478	0
7	24510	19240.097916675886	1
7	24511	19240.975211931421	0
7	24705	19403.630303951524	1
7	24706	19404.079625951224	0
7	24720	19409.403160919047	1
7	24721	19410.584405814823	0
7	24787	19463.767684638769	1
7	24789	19464.241874071535	2
7	24796	19464.407776205937	3
7	24800	19466.605498095946	2
7	24803	19467.484722576914	1
7	24806	19468.649531273888	0
7	24820	19483.639279205699	1
7	24821	19483.901856061754	0
7	24900	19584.824471157251	1
7	24901	19585.075936879717	0
7	24910	19587.86998515681	1
7	24911	19588.620628298937	0
7	24927	19618.951673034962	1
7	24931	19620.554016387682	0
7	25002	19673.355552125073	1
7	25006	19674.974017423523	0
7	25045	19710.645654195659	1
7	25046	19710.753912197023	0
7	25050	19711.39377992285	1
7	25051	19711.85008035178	0
7	25115	19751.558801133953	1
7	25116	19752.18056762749	0
7	25135	19758.157291175906	1
7	25141	19759.751000491923	0
7	25145	19759.916110744479	1
7	25146	19760.732788301373	0
7	25395	19900.210497452536	1
7	25396	19901.0475928845	0
7	25495	19952.583750392489	1
7	25501	19954.375901085572	0
7	25522	19967.288839431713	1
7	25526	19969.115745091732	0
7	25535	19970.70334614067	1
7	25536	19971.325179705309	0
7	25755	20129.829667168459	1
7	25756	20130.310030711687	0
7	25770	20143.299020874127	1
7	25771	20144.294700770321	0
7	25782	20152.10358657812	1
7	25786	20153.330230000275	0
7	25795	20159.502320975115	1
7	25796	20159.935368977855	0
7	25845	20220.399749826796	1
7	25846	20220.734852128401	0
7	25855	20224.313336580319	1
7	25856	20224.986010539893	0
7	25870	20250.414877766205	1
7	25871	20250.461645410483	0
7	25885	20258.073982343575	1
7	25886	20258.212131721394	0
7	25895	20260.309445570554	1
7	25896	20260.777845923105	0
7	25925	20272.974007152425	1
7	25926	20273.460262518343	0
7	26060	20380.939030415363	1
7	26061	20381.787294434622	0
7	26275	20521.843340660753	1
7	26277	20522.271244780232	2
7	26278	20522.333505912123	1
7	26281	20523.193852409998	0
7	26290	20524.581968644979	1
7	26291	20525.627758773875	0
7	26490	20714.046458761936	1
7	26491	20714.227743806829	0
7	26565	20808.756929758125	1
7	26566	20809.579796951686	0
7	26675	20888.537898658626	1
7	26676	20888.806023049296	0
7	26715	20915.604774553246	1
7	26716	20915.655988505912	0
7	26725	20927.872515322882	1
7	26726	20928.828333499317	0
7	26805	20984.938052555762	1
7	26806	20985.310894017127	0
7	26820	20998.017362390926	1
7	26821	20998.034463534921	0
7	26830	20999.217532156902	1
7	26831	21000.104077475376	0
7	26965	21091.013583825554	1
7	26966	21091.591912536916	0
7	26975	21092.573760476264	1
7	26976	21093.46262231724	0
7	26990	21100.253817715128	1
7	26991	21100.41490436507	0
7	27060	21148.230606152917	1
7	27061	21148.329801949731	0
7	27080	21179.600206393084	1
7	27081	21180.761885150177	0
7	27095	21198.698449458988	1
7	27097	21198.894763606159	2
7	27098	21199.747432392169	1
7	27106	21201.566815787632	0
7	27165	21250.927259347474	1
7	27166	21251.119285415446	0
7	27235	21276.72647799865	1
7	27241	21278.75202465491	0
7	27252	21280.182032405891	1
7	27261	21282.930879282358	0
7	27375	21388.273769272533	1
7	27376	21389.167894273903	0
7	27380	21389.506407332857	1
7	27381	21390.023107572552	0
7	27400	21397.30976660223	1
7	27401	21397.48777359901	0
7	27412	21399.799408789486	1
7	27431	21404.063579602571	0
7	27435	21404.19266268144	1
7	27436	21404.966591656985	0
7	27470	21454.809456339648	1
7	27471	21454.840212684254	0
7	27477	21455.264030543031	1
7	27481	21456.848300799763	0
7	27520	21488.063473262333	1
7	27521	21488.504364932454	0
7	27525	21489.512848048578	1
7	27526	21489.659267558469	0
7	27535	21491.691327151184	1
7	27536	21492.3124987272	0
7	27555	21508.025004366182	1
7	27556	21509.04916729864	0
7	27562	21509.754779876795	1
7	27564	21509.755941487384	2
7	27573	21512.296295474025	1
7	27577	21512.385540857622	2
7	27578	21513.285343860204	1
7	27581	21514.208935498933	0
7	27605	21527.235687688379	1
7	27606	21527.850401560679	0
7	27615	21529.50973118055	1
7	27616	21530.113509709335	0
7	27760	21642.260455363063	1
7	27761	21642.57268387366	0
7	27885	21747.820834787694	1
7	27886	21748.596931743278	0
7	27920	21758.032397337286	1
7	27921	21758.620767064655	0
7	28017	21853.506089405027	1
7	28021	21855.18270163612	0
7	28280	22149.440042534165	1
7	28281	22149.648898068328	0
7	28332	22186.343682745545	1
7	28336	22187.579354095231	0
7	28400	22240.460166003076	1
7	28401	22241.188836213978	0
7	28405	22241.34341389315	1
7	28406	22242.35866540925	0
7	28420	22256.06746374105	1
7	28436	22260.411305801467	0
7	28485	22297.522669196105	1
7	28486	22298.10785459181	0
7	28520	22316.164440955468	1
7	28521	22316.757591657808	0
7	28525	22316.77126640544	1
7	28526	22317.932877878753	0
7	28585	22342.447747699012	1
7	28586	22343.278967275917	0
7	28625	22368.931481730727	1
7	28626	22369.214823940439	0
7	28630	22370.1286199197	1
7	28631	22370.323842148805	0
7	28695	22429.911046611298	1
7	28696	22431.000330456661	0
7	28740	22453.098179485119	1
7	28741	22453.513732349635	0
7	28750	22455.83982817791	1
7	28751	22456.035693561454	0
7	28935	22647.503430901738	1
7	28937	22647.881075777589	2
7	28938	22648.197356040574	1
7	28941	22649.114571841698	0
7	28945	22649.821325574495	1
7	28946	22650.145261929821	0
7	28950	22650.558530571026	1
7	28951	22651.180449862297	0
7	29115	22793.414404026692	1
7	29116	22793.824178203612	0
7	29170	22850.274791891177	1
7	29171	22850.525542442961	0
7	29255	22930.436870952817	1
7	29256	22930.908923292035	0
7	29325	22991.910860488768	1
7	29326	22992.634338803396	0
7	29347	22998.942927774698	1
7	29351	23000.753342533562	0
7	29360	23002.031568373377	1
7	29361	23002.690965333939	0
7	29455	23102.965849891473	1
7	29456	23103.895292204353	0
7	29507	23122.030892135583	1
7	29511	23123.115389081831	0
7	29535	23145.325887270239	1
7	29537	23146.18967144126	2
7	29538	23146.235309057025	1
7	29542	23147.047647618262	2
7	29543	23147.21186122754	1
7	29546	23148.011982302176	0
7	29550	23148.251890246934	1
7	29557	23148.989113319224	2
7	29559	23149.570088039498	3
7	29560	23149.79605202488	2
7	29563	23150.63431898923	1
7	29567	23151.318931639574	2
7	29568	23151.750907444296	1
7	29571	23152.826267700636	0
7	29575	23153.232153724553	1
7	29576	23153.716058901412	0
7	29640	23182.391838703547	1
7	29641	23183.139235762629	0
7	29935	23473.172821028747	1
7	29936	23473.849330108477	0
7	30025	23543.856835462526	1
7	30026	23544.706029282695	0
7	30077	23574.513099960175	1
7	30081	23575.382857887805	0
7	30205	23689.024739163933	1
7	30206	23689.262345004062	0
7	30495	23974.881633988844	1
7	30496	23975.068264846537	0
7	30517	23984.215005076468	1
7	30521	23985.734122029025	0
7	30595	24075.569108623655	1
7	30596	24076.674420322601	0
7	30605	24079.566711905216	1
7	30606	24079.984464483843	0
7	30725	24223.97433631009	1
7	30726	24224.231239407635	0
7	30730	24224.612197204677	1
7	30731	24225.362621792438	0
7	30895	24329.678895325265	1
7	30896	24330.002663601711	0
7	30955	24362.244736349495	1
7	30956	24362.324677625109	0
7	31000	24430.736386480135	1
7	31001	24430.782784551559	0
7	31155	24553.343157042861	1
7	31161	24555.336598644087	0
7	31170	24556.792370288115	1
7	31171	24557.492699053646	0
7	31175	24558.232075110618	1
7	31176	24558.596712416825	0
7	31230	24612.881750491583	1
7	31231	24612.905500574494	0
7	31320	24693.773617233933	1
7	31321	24694.368314646446	0
7	31400	24756.140543463685	1
7	31406	24758.088699216359	0
7	31435	24770.342427719358	1
7	31436	24771.016520137758	0
7	31520	24842.414468250351	1
7	31526	24843.830180914091	0
7	31540	24882.041697815048	1
7	31541	24882.876838513356	0
7	31655	25036.830421571159	1
7	31656	25037.70383324437	0
7	31660	25037.917249160966	1
7	31666	25039.842291274575	0
7	31725	25082.44949831977	1
7	31726	25083.237247682219	0
7	31755	25104.562848662266	1
7	31756	25105.261753002612	0
7	31775	25116.325463135143	1
7	31777	25117.022494718042	2
7	31779	25117.223972047632	3
7	31780	25117.412028026135	2
7	31788	25119.32237354491	1
7	31791	25120.371194950138	0
7	32040	25329.303189733504	1
7	32041	25329.356439562049	0
7	32060	25358.670209783639	1
7	32061	25359.47158693892	0
7	32085	25384.491151446724	1
7	32086	25385.378319118546	0
7	32245	25537.910413348784	1
7	32246	25538.266062054415	0
7	32380	25648.893022467783	1
7	32381	25650.043657165094	0
7	32465	25763.79882683623	1
7	32466	25764.503606377861	0
7	32495	25782.754738656683	1
7	32496	25783.097110898296	0
7	32535	25816.108393576268	1
7	32536	25816.472561258414	0
7	32720	25979.051733539165	1
7	32721	25979.362708099303	0
7	32760	26020.641690157072	1
7	32761	26020.765151441146	0
7	32780	26023.823532096672	1
7	32781	26024.66368246251	0
7	32805	26055.996026569344	1
7	32806	26056.550036597199	0
7	32845	26084.422620318676	1
7	32846	26084.90113145699	0
7	32850	26085.486848965114	1
7	32851	26086.062571883008	0
7	32855	26086.894381219164	1
7	32856	26087.13013631561	0
7	32880	26101.53638577672	1
7	32881	26102.123442733116	0
7	32894	26104.020131704484	1
7	32901	26106.055463217493	0
7	32927	26117.454094799014	1
7	32931	26119.563727133274	0
7	33035	26168.056576257572	1
7	33036	26168.683611135006	0
7	33075	26211.708288907102	1
7	33076	26212.576811655466	0
7	33095	26217.999848789674	1
7	33096	26218.680766993453	0
7	33170	26296.664882695685	1
7	33171	26297.433390439578	0
7	33175	26297.520219274475	1
7	33177	26297.628919239569	2
7	33178	26298.309922069401	1
7	33181	26299.498036840834	0
7	33195	26301.565518465989	1
7	33196	26302.458244371908	0
7	33200	26303.397018300489	1
7	33201	26303.508042339357	0
7	33235	26317.89353794721	1
7	33236	26318.717570562836	0
7	33330	26417.205958224376	1
7	33331	26418.324353153969	0
7	33342	26419.818564686555	1
7	33356	26423.591633475074	0
7	33365	26425.950262125249	1
7	33372	26426.701020831522	2
7	33373	26427.559257126328	1
7	33377	26427.64575433925	2
7	33378	26428.51348674056	1
7	33381	26429.69022038496	0
7	33400	26433.13748987175	1
7	33401	26433.628999256005	0
7	33420	26441.223883172534	1
7	33421	26441.78529247716	0
7	33575	26591.376968745523	1
7	33576	26591.382083792539	0
7	33605	26602.158664207199	1
7	33606	26603.017260493664	0
7	33620	26613.783689649093	1
7	33621	26614.485580730465	0
7	33640	26635.258810983761	1
7	33641	26635.379968636931	0
7	33650	26637.537652342536	1
7	33651	26637.639794745465	0
7	33740	26695.472907036744	1
7	33741	26695.834321596222	0
7	33790	26728.127280402857	1
7	33791	26728.304837975085	0
7	33905	26832.865737500478	1
7	33906	26833.338360599662	0
7	33995	26966.434953633911	1
7	33996	26966.558441905738	0
7	34045	26999.555591945217	1
7	34046	26999.977169300964	0
7	34090	27041.183030523172	1
7	34091	27041.488973620788	0
7	34115	27056.555793743434	1
7	34116	27056.838659736505	0
7	34250	27164.180135156159	1
7	34251	27164.665539612966	0
7	34285	27178.57116841985	1
7	34286	27178.704460406551	0
7	34355	27253.530792364068	1
7	34357	27254.140810058664	2
7	34358	27254.184748250069	1
7	34361	27255.036849454706	0
7	34410	27275.666213486457	1
7	34411	27276.471189207286	0
7	34550	27359.382415761409	1
7	34551	27360.061308023868	0
7	34570	27364.707113279638	1
7	34571	27365.498490801123	0
7	34840	27638.169743097807	1
7	34846	27640.031941113197	0
7	34875	27678.698296404071	1
7	34876	27679.494837681233	0
7	34925	27739.238441040157	1
7	34926	27739.776423350888	0
7	34955	27754.472359228949	1
7	34956	27754.861677493857	0
7	34967	27756.708218971528	1
7	34971	27757.685053301001	0
7	35087	27839.724017949929	1
7	35097	27841.147475305458	2
7	35098	27841.813128630843	1
7	35101	27842.819271682136	0
7	35270	27965.217170396412	1
7	35271	27965.735070040912	0
7	35545	28178.834990108046	1
7	35546	28179.419051967103	0
7	35552	28180.349211366088	1
7	35556	28181.670460606653	0
7	35560	28182.566220104938	1
7	35561	28182.79024358793	0
7	35600	28218.424574353293	1
7	35601	28218.857218007163	0
7	35605	28219.74789745879	1
7	35606	28219.934634452105	0
7	35610	28219.937513069439	1
7	35611	28221.096436550074	0
7	35615	28221.864698347278	1
7	35616	28222.213998076484	0
7	35670	28264.266793807327	1
7	35671	28264.283162190229	0
7	35710	28337.244080822388	1
7	35711	28337.427714312213	0
7	35752	28366.649517460508	1
7	35757	28367.668082229875	2
7	35758	28368.525431071812	1
7	35761	28369.685322568504	0
7	35795	28395.626646937923	1
7	35796	28396.474352402586	0
7	35845	28441.083014593415	1
7	35846	28442.049474375925	0
7	35900	28475.944201662324	1
7	35901	28476.115461298884	0
7	35960	28506.092348200865	1
7	35961	28506.985125925906	0
7	36010	28570.638267122954	1
7	36011	28570.921040359586	0
7	36015	28570.977171469624	1
7	36017	28571.667810371492	2
7	36018	28571.805986444819	1
7	36021	28572.774815137479	0
7	36070	28630.550507206748	1
7	36071	28631.585150650646	0
7	36095	28635.532308855736	1
7	36096	28636.440040770282	0
7	36100	28637.352538902609	1
7	36101	28637.578060055726	0
7	36125	28650.998300171271	1
7	36126	28651.802199785199	0
7	36275	28771.383302623363	1
7	36276	28771.861308724098	0
7	36512	28928.41578375232	1
7	36517	28929.097971178192	2
7	36518	28929.665674736956	1
7	36521	28930.56626066477	0
7	36530	28932.251866759071	1
7	36531	28932.563971899083	0
7	36590	28979.189500270944	1
7	36591	28979.25898572169	0
7	36735	29097.332294455077	1
7	36736	29097.650960372681	0
7	36810	29168.003935494886	1
7	36811	29168.280704454473	0
7	36815	29168.725405093068	1
7	36816	29169.091644257913	0
7	36930	29245.415877268155	1
7	36931	29245.667743087529	0
7	37010	29303.904653980575	1
7	37011	29304.659743474651	0
7	37035	29334.129345476141	1
7	37036	29334.524832164303	0
7	37070	29362.264838179035	1
7	37071	29362.819888159672	0
7	37075	29363.520426058638	1
7	37076	29364.014694596587	0
7	37100	29385.004251361985	1
7	37101	29386.014833197817	0
7	37220	29492.86233293638	1
7	37221	29493.847189525915	0
7	37275	29536.119123570054	1
7	37276	29536.233305589911	0
7	37280	29536.348580453743	1
7	37282	29536.541671743893	2
7	37283	29537.380404337459	1
7	37286	29538.278337482978	0
7	37290	29538.350969668234	1
7	37291	29539.340075977296	0
7	37440	29670.629969932843	1
7	37441	29671.111118190346	0
7	37450	29676.440887504803	1
7	37451	29677.154415387916	0
7	37470	29685.185376436033	1
7	37476	29687.23970650195	0
7	37500	29693.311230389602	1
7	37501	29693.403732139226	0
7	37525	29713.805328554892	1
7	37526	29714.825190486616	0
7	37540	29719.17604076672	1
7	37541	29720.19357703697	0
7	37570	29746.558306591601	1
7	37571	29746.883613456246	0
7	37625	29804.912215821384	1
7	37626	29805.188169835359	0
7	37635	29825.662360806229	1
7	37636	29825.783765786495	0
7	37655	29835.052757591071	1
7	37656	29835.257924950231	0
7	37665	29837.136734532458	1
7	37676	29839.656164159828	0
7	37745	29914.086394120981	1
7	37746	29914.412175841219	0
7	37770	29926.474490029975	1
7	37771	29927.517292134284	0
7	37775	29928.392660307555	1
7	37776	29928.477309507976	0
7	37820	29964.224035360047	1
7	37821	29964.747915884798	0
7	37860	29990.883726833472	1
7	37862	29991.283853515219	2
7	37863	29991.305755246809	1
7	37866	29992.29200067409	0
8	13690	10742.64291556276	1
8	13691	10743.423658230112	0
8	17850	14020.373439678549	1
8	17851	14021.629938094626	0
8	19390	15318.577388373139	1
8	19391	15321.478357446837	0
8	20015	15776.022386523144	1
8	20016	15776.431230620525	0
8	21580	16889.967395311104	1
8	21581	16890.450881433948	0
8	21585	16891.266962010781	1
8	21586	16894.023618135919	0
8	21590	16895.010055816305	1
8	21591	16895.877700809309	0
8	23310	18344.891371027005	1
8	23311	18345.26687210873	0
8	24580	19325.727211625814	1
8	24581	19326.28225156244	0
8	25225	19799.603334312547	1
8	25229	19801.797517526406	0
8	30065	23570.177829834619	1
8	30074	23573.618975082421	0
8	30815	24280.92201516524	1
8	30816	24282.591986116053	0
9	26480	20712.484738636636	1
9	26489	20714.046458761936	0
9	29547	23148.011982302176	1
9	29554	23148.972755361715	2
9	29556	23148.989113319224	1
9	29558	23149.570088039498	0
9	29572	23152.826267700636	1
9	29574	23153.232153724553	0
9	34242	27161.143798575401	1
9	34246	27163.842052584393	0
9	34255	27165.554790698523	1
9	34256	27167.773898020813	0
9	34565	27363.378314868718	1
9	34566	27364.33933310634	0

